@<TRIPOS>MOLECULE
tmp/4bzpA00.pdb
 123 119 0 0 0
SMALL
GASTEIGER

@<TRIPOS>ATOM
      1  N         -3.3490    2.7320   24.0210 N.3    13  SER13      -0.1202
      2  CA        -3.0340    3.9780   23.3350 C.3    13  SER13       0.2020
      3  C         -1.8950    4.6880   24.0620 C.2    13  SER13       0.2619
      4  O         -1.9300    4.8290   25.2800 O.2    13  SER13      -0.2717
      5  CB        -4.2510    4.9010   23.3050 C.3    13  SER13       0.2103
      6  OG        -4.0150    6.0610   22.5840 O.3    13  SER13      -0.2182
      7  N         -0.8660    5.0740   23.3270 N.am   14  GLY14      -0.1942
      8  CA         0.2750    5.7940   23.8880 C.3    14  GLY14       0.2014
      9  C          1.3090    4.9080   24.5500 C.2    14  GLY14       0.2640
     10  O          2.2360    5.4530   25.1510 O.2    14  GLY14      -0.2714
     11  N          1.2360    3.6100   24.3750 N.am   15  SER15      -0.1935
     12  CA         2.2300    2.7120   24.9430 C.3    15  SER15       0.2055
     13  C          3.5140    2.6080   24.1740 C.2    15  SER15       0.2644
     14  O          4.5310    2.1240   24.7220 O.2    15  SER15      -0.2714
     15  CB         1.6100    1.3290   25.1740 C.3    15  SER15       0.2130
     16  OG         1.1750    0.7260   23.9690 O.3    15  SER15      -0.2179
     17  N          3.5000    3.1030   22.9380 N.am   16  GLY16      -0.1939
     18  CA         4.7110    3.1610   22.1270 C.3    16  GLY16       0.2014
     19  C          4.7200    2.3120   20.8860 C.2    16  GLY16       0.2639
     20  O          5.7650    2.1590   20.2650 O.2    16  GLY16      -0.2714
     21  N          3.6100    1.7030   20.5000 N.am   17  LYS17      -0.1963
     22  CA         3.5760    0.8100   19.3570 C.3    17  LYS17       0.1728
     23  C          4.0280    1.4540   18.0680 C.2    17  LYS17       0.2617
     24  O          4.8960    0.9020   17.3670 O.2    17  LYS17      -0.2715
     25  CB         2.1320    0.2930   19.1650 C.3    17  LYS17       0.0311
     26  CG         1.5090   -0.4230   20.3760 C.3    17  LYS17       0.0038
     27  CD         0.0270   -0.8070   20.1170 C.3    17  LYS17       0.0206
     28  CE        -0.9140    0.3380   19.8440 C.3    17  LYS17       0.1093
     29  NZ        -1.1230    1.1700   21.0380 N.3    17  LYS17      -0.1314
     30  N          3.4580    2.6010   17.7410 N.am   18  SER18      -0.1936
     31  CA         3.8260    3.2560   16.4840 C.3    18  SER18       0.2055
     32  C          5.2460    3.7940   16.5540 C.2    18  SER18       0.2644
     33  O          5.9460    3.7030   15.5530 O.2    18  SER18      -0.2714
     34  CB         2.8420    4.3450   16.0910 C.3    18  SER18       0.2130
     35  OG         2.8010    5.3970   17.0230 O.3    18  SER18      -0.2179
     36  N          5.6460    4.3190   17.6960 N.am   19  SER19      -0.1935
     37  CA         7.0260    4.8460   17.7850 C.3    19  SER19       0.2055
     38  C          8.0130    3.7290   17.5370 C.2    19  SER19       0.2642
     39  O          8.9720    3.9020   16.7900 O.2    19  SER19      -0.2714
     40  CB         7.3060    5.4070   19.1550 C.3    19  SER19       0.2130
     41  OG         6.4760    6.5020   19.5110 O.3    19  SER19      -0.2179
     42  N          7.8150    2.5640   18.1550 N.am   20  VAL20      -0.1977
     43  CA         8.6920    1.4440   17.9310 C.3    20  VAL20       0.1596
     44  C          8.6150    0.9290   16.5140 C.2    20  VAL20       0.2287
     45  O          9.6130    0.6890   15.8500 O.2    20  VAL20      -0.2864
     46  CB         8.4800    0.3160   18.9680 C.3    20  VAL20       0.0276
     47  CG1        9.3660   -0.8780   18.6520 C.3    20  VAL20       0.0022
     48  CG2        8.7620    0.8240   20.3860 C.3    20  VAL20       0.0022
     49  N          0.9920   -1.6270   14.2230 N.3    82  PRO82      -0.2116
     50  CA         0.8580   -1.0100   15.5370 C.3    82  PRO82       0.1372
     51  C         -0.5550   -0.7420   16.0090 C.2    82  PRO82       0.2244
     52  O         -0.8260    0.3840   16.5410 O.2    82  PRO82      -0.2868
     53  CB         1.5940    0.2970   15.3430 C.3    82  PRO82       0.0268
     54  CG         1.3190    0.6640   13.9330 C.3    82  PRO82       0.0207
     55  CD         1.3420   -0.6330   13.1890 C.3    82  PRO82       0.0892
     56  N          1.7870   10.5460   28.7240 N.3   120  ARG120     -0.1245
     57  CA         2.2990   10.7640   27.3850 C.3   120  ARG120      0.1563
     58  C          1.2290   11.4940   26.5160 C.2   120  ARG120      0.2260
     59  O          1.4680   12.5710   25.9200 O.2   120  ARG120     -0.2867
     60  CB         2.7210    9.4180   26.7740 C.3   120  ARG120      0.0307
     61  CG         3.9790    8.8170   27.3800 C.3   120  ARG120      0.0489
     62  CD         4.0180    7.3420   27.0030 C.3   120  ARG120      0.2205
     63  NE         5.2710    6.7500   27.4260 N.pl3 120  ARG120     -0.0865
     64  CZ         5.6490    5.5350   27.0810 C.cat 120  ARG120      0.5346
     65  NH1        4.9360    4.8460   26.2070 N.pl3 120  ARG120      0.1354
     66  NH2        6.8020    5.0250   27.5180 N.pl3 120  ARG120      0.1354
     67  N          0.0980   11.6720   23.4310 N.3   122  PRO122     -0.2102
     68  CA         0.7240   12.4350   22.3570 C.3   122  PRO122      0.1504
     69  C         -0.2170   13.1180   21.3960 C.2   122  PRO122      0.2575
     70  O          0.1190   14.1490   20.8190 O.2   122  PRO122     -0.2718
     71  CB         1.5480   11.3380   21.6660 C.3   122  PRO122      0.0282
     72  CG         0.8650   10.1280   21.9250 C.3   122  PRO122      0.0208
     73  CD         0.5460   10.2660   23.3830 C.3   122  PRO122      0.0893
     74  N         -1.4350   12.5870   21.2780 N.am  123  LYS123     -0.1980
     75  CA        -2.4320   13.0670   20.3410 C.3   123  LYS123      0.1596
     76  C         -3.6460   13.6380   21.0740 C.2   123  LYS123      0.2287
     77  O         -4.6230   13.9720   20.4060 O.2   123  LYS123     -0.2864
     78  CB        -2.9080   11.9220   19.4050 C.3   123  LYS123      0.0298
     79  CG        -1.7870   11.4070   18.5220 C.3   123  LYS123      0.0038
     80  CD        -2.2780   10.2520   17.6560 C.3   123  LYS123      0.0206
     81  CE        -1.2000    9.7190   16.7380 C.3   123  LYS123      0.1093
     82  NZ        -0.1940    8.9160   17.5220 N.3   123  LYS123     -0.1314
     83  N          8.7250    0.4000   29.5450 N.3   156  PRO156     -0.2116
     84  CA         8.9700    1.8410   29.3770 C.3   156  PRO156      0.1372
     85  C         10.3040    2.3350   29.9260 C.2   156  PRO156      0.2244
     86  O         10.6790    3.4420   29.6730 O.2   156  PRO156     -0.2868
     87  CB         7.7300    2.4740   30.0690 C.3   156  PRO156      0.0268
     88  CG         7.2430    1.4810   31.0080 C.3   156  PRO156      0.0207
     89  CD         7.5020    0.1520   30.3370 C.3   156  PRO156      0.0892
     90  N         13.0820    1.1690   28.8970 N.3   158  ARG158     -0.1231
     91  CA        13.9530    1.0960   27.7690 C.3   158  ARG158      0.1694
     92  C         13.5030    2.1520   26.7520 C.2   158  ARG158      0.2593
     93  O         12.2930    2.4380   26.6080 O.2   158  ARG158     -0.2718
     94  CB        13.9690   -0.3200   27.1950 C.3   158  ARG158      0.0321
     95  CG        14.3140   -1.4020   28.2430 C.3   158  ARG158      0.0489
     96  CD        15.7030   -1.2140   28.8400 C.3   158  ARG158      0.2205
     97  NE        16.7340   -1.4330   27.8460 N.pl3 158  ARG158     -0.0865
     98  CZ        17.9750   -0.9470   27.9220 C.cat 158  ARG158      0.5346
     99  NH1       18.3480   -0.1900   28.9510 N.pl3 158  ARG158      0.1354
    100  NH2       18.8440   -1.1780   26.9390 N.pl3 158  ARG158      0.1354
    101  N         14.4590    2.7550   26.0820 N.am  159  SER159     -0.1938
    102  CA        14.1660    3.7940   25.1150 C.3   159  SER159      0.2055
    103  C         13.5370    3.2180   23.8620 C.2   159  SER159      0.2642
    104  O         13.6000    2.0130   23.5990 O.2   159  SER159     -0.2714
    105  CB        15.4810    4.5000   24.7350 C.3   159  SER159      0.2130
    106  OG        16.3040    3.6430   23.9780 O.3   159  SER159     -0.2179
    107  N         12.9870    4.1140   23.0170 N.am  160  ILE160     -0.1977
    108  CA        12.4010    3.6570   21.7510 C.3   160  ILE160      0.1596
    109  C         13.4410    2.9510   20.9120 C.2   160  ILE160      0.2287
    110  O         13.2270    1.9060   20.3220 O.2   160  ILE160     -0.2864
    111  CB        11.7570    4.8170   20.9950 C.3   160  ILE160      0.0276
    112  CG1       10.6020    5.3610   21.8080 C.3   160  ILE160      0.0022
    113  CG2       11.3150    4.4100   19.6270 C.3   160  ILE160      0.0022
    114  CD1       10.2210    6.7610   21.4520 C.3   160  ILE160      0.0001
    115  N         14.1210   -0.4870   22.4360 N.3   163  GLN163     -0.1245
    116  CA        12.9840   -1.3790   22.1320 C.3   163  GLN163      0.1566
    117  C         12.9760   -1.8200   20.6720 C.2   163  GLN163      0.2260
    118  O         12.6960   -2.9530   20.3580 O.2   163  GLN163     -0.2867
    119  CB        11.6830   -0.6660   22.4400 C.3   163  GLN163      0.0367
    120  CG        11.4780   -0.4210   23.9040 C.3   163  GLN163      0.0905
    121  CD        10.1090    0.1650   24.2130 C.2   163  GLN163      0.2608
    122  OE1        9.1760    0.1840   23.3700 O.2   163  GLN163     -0.2717
    123  NE2        9.9760    0.6550   25.4150 N.am  163  GLN163     -0.0878
@<TRIPOS>BOND
     1    55    54    1
     2    55    49    1
     3    54    53    1
     4    49    50    1
     5    53    50    1
     6    50    51    1
     7    33    32    2
     8    45    44    2
     9    51    52    2
    10    34    31    1
    11    34    35    1
    12    31    32    1
    13    31    30    1
    14    44    43    1
    15    32    36   am
    16    81    82    1
    17    81    80    1
    18    39    38    2
    19    24    23    2
    20    38    37    1
    21    38    42   am
    22    80    79    1
    23    36    37    1
    24    30    23   am
    25    37    40    1
    26    43    42    1
    27    43    46    1
    28    23    22    1
    29    79    78    1
    30    47    46    1
    31    46    48    1
    32    40    41    1
    33    25    22    1
    34    25    26    1
    35    22    21    1
    36    78    75    1
    37   113   111    1
    38    28    27    1
    39    28    29    1
    40    27    26    1
    41    20    19    2
    42   110   109    2
    43    75    76    1
    44    75    74    1
    45   118   117    2
    46    77    76    2
    47    21    19   am
    48   117   116    1
    49    70    69    2
    50    19    18    1
    51   109   108    1
    52   111   108    1
    53   111   112    1
    54    74    69   am
    55    69    68    1
    56   114   112    1
    57    71    72    1
    58    71    68    1
    59   108   107    1
    60    72    73    1
    61    18    17    1
    62   116   115    1
    63   116   119    1
    64    68    67    1
    65   119   120    1
    66     6     5    1
    67    17    13   am
    68   107   103   am
    69     5     2    1
    70     7     8    1
    71     7     3   am
    72     2     1    1
    73     2     3    1
    74   122   121    2
    75    73    67    1
    76   104   103    2
    77   103   102    1
    78     8     9    1
    79   120   121    1
    80    16    15    1
    81   106   105    1
    82     3     4    2
    83    13    14    2
    84    13    12    1
    85   121   123   am
    86    11     9   am
    87    11    12    1
    88     9    10    2
    89   105   102    1
    90    12    15    1
    91   102   101    1
    92    59    58    2
    93   101    92   am
    94    65    64    1
    95    58    57    1
    96    93    92    2
    97    92    91    1
    98    60    61    1
    99    60    57    1
   100   100    98    1
   101    62    61    1
   102    62    63    1
   103    64    63    2
   104    64    66    1
   105    94    91    1
   106    94    95    1
   107    57    56    1
   108    91    90    1
   109    97    98    2
   110    97    96    1
   111    98    99    1
   112    95    96    1
   113    84    83    1
   114    84    85    1
   115    84    87    1
   116    83    89    1
   117    86    85    2
   118    87    88    1
   119    89    88    1
