@<TRIPOS>MOLECULE
tmp/4bzqB00.pdb
 169 163 0 0 0
SMALL
GASTEIGER

@<TRIPOS>ATOM
      1  N         52.9980    9.1530  -11.5990 N.3    13  SER13      -0.1217
      2  CA        52.2850   10.3590  -12.0180 C.3    13  SER13       0.1889
      3  C         53.2380   11.1990  -12.8630 C.2    13  SER13       0.2288
      4  O         54.4300   11.3290  -12.5400 O.2    13  SER13      -0.2866
      5  CB        51.8340   11.1320  -10.8110 C.3    13  SER13       0.2089
      6  OG        51.0630   12.2750  -11.1590 O.3    13  SER13      -0.2183
      7  N         51.2900    8.5310  -19.1810 N.3    17  LYS17      -0.1245
      8  CA        50.2420    7.5230  -19.3850 C.3    17  LYS17       0.1561
      9  C         49.0980    8.1200  -20.1700 C.2    17  LYS17       0.2260
     10  O         48.7010    7.5820  -21.2140 O.2    17  LYS17      -0.2867
     11  CB        49.6920    6.9690  -18.0510 C.3    17  LYS17       0.0271
     12  CG        50.7680    6.2910  -17.2070 C.3    17  LYS17       0.0035
     13  CD        50.2340    5.7410  -15.9000 C.3    17  LYS17       0.0206
     14  CE        49.6130    6.7930  -15.0080 C.3    17  LYS17       0.1093
     15  NZ        50.6600    7.6920  -14.4650 N.3    17  LYS17      -0.1314
     16  N         41.5160    6.8350  -15.0550 N.3    40  GLY40      -0.1210
     17  CA        41.3770    6.7130  -13.6070 C.3    40  GLY40       0.1956
     18  C         40.9060    7.9920  -12.9740 C.2    40  GLY40       0.2611
     19  O         39.9400    8.0160  -12.2250 O.2    40  GLY40      -0.2717
     20  N         41.5970    9.0760  -13.3330 N.am   41  ASP41      -0.1973
     21  CA        41.2980   10.4000  -12.7950 C.3    41  ASP41       0.1709
     22  C         39.8950   10.9170  -13.1030 C.2    41  ASP41       0.2293
     23  O         39.2510   11.4540  -12.2380 O.2    41  ASP41      -0.2864
     24  CB        42.3770   11.4070  -13.2280 C.3    41  ASP41       0.1436
     25  CG        42.6400   12.4530  -12.1820 C.2    41  ASP41       0.3671
     26  OD1       42.1700   12.3480  -11.0230 O.co2  41  ASP41      -0.2456
     27  OD2       43.3820   13.3640  -12.5270 O.co2  41  ASP41      -0.2456
     28  N         37.3050    8.9150  -11.2830 N.3    44  ARG44      -0.1245
     29  CA        37.3280    9.3060   -9.8760 C.3    44  ARG44       0.1563
     30  C         36.3210   10.4170   -9.6150 C.2    44  ARG44       0.2260
     31  O         35.8780   10.5670   -8.5070 O.2    44  ARG44      -0.2867
     32  CB        38.7370    9.6380   -9.3670 C.3    44  ARG44       0.0307
     33  CG        39.5610    8.3880   -9.0900 C.3    44  ARG44       0.0489
     34  CD        40.9590    8.7480   -8.6060 C.3    44  ARG44       0.2205
     35  NE        41.7190    7.5940   -8.1040 N.pl3  44  ARG44      -0.0865
     36  CZ        41.6210    7.0960   -6.8650 C.cat  44  ARG44       0.5346
     37  NH1       40.7980    7.6560   -5.9710 N.pl3  44  ARG44       0.1354
     38  NH2       42.3430    6.0170   -6.5160 N.pl3  44  ARG44       0.1354
     39  N         42.9920    7.5130   -1.7560 N.3    53  PHE53      -0.1241
     40  CA        44.2920    6.9630   -2.1630 C.3    53  PHE53       0.1605
     41  C         44.9870    5.9970   -1.2060 C.2    53  PHE53       0.2264
     42  O         46.1210    5.6050   -1.4620 O.2    53  PHE53      -0.2867
     43  CB        45.2230    8.0780   -2.6350 C.3    53  PHE53       0.0534
     44  CG        44.6880    8.7770   -3.8550 C.ar   53  PHE53      -0.0203
     45  CD1       44.9760    8.2930   -5.1400 C.ar   53  PHE53      -0.0042
     46  CD2       43.8070    9.8690   -3.7140 C.ar   53  PHE53      -0.0042
     47  CE1       44.4470    8.9300   -6.2680 C.ar   53  PHE53      -0.0003
     48  CE2       43.2720   10.5040   -4.8320 C.ar   53  PHE53      -0.0003
     49  CZ        43.5980   10.0410   -6.1070 C.ar   53  PHE53      -0.0000
     50  N         42.5690    2.6160   -3.7780 N.3    58  ARG58      -0.1245
     51  CA        43.1710    2.5600   -5.0690 C.3    58  ARG58       0.1563
     52  C         42.8540    1.2250   -5.6160 C.2    58  ARG58       0.2260
     53  O         42.5080    1.1390   -6.7800 O.2    58  ARG58      -0.2867
     54  CB        44.7130    2.6790   -5.0110 C.3    58  ARG58       0.0307
     55  CG        45.1950    4.0690   -4.6550 C.3    58  ARG58       0.0489
     56  CD        46.7180    4.0010   -4.5570 C.3    58  ARG58       0.2205
     57  NE        47.3730    5.1540   -3.9580 N.pl3  58  ARG58      -0.0865
     58  CZ        48.1420    6.0340   -4.5840 C.cat  58  ARG58       0.5346
     59  NH1       48.3340    6.0150   -5.8900 N.pl3  58  ARG58       0.1354
     60  NH2       48.6950    6.9790   -3.8500 N.pl3  58  ARG58       0.1354
     61  N         39.1430    1.4090   -6.7260 N.3    61  ASN61      -0.1225
     62  CA        39.1330    2.2300   -7.9110 C.3    61  ASN61       0.1785
     63  C         39.5600    1.4220   -9.1360 C.2    61  ASN61       0.2597
     64  O         38.8380    1.3330  -10.1250 O.2    61  ASN61      -0.2718
     65  CB        40.1020    3.3720   -7.7130 C.3    61  ASN61       0.1169
     66  CG        40.2230    4.2600   -8.9220 C.2    61  ASN61       0.2627
     67  OD1       39.2870    4.9600   -9.2750 O.2    61  ASN61      -0.2716
     68  ND2       41.4530    4.3180   -9.5200 N.am   61  ASN61      -0.0877
     69  N         40.7190    0.7990   -9.0240 N.am   62  LEU62      -0.1980
     70  CA        41.2810    0.0340  -10.0770 C.3    62  LEU62       0.1596
     71  C         40.4640   -1.2210  -10.3270 C.2    62  LEU62       0.2287
     72  O         40.3790   -1.6650  -11.4800 O.2    62  LEU62      -0.2864
     73  CB        42.7720   -0.3190   -9.7700 C.3    62  LEU62       0.0297
     74  CG        43.6880    0.9310   -9.6610 C.3    62  LEU62       0.0022
     75  CD1       45.0560    0.5700   -9.0700 C.3    62  LEU62       0.0001
     76  CD2       43.7970    1.6940  -10.9750 C.3    62  LEU62       0.0001
     77  N         44.8680    4.5770  -18.5920 N.3    82  PRO82      -0.2102
     78  CA        46.0350    5.1290  -17.9090 C.3    82  PRO82       0.1504
     79  C         45.6700    5.3070  -16.4680 C.2    82  PRO82       0.2576
     80  O         44.7340    6.0690  -16.1650 O.2    82  PRO82      -0.2718
     81  CB        46.2160    6.5070  -18.5440 C.3    82  PRO82       0.0282
     82  CG        44.8350    6.9090  -18.8960 C.3    82  PRO82       0.0208
     83  CD        44.0940    5.6300  -19.2560 C.3    82  PRO82       0.0893
     84  N         46.3670    4.6060  -15.6020 N.am   83  ALA83      -0.1966
     85  CA        46.1630    4.7460  -14.1810 C.3    83  ALA83       0.1728
     86  C         47.4360    4.3090  -13.5410 C.2    83  ALA83       0.2616
     87  O         48.0820    3.3860  -14.0050 O.2    83  ALA83      -0.2715
     88  CB        44.9990    3.8920  -13.7250 C.3    83  ALA83       0.0334
     89  N         47.8480    4.9850  -12.4900 N.am   84  ILE84      -0.1963
     90  CA        49.1380    4.6950  -11.8830 C.3    84  ILE84       0.1727
     91  C         49.3330    3.2200  -11.6020 C.2    84  ILE84       0.2617
     92  O         50.3890    2.6530  -11.9070 O.2    84  ILE84      -0.2715
     93  CB        49.3230    5.4600  -10.5750 C.3    84  ILE84       0.0290
     94  CG1       49.4360    6.9500  -10.9520 C.3    84  ILE84       0.0022
     95  CG2       50.5760    4.9400   -9.8510 C.3    84  ILE84       0.0023
     96  CD1       49.5740    7.8850   -9.7980 C.3    84  ILE84       0.0001
     97  N         48.3290    2.6200  -10.9630 N.am   85  SER85      -0.1936
     98  CA        48.3890    1.2080  -10.6310 C.3    85  SER85       0.2040
     99  C         49.7130    0.8750   -9.9100 C.2    85  SER85       0.2485
    100  O         50.4920    0.0650  -10.3840 O.2    85  SER85      -0.2729
    101  CB        48.2780    0.3970  -11.9250 C.3    85  SER85       0.2129
    102  OG        47.1050    0.6540  -12.6030 O.3    85  SER85      -0.2179
    103  N         49.9560    1.4840   -8.7410 N.am   86  PRO86      -0.2726
    104  CA        51.2890    1.4500   -8.1540 C.3    86  PRO86       0.1402
    105  C         51.7820    0.0730   -7.6670 C.2    86  PRO86       0.2269
    106  O         52.9970   -0.1490   -7.6190 O.2    86  PRO86      -0.2865
    107  CB        51.1900    2.4590   -7.0150 C.3    86  PRO86       0.0296
    108  CG        49.7740    2.4140   -6.6150 C.3    86  PRO86       0.0237
    109  CD        49.0190    2.2550   -7.9140 C.3    86  PRO86       0.0939
    110  N         50.8800   18.9990  -12.9030 N.3   123  LYS123     -0.1245
    111  CA        49.7590   19.4690  -12.0750 C.3   123  LYS123      0.1561
    112  C         50.2210   20.0150  -10.7360 C.2   123  LYS123      0.2260
    113  O         49.4110   20.2090   -9.8080 O.2   123  LYS123     -0.2867
    114  CB        48.7770   18.3430  -11.8050 C.3   123  LYS123      0.0271
    115  CG        48.0860   17.7880  -13.0470 C.3   123  LYS123      0.0035
    116  CD        47.3250   16.4910  -12.7250 C.3   123  LYS123      0.0206
    117  CE        48.1840   15.2520  -12.9720 C.3   123  LYS123      0.1093
    118  NZ        47.3480   14.0280  -13.0450 N.3   123  LYS123     -0.1314
    119  N         51.7890   18.4130   -8.4370 N.3   125  LEU125     -0.1245
    120  CA        51.5390   17.4930   -7.3240 C.3   125  LEU125      0.1561
    121  C         52.8030   17.0550   -6.6040 C.2   125  LEU125      0.2260
    122  O         52.7770   16.8390   -5.3920 O.2   125  LEU125     -0.2867
    123  CB        50.7660   16.2680   -7.7830 C.3   125  LEU125      0.0270
    124  CG        49.3050   16.4850   -8.2210 C.3   125  LEU125      0.0019
    125  CD1       48.7430   15.2020   -8.8180 C.3   125  LEU125      0.0001
    126  CD2       48.4030   16.9340   -7.0840 C.3   125  LEU125      0.0001
    127  N         50.4390   17.1710    0.4380 N.3   134  ILE134     -0.1231
    128  CA        49.7610   15.9140    0.1090 C.3   134  ILE134      0.1692
    129  C         50.6020   14.8440    0.7400 C.2   134  ILE134      0.2593
    130  O         51.8170   14.9630    0.7640 O.2   134  ILE134     -0.2718
    131  CB        49.7320   15.6550   -1.4130 C.3   134  ILE134      0.0266
    132  CG1       48.9460   16.7500   -2.1070 C.3   134  ILE134      0.0019
    133  CG2       49.0990   14.3010   -1.7450 C.3   134  ILE134      0.0020
    134  CD1       49.1250   16.7610   -3.6160 C.3   134  ILE134      0.0001
    135  N         49.9780   13.7820    1.2180 N.am  135  THR135     -0.1939
    136  CA        50.7180   12.6410    1.7580 C.3   135  THR135      0.2028
    137  C         50.3360   11.3540    1.0470 C.2   135  THR135      0.2642
    138  O         49.3280   11.2850    0.3440 O.2   135  THR135     -0.2714
    139  CB        50.4650   12.4530    3.2570 C.3   135  THR135      0.1808
    140  OG1       49.0770   12.1870    3.4670 O.3   135  THR135     -0.2208
    141  CG2       50.8620   13.7080    4.0200 C.3   135  THR135      0.0379
    142  N         51.1790   10.3420    1.2370 N.am  136  HIS136     -0.1959
    143  CA        51.0280    9.0560    0.5720 C.3   136  HIS136      0.1787
    144  C         51.0240    9.2290   -0.9470 C.2   136  HIS136      0.2620
    145  O         50.2890    8.5780   -1.6550 O.2   136  HIS136     -0.2715
    146  CB        49.7910    8.2930    1.1050 C.3   136  HIS136      0.0785
    147  CG        49.9380    7.9090    2.5410 C.ar  136  HIS136      0.0821
    148  ND1       49.3050    8.5890    3.5600 N.ar  136  HIS136     -0.2267
    149  CD2       50.7310    6.9910    3.1410 C.ar  136  HIS136      0.1154
    150  CE1       49.6610    8.0700    4.7230 C.ar  136  HIS136      0.1986
    151  NE2       50.5390    7.1130    4.4970 N.ar  136  HIS136     -0.2212
    152  N         51.8870   10.1090   -1.4430 N.am  137  PHE137     -0.1960
    153  CA        51.9540   10.3330   -2.8860 C.3   137  PHE137      0.1771
    154  C         52.9630    9.3930   -3.5020 C.2   137  PHE137      0.2620
    155  O         54.1420    9.3780   -3.1210 O.2   137  PHE137     -0.2715
    156  CB        52.2920   11.7750   -3.2290 C.3   137  PHE137      0.0574
    157  CG        52.0310   12.1140   -4.6760 C.ar  137  PHE137     -0.0200
    158  CD1       50.7410   12.3850   -5.1130 C.ar  137  PHE137     -0.0042
    159  CD2       53.0700   12.1200   -5.5850 C.ar  137  PHE137     -0.0042
    160  CE1       50.5010   12.6930   -6.4400 C.ar  137  PHE137     -0.0003
    161  CE2       52.8380   12.4130   -6.9070 C.ar  137  PHE137     -0.0003
    162  CZ        51.5530   12.6950   -7.3420 C.ar  137  PHE137     -0.0000
    163  N         52.4720    8.6490   -4.4870 N.am  138  THR138     -0.1951
    164  CA        53.2330    7.6740   -5.2130 C.3   138  THR138      0.1897
    165  C         54.5980    8.1990   -5.6610 C.2   138  THR138      0.2313
    166  O         54.7210    9.2660   -6.2550 O.2   138  THR138     -0.2863
    167  CB        52.4540    7.1850   -6.4670 C.3   138  THR138      0.1794
    168  OG1       51.1870    6.6490   -6.0470 O.3   138  THR138     -0.2208
    169  CG2       53.2500    6.1050   -7.1860 C.3   138  THR138      0.0378
@<TRIPOS>BOND
     1    10     9    2
     2     9     8    1
     3     8     7    1
     4     8    11    1
     5    83    82    1
     6    83    77    1
     7    82    81    1
     8    77    78    1
     9    81    78    1
    10    11    12    1
    11    78    79    1
    12    12    13    1
    13    79    80    2
    14    79    84   am
    15    13    14    1
    16    84    85    1
    17    16    17    1
    18    14    15    1
    19    85    88    1
    20    85    86    1
    21    87    86    2
    22    17    18    1
    23    86    89   am
    24    20    18   am
    25    20    21    1
    26    24    21    1
    27    24    25    1
    28    22    21    1
    29    22    23    2
    30   115   116    1
    31   115   114    1
    32   118   117    1
    33    18    19    2
    34   117   116    1
    35   110   111    1
    36     3     4    2
    37     3     2    1
    38   102   101    1
    39    27    25   ar
    40    89    90    1
    41    25    26   ar
    42   111   114    1
    43   111   112    1
    44     2     1    1
    45     2     5    1
    46   101    98    1
    47    92    91    2
    48    90    91    1
    49    90    93    1
    50    91    97   am
    51    72    71    2
    52    28    29    1
    53     6     5    1
    54    76    74    1
    55    97    98    1
    56    94    93    1
    57    94    96    1
    58   112   113    2
    59    98    99    1
    60    93    95    1
    61   100    99    2
    62    71    70    1
    63    64    63    2
    64    70    73    1
    65    70    69    1
    66    99   103   am
    67    29    30    1
    68    29    32    1
    69    73    74    1
    70    74    75    1
    71    30    31    2
    72    68    66   am
    73    32    33    1
    74    67    66    2
    75    63    69   am
    76    63    62    1
    77    33    34    1
    78    66    65    1
    79   125   124    1
    80   103   104    1
    81   103   109    1
    82    34    35    1
    83   119   120    1
    84   124   123    1
    85   124   126    1
    86   104   105    1
    87   104   107    1
    88    35    36    2
    89   109   108    1
    90    62    65    1
    91    62    61    1
    92   123   120    1
    93   105   106    2
    94   162   161   ar
    95   162   160   ar
    96   120   121    1
    97   169   167    1
    98   107   108    1
    99   161   159   ar
   100    36    38    1
   101    36    37    1
   102    53    52    2
   103   121   122    2
   104   167   168    1
   105   167   164    1
   106   160   158   ar
   107    47    49   ar
   108    47    45   ar
   109   166   165    2
   110    49    48   ar
   111    59    58    1
   112   165   164    1
   113    52    51    1
   114   159   157   ar
   115   164   163    1
   116    45    44   ar
   117   158   157   ar
   118    51    54    1
   119    51    50    1
   120    54    55    1
   121    48    46   ar
   122   157   156    1
   123    55    56    1
   124    58    57    2
   125    58    60    1
   126    56    57    1
   127   163   154   am
   128    44    46   ar
   129    44    43    1
   130   134   132    1
   131   154   155    2
   132   154   153    1
   133   156   153    1
   134   153   152    1
   135    43    40    1
   136    40    39    1
   137    40    41    1
   138   132   131    1
   139   133   131    1
   140   145   144    2
   141    42    41    2
   142   152   144   am
   143   131   128    1
   144   144   143    1
   145   128   127    1
   146   128   129    1
   147   138   137    2
   148   143   146    1
   149   143   142    1
   150   129   130    2
   151   129   135   am
   152   137   142   am
   153   137   136    1
   154   146   147    1
   155   135   136    1
   156   136   139    1
   157   147   149   ar
   158   147   148   ar
   159   149   151   ar
   160   139   140    1
   161   139   141    1
   162   148   150   ar
   163   151   150   ar
