@<TRIPOS>MOLECULE
tmp/4bzsA06.pdb
 254 250 0 0 0
SMALL
GASTEIGER

@<TRIPOS>ATOM
      1  N         34.7310    7.4440   21.4870 N.3    36  VAL36      -0.1245
      2  CA        34.3280    8.7480   20.9500 C.3    36  VAL36       0.1561
      3  C         35.1850    9.8690   21.5520 C.2    36  VAL36       0.2260
      4  O         35.5190   10.8330   20.8640 O.2    36  VAL36      -0.2867
      5  CB        32.8190    9.0240   21.1680 C.3    36  VAL36       0.0252
      6  CG1       32.4430   10.4200   20.6910 C.3    36  VAL36       0.0019
      7  CG2       31.9770    7.9940   20.4300 C.3    36  VAL36       0.0019
      8  N         38.5900    9.7880   19.7610 N.3    39  SER39      -0.1217
      9  CA        38.4100   10.3120   18.4050 C.3    39  SER39       0.1889
     10  C         38.3100   11.8330   18.4220 C.2    39  SER39       0.2288
     11  O         38.8790   12.5030   17.5580 O.2    39  SER39      -0.2866
     12  CB        37.1590    9.7180   17.7410 C.3    39  SER39       0.2089
     13  OG        37.3480    8.3520   17.4190 O.3    39  SER39      -0.2183
     14  N         40.7150   14.4600   16.4680 N.3    43  ASP43      -0.1239
     15  CA        40.1700   15.2750   15.3730 C.3    43  ASP43       0.1674
     16  C         40.1910   16.7810   15.6490 C.2    43  ASP43       0.2266
     17  O         40.1340   17.5810   14.7110 O.2    43  ASP43      -0.2867
     18  CB        38.7490   14.8190   15.0140 C.3    43  ASP43       0.1410
     19  CG        38.7020   13.3940   14.4690 C.2    43  ASP43       0.3668
     20  OD1       39.7650   12.8220   14.1350 O.co2  43  ASP43      -0.2456
     21  OD2       37.5870   12.8420   14.3720 O.co2  43  ASP43      -0.2456
     22  N         36.1090   19.2760    8.5840 N.3   331  HIS331     -0.1226
     23  CA        34.8110   18.8180    8.1120 C.3   331  HIS331      0.1752
     24  C         33.8370   18.7740    9.2870 C.2   331  HIS331      0.2596
     25  O         34.0840   18.0890   10.2830 O.2   331  HIS331     -0.2718
     26  CB        34.9010   17.4480    7.4470 C.3   331  HIS331      0.0759
     27  CG        33.6990   17.1110    6.6260 C.ar  331  HIS331      0.0818
     28  ND1       33.6330   17.3540    5.2720 N.ar  331  HIS331     -0.2268
     29  CD2       32.5020   16.5830    6.9720 C.ar  331  HIS331      0.1154
     30  CE1       32.4520   16.9740    4.8160 C.ar  331  HIS331      0.1986
     31  NE2       31.7460   16.5040    5.8290 N.ar  331  HIS331     -0.2212
     32  N         32.7470   19.5280    9.1640 N.am  332  ALA332     -0.1966
     33  CA        31.7520   19.6580   10.2280 C.3   332  ALA332      0.1728
     34  C         31.2220   18.2960   10.6580 C.2   332  ALA332      0.2617
     35  O         31.0870   17.3960    9.8390 O.2   332  ALA332     -0.2715
     36  CB        30.6030   20.5470    9.7730 C.3   332  ALA332      0.0334
     37  N         30.9360   18.1480   11.9460 N.am  333  SER333     -0.1936
     38  CA        30.4500   16.8800   12.4780 C.3   333  SER333      0.2055
     39  C         29.7180   17.0700   13.8000 C.2   333  SER333      0.2643
     40  O         29.9040   18.0730   14.4860 O.2   333  SER333     -0.2714
     41  CB        31.6040   15.8880   12.6450 C.3   333  SER333      0.2130
     42  OG        32.6370   16.4250   13.4540 O.3   333  SER333     -0.2179
     43  N         28.8810   16.0940   14.1370 N.am  334  ALA334     -0.1963
     44  CA        28.0460   16.1460   15.3310 C.3   334  ALA334      0.1728
     45  C         28.3120   14.8990   16.1560 C.2   334  ALA334      0.2616
     46  O         28.3160   13.7910   15.6250 O.2   334  ALA334     -0.2715
     47  CB        26.5780   16.2260   14.9410 C.3   334  ALA334      0.0334
     48  N         28.5190   15.0890   17.4550 N.am  335  TRP335     -0.1960
     49  CA        29.1180   14.0610   18.2970 C.3   335  TRP335      0.1771
     50  C         28.2240   13.6400   19.4580 C.2   335  TRP335      0.2619
     51  O         27.7270   14.4840   20.2070 O.2   335  TRP335     -0.2715
     52  CB        30.4470   14.5730   18.8390 C.3   335  TRP335      0.0590
     53  CG        31.4760   14.7940   17.7810 C.ar  335  TRP335      0.0006
     54  CD1       31.4400   15.7160   16.7750 C.ar  335  TRP335      0.0946
     55  CD2       32.7070   14.0830   17.6300 C.ar  335  TRP335      0.0152
     56  NE1       32.5720   15.6190   16.0030 N.ar  335  TRP335     -0.2442
     57  CE2       33.3690   14.6250   16.5090 C.ar  335  TRP335      0.0810
     58  CE3       33.3220   13.0460   18.3410 C.ar  335  TRP335      0.0012
     59  CZ2       34.6150   14.1620   16.0790 C.ar  335  TRP335      0.0191
     60  CZ3       34.5610   12.5830   17.9120 C.ar  335  TRP335      0.0001
     61  CH2       35.1930   13.1420   16.7900 C.ar  335  TRP335      0.0015
     62  N         28.0300   12.3290   19.5900 N.am  336  ASP336     -0.1971
     63  CA        27.3310   11.7360   20.7270 C.3   336  ASP336      0.1709
     64  C         28.3210   10.8420   21.4680 C.2   336  ASP336      0.2293
     65  O         28.8180    9.8620   20.9100 O.2   336  ASP336     -0.2864
     66  CB        26.1280   10.9120   20.2500 C.3   336  ASP336      0.1436
     67  CG        25.2760   10.3820   21.4040 C.2   336  ASP336      0.3671
     68  OD1       25.7810   10.2960   22.5460 O.co2 336  ASP336     -0.2456
     69  OD2       24.0950   10.0470   21.1670 O.co2 336  ASP336     -0.2456
     70  N         27.6490    9.0490   24.1160 N.3   338  TYR338     -0.1241
     71  CA        26.9320    7.9300   24.7380 C.3   338  TYR338      0.1605
     72  C         27.0140    7.9190   26.2720 C.2   338  TYR338      0.2264
     73  O         27.1380    6.8590   26.8880 O.2   338  TYR338     -0.2867
     74  CB        27.4170    6.5890   24.1660 C.3   338  TYR338      0.0534
     75  CG        27.0870    6.3870   22.7060 C.ar  338  TYR338     -0.0201
     76  CD1       25.8090    6.0030   22.3100 C.ar  338  TYR338     -0.0009
     77  CD2       28.0510    6.5700   21.7200 C.ar  338  TYR338     -0.0009
     78  CE1       25.4980    5.8140   20.9740 C.ar  338  TYR338      0.0417
     79  CE2       27.7500    6.3800   20.3820 C.ar  338  TYR338      0.0417
     80  CZ        26.4710    6.0040   20.0160 C.ar  338  TYR338      0.1957
     81  OH        26.1610    5.8130   18.6900 O.3   338  TYR338     -0.2866
     82  N         31.8140   19.9490   16.0550 N.3   346  LYS346     -0.1245
     83  CA        33.1300   20.3950   15.6350 C.3   346  LYS346      0.1561
     84  C         32.9630   20.9480   14.2250 C.2   346  LYS346      0.2260
     85  O         32.6860   20.1960   13.2920 O.2   346  LYS346     -0.2867
     86  CB        34.1040   19.2150   15.6390 C.3   346  LYS346      0.0271
     87  CG        35.4840   19.5140   15.0640 C.3   346  LYS346      0.0035
     88  CD        36.1070   18.2840   14.4160 C.3   346  LYS346      0.0206
     89  CE        35.4630   17.9690   13.0710 C.3   346  LYS346      0.1093
     90  NZ        35.6240   16.5410   12.6810 N.3   346  LYS346     -0.1314
     91  N         21.9360   21.9340    9.7770 N.3   361  HIS361     -0.1226
     92  CA        22.1210   20.5270    9.4660 C.3   361  HIS361      0.1752
     93  C         22.8460   19.7760   10.5880 C.2   361  HIS361      0.2595
     94  O         22.4270   18.6860   10.9740 O.2   361  HIS361     -0.2718
     95  CB        22.8700   20.3810    8.1470 C.3   361  HIS361      0.0759
     96  CG        23.3050   18.9840    7.8550 C.ar  361  HIS361      0.0818
     97  ND1       22.5030   18.0720    7.2070 N.ar  361  HIS361     -0.2268
     98  CD2       24.4660   18.3430    8.1240 C.ar  361  HIS361      0.1154
     99  CE1       23.1510   16.9270    7.0900 C.ar  361  HIS361      0.1986
    100  NE2       24.3430   17.0660    7.6410 N.ar  361  HIS361     -0.2212
    101  N         23.9190   20.3600   11.1140 N.am  362  GLU362     -0.1979
    102  CA        24.6590   19.7280   12.2050 C.3   362  GLU362      0.1602
    103  C         23.8230   19.7110   13.4870 C.2   362  GLU362      0.2287
    104  O         23.8470   18.7290   14.2240 O.2   362  GLU362     -0.2864
    105  CB        25.9980   20.4250   12.4690 C.3   362  GLU362      0.0415
    106  CG        26.9360   20.5380   11.2690 C.3   362  GLU362      0.1163
    107  CD        27.2700   19.2120   10.6090 C.2   362  GLU362      0.3649
    108  OE1       27.4160   18.1890   11.3180 O.co2 362  GLU362     -0.2457
    109  OE2       27.4090   19.2020    9.3690 O.co2 362  GLU362     -0.2457
    110  N         21.3930   16.7860   13.8680 N.3   365  HIS365     -0.1241
    111  CA        21.9760   15.5670   14.4310 C.3   365  HIS365      0.1621
    112  C         21.9100   15.6270   15.9440 C.2   365  HIS365      0.2264
    113  O         21.4370   14.6900   16.5870 O.2   365  HIS365     -0.2867
    114  CB        23.4420   15.3970   14.0260 C.3   365  HIS365      0.0745
    115  CG        23.6550   15.1660   12.5640 C.ar  365  HIS365      0.0817
    116  ND1       23.0260   14.1600   11.8630 N.ar  365  HIS365     -0.2268
    117  CD2       24.4560   15.7970   11.6750 C.ar  365  HIS365      0.1154
    118  CE1       23.4170   14.1910   10.6040 C.ar  365  HIS365      0.1986
    119  NE2       24.2880   15.1740   10.4650 N.ar  365  HIS365     -0.2212
    120  N         20.1310   13.2540   18.8930 N.3   369  TYR369     -0.1241
    121  CA        20.7910   12.6520   20.0610 C.3   369  TYR369      0.1605
    122  C         20.0170   12.9820   21.3280 C.2   369  TYR369      0.2264
    123  O         19.7330   12.1000   22.1370 O.2   369  TYR369     -0.2867
    124  CB        22.2340   13.1500   20.2530 C.3   369  TYR369      0.0534
    125  CG        23.1980   12.9450   19.1030 C.ar  369  TYR369     -0.0201
    126  CD1       23.0940   11.8540   18.2500 C.ar  369  TYR369     -0.0009
    127  CD2       24.2560   13.8290   18.9080 C.ar  369  TYR369     -0.0009
    128  CE1       23.9900   11.6680   17.2120 C.ar  369  TYR369      0.0417
    129  CE2       25.1640   13.6490   17.8790 C.ar  369  TYR369      0.0417
    130  CZ        25.0250   12.5700   17.0330 C.ar  369  TYR369      0.1957
    131  OH        25.9240   12.3990   16.0120 O.3   369  TYR369     -0.2866
    132  N         16.6120   10.9270   21.7540 N.3   372  TYR372     -0.1241
    133  CA        16.6430    9.4790   22.0250 C.3   372  TYR372      0.1605
    134  C         17.7030    9.0260   23.0340 C.2   372  TYR372      0.2264
    135  O         18.0150    7.8380   23.1130 O.2   372  TYR372     -0.2867
    136  CB        16.7340    8.6560   20.7230 C.3   372  TYR372      0.0534
    137  CG        17.9670    8.8390   19.8460 C.ar  372  TYR372     -0.0201
    138  CD1       19.2550    8.8940   20.3810 C.ar  372  TYR372     -0.0009
    139  CD2       17.8390    8.8950   18.4590 C.ar  372  TYR372     -0.0009
    140  CE1       20.3630    9.0400   19.5640 C.ar  372  TYR372      0.0417
    141  CE2       18.9460    9.0370   17.6380 C.ar  372  TYR372      0.0417
    142  CZ        20.2030    9.1100   18.1960 C.ar  372  TYR372      0.1957
    143  OH        21.3010    9.2470   17.3830 O.3   372  TYR372     -0.2866
    144  N         19.8580    4.0130   19.7270 N.3   380  ARG380     -0.1231
    145  CA        20.2600    5.4180   19.5830 C.3   380  ARG380      0.1694
    146  C         20.8370    5.6780   18.1910 C.2   380  ARG380      0.2592
    147  O         22.0010    6.0470   18.0380 O.2   380  ARG380     -0.2718
    148  CB        21.2620    5.8110   20.6710 C.3   380  ARG380      0.0321
    149  CG        20.6970    5.6970   22.0750 C.3   380  ARG380      0.0489
    150  CD        21.6730    6.2140   23.1160 C.3   380  ARG380      0.2205
    151  NE        21.3870    5.6600   24.4390 N.pl3 380  ARG380     -0.0865
    152  CZ        22.1290    5.8650   25.5230 C.cat 380  ARG380      0.5346
    153  NH1       23.2180    6.6250   25.4680 N.pl3 380  ARG380      0.1354
    154  NH2       21.7770    5.3050   26.6750 N.pl3 380  ARG380      0.1354
    155  N         19.9990    5.4570   17.1850 N.am  381  ARG381     -0.1966
    156  CA        20.3150    5.7240   15.7890 C.3   381  ARG381      0.1729
    157  C         19.0500    6.3180   15.1920 C.2   381  ARG381      0.2616
    158  O         18.0140    6.3660   15.8580 O.2   381  ARG381     -0.2715
    159  CB        20.6570    4.4260   15.0420 C.3   381  ARG381      0.0348
    160  CG        21.7160    3.5370   15.6870 C.3   381  ARG381      0.0492
    161  CD        23.1010    3.7270   15.0810 C.3   381  ARG381      0.2205
    162  NE        24.1390    3.0710   15.8810 N.pl3 381  ARG381     -0.0865
    163  CZ        25.4060    2.8950   15.5040 C.cat 381  ARG381      0.5346
    164  NH1       25.8340    3.3150   14.3150 N.pl3 381  ARG381      0.1354
    165  NH2       26.2540    2.2850   16.3240 N.pl3 381  ARG381      0.1354
    166  N         19.1230    6.7660   13.9440 N.am  382  GLY382     -0.1955
    167  CA        17.9330    7.2210   13.2340 C.3   382  GLY382      0.1869
    168  C         17.1250    6.0210   12.7780 C.2   382  GLY382      0.2309
    169  O         17.6120    4.8900   12.8240 O.2   382  GLY382     -0.2863
    170  N         19.8380    5.9320    8.4940 N.3   385  PRO385     -0.2116
    171  CA        20.7730    7.0640    8.4990 C.3   385  PRO385      0.1372
    172  C         20.2610    8.3030    7.7510 C.2   385  PRO385      0.2244
    173  O         20.5500    9.4270    8.1640 O.2   385  PRO385     -0.2868
    174  CB        22.0190    6.4830    7.8360 C.3   385  PRO385      0.0268
    175  CG        21.9790    5.0430    8.2180 C.3   385  PRO385      0.0207
    176  CD        20.5220    4.6660    8.1750 C.3   385  PRO385      0.0892
    177  N         18.5080   10.7730    9.9380 N.3   388  HIS388     -0.1226
    178  CA        19.4430   11.5540   10.7520 C.3   388  HIS388      0.1752
    179  C         19.9540   12.7670    9.9750 C.2   388  HIS388      0.2595
    180  O         20.0980   13.8520   10.5310 O.2   388  HIS388     -0.2718
    181  CB        20.6280   10.6770   11.2010 C.3   388  HIS388      0.0759
    182  CG        20.8960   10.7190   12.6750 C.ar  388  HIS388      0.0818
    183  ND1       21.1430   11.8900   13.3580 N.ar  388  HIS388     -0.2268
    184  CD2       20.9680    9.7280   13.5940 C.ar  388  HIS388      0.1154
    185  CE1       21.3520   11.6200   14.6330 C.ar  388  HIS388      0.1986
    186  NE2       21.2490   10.3150   14.8040 N.ar  388  HIS388     -0.2212
    187  N         20.2020   12.5680    8.6820 N.am  389  GLU389     -0.1979
    188  CA        20.7340   13.6100    7.8050 C.3   389  GLU389      0.1602
    189  C         19.6850   14.6250    7.3460 C.2   389  GLU389      0.2287
    190  O         20.0420   15.6700    6.8010 O.2   389  GLU389     -0.2864
    191  CB        21.3510   12.9760    6.5510 C.3   389  GLU389      0.0415
    192  CG        22.4250   11.9320    6.8040 C.3   389  GLU389      0.1163
    193  CD        23.6120   12.4820    7.5620 C.2   389  GLU389      0.3649
    194  OE1       23.9120   13.6800    7.4020 O.co2 389  GLU389     -0.2457
    195  OE2       24.2400   11.7190    8.3230 O.co2 389  GLU389     -0.2457
    196  N         36.0340   13.8070    1.3930 N.3   490  PHE490     -0.1227
    197  CA        36.1760   13.4420    2.8150 C.3   490  PHE490      0.1736
    198  C         35.7120   12.0330    3.1790 C.2   490  PHE490      0.2595
    199  O         36.4380   11.2750    3.8260 O.2   490  PHE490     -0.2718
    200  CB        35.4230   14.4560    3.6950 C.3   490  PHE490      0.0547
    201  CG        35.4600   14.1310    5.1680 C.ar  490  PHE490     -0.0202
    202  CD1       36.5870   14.4170    5.9290 C.ar  490  PHE490     -0.0042
    203  CD2       34.3730   13.5320    5.7930 C.ar  490  PHE490     -0.0042
    204  CE1       36.6280   14.1170    7.2830 C.ar  490  PHE490     -0.0003
    205  CE2       34.4070   13.2250    7.1440 C.ar  490  PHE490     -0.0003
    206  CZ        35.5370   13.5180    7.8930 C.ar  490  PHE490     -0.0000
    207  N         34.5060   11.6850    2.7460 N.am  491  HIS491     -0.1975
    208  CA        33.8320   10.4690    3.2060 C.3   491  HIS491      0.1656
    209  C         34.5050    9.1700    2.7790 C.2   491  HIS491      0.2291
    210  O         34.3520    8.1450    3.4480 O.2   491  HIS491     -0.2864
    211  CB        32.3760   10.4780    2.7360 C.3   491  HIS491      0.0771
    212  CG        31.5910   11.6280    3.2760 C.ar  491  HIS491      0.0820
    213  ND1       30.6760   11.4900    4.2960 N.ar  491  HIS491     -0.2267
    214  CD2       31.6110   12.9450    2.9620 C.ar  491  HIS491      0.1154
    215  CE1       30.1540   12.6700    4.5760 C.ar  491  HIS491      0.1986
    216  NE2       30.7020   13.5690    3.7790 N.ar  491  HIS491     -0.2212
    217  N         37.6010    8.6390    5.1110 N.3   494  ASN494     -0.1240
    218  CA        36.9900    8.5070    6.4420 C.3   494  ASN494      0.1653
    219  C         35.9470    7.3920    6.5490 C.2   494  ASN494      0.2266
    220  O         35.3110    7.2340    7.5910 O.2   494  ASN494     -0.2867
    221  CB        36.3830    9.8400    6.9050 C.3   494  ASN494      0.1155
    222  CG        37.3310   10.6340    7.7810 C.2   494  ASN494      0.2627
    223  OD1       37.0360   10.8990    8.9470 O.2   494  ASN494     -0.2716
    224  ND2       38.4830   11.0020    7.2310 N.am  494  ASN494     -0.0877
    225  N         32.8070    6.5770    5.6470 N.3   496  THR496     -0.1218
    226  CA        31.4390    6.7760    6.1190 C.3   496  THR496      0.1862
    227  C         30.4960    6.8380    4.9090 C.2   496  THR496      0.2287
    228  O         30.7930    7.5240    3.9350 O.2   496  THR496     -0.2866
    229  CB        31.3180    8.0180    7.0360 C.3   496  THR496      0.1770
    230  OG1       29.9360    8.3180    7.2710 O.3   496  THR496     -0.2211
    231  CG2       32.0170    9.2330    6.4370 C.3   496  THR496      0.0375
    232  N         22.9400    7.8250    2.3470 N.3   500  ARG500     -0.1231
    233  CA        22.1100    8.5720    3.2990 C.3   500  ARG500      0.1694
    234  C         21.7820   10.0050    2.8700 C.2   500  ARG500      0.2592
    235  O         20.7450   10.5430    3.2620 O.2   500  ARG500     -0.2718
    236  CB        22.7860    8.5990    4.6800 C.3   500  ARG500      0.0321
    237  CG        24.1760    9.2310    4.6870 C.3   500  ARG500      0.0489
    238  CD        24.8330    9.1650    6.0600 C.3   500  ARG500      0.2205
    239  NE        25.0350    7.7930    6.5150 N.pl3 500  ARG500     -0.0865
    240  CZ        25.7470    7.4440    7.5860 C.cat 500  ARG500      0.5346
    241  NH1       26.3540    8.3620    8.3340 N.pl3 500  ARG500      0.1354
    242  NH2       25.8580    6.1580    7.9080 N.pl3 500  ARG500      0.1354
    243  N         22.6620   10.6220    2.0830 N.am  501  TYR501     -0.1976
    244  CA        22.4560   11.9930    1.6160 C.3   501  TYR501      0.1639
    245  C         21.4680   12.0620    0.4570 C.2   501  TYR501      0.2290
    246  O         20.6960   13.0130    0.3590 O.2   501  TYR501     -0.2864
    247  CB        23.7900   12.6420    1.2330 C.3   501  TYR501      0.0560
    248  CG        24.7370   12.7630    2.4080 C.ar  501  TYR501     -0.0198
    249  CD1       24.4400   13.6030    3.4720 C.ar  501  TYR501     -0.0009
    250  CD2       25.9130   12.0230    2.4650 C.ar  501  TYR501     -0.0009
    251  CE1       25.2910   13.7120    4.5570 C.ar  501  TYR501      0.0417
    252  CE2       26.7730   12.1240    3.5460 C.ar  501  TYR501      0.0417
    253  CZ        26.4570   12.9740    4.5880 C.ar  501  TYR501      0.1957
    254  OH        27.2930   13.0820    5.6660 O.3   501  TYR501     -0.2866
@<TRIPOS>BOND
     1   246   245    2
     2   245   244    1
     3   247   244    1
     4   247   248    1
     5   196   197    1
     6   244   243    1
     7   243   234   am
     8   232   233    1
     9   248   250   ar
    10   248   249   ar
    11   250   252   ar
    12   211   208    1
    13   211   212    1
    14   207   198   am
    15   207   208    1
    16   209   208    1
    17   209   210    2
    18   197   198    1
    19   197   200    1
    20   234   235    2
    21   234   233    1
    22   214   212   ar
    23   214   216   ar
    24   198   199    2
    25   212   213   ar
    26   233   236    1
    27   249   251   ar
    28   252   253   ar
    29   200   201    1
    30   216   215   ar
    31   228   227    2
    32   213   215   ar
    33   251   253   ar
    34   253   254    1
    35   236   237    1
    36   237   238    1
    37    30    28   ar
    38    30    31   ar
    39   227   226    1
    40   217   218    1
    41   201   203   ar
    42   201   202   ar
    43    28    27   ar
    44   225   226    1
    45   203   205   ar
    46    31    29   ar
    47   202   204   ar
    48   238   239    1
    49   226   229    1
    50   231   229    1
    51   218   219    1
    52   218   221    1
    53   239   240    2
    54   219   220    2
    55   191   192    1
    56   191   188    1
    57    27    29   ar
    58    27    26    1
    59   190   189    2
    60   192   193    1
    61   221   222    1
    62   229   230    1
    63    99    97   ar
    64    99   100   ar
    65   205   206   ar
    66    97    96   ar
    67   224   222   am
    68   204   206   ar
    69   189   188    1
    70   194   193   ar
    71    26    23    1
    72   193   195   ar
    73   240   242    1
    74   240   241    1
    75   100    98   ar
    76   172   173    2
    77   172   171    1
    78   222   223    2
    79   188   187    1
    80   174   175    1
    81   174   171    1
    82    96    98   ar
    83    96    95    1
    84    23    22    1
    85    23    24    1
    86    95    92    1
    87   176   175    1
    88   176   170    1
    89   170   171    1
    90   187   179   am
    91    32    24   am
    92    32    33    1
    93    24    25    2
    94   109   107   ar
    95    92    91    1
    96    92    93    1
    97    36    33    1
    98    35    34    2
    99   177   178    1
   100   179   180    2
   101   179   178    1
   102    33    34    1
   103   119   118   ar
   104   119   117   ar
   105    93    94    2
   106    93   101   am
   107   118   116   ar
   108   107   106    1
   109   107   108   ar
   110    34    37   am
   111   178   181    1
   112   101   102    1
   113   181   182    1
   114   106   105    1
   115   117   115   ar
   116   116   115   ar
   117    37    38    1
   118   102   105    1
   119   102   103    1
   120    38    41    1
   121    38    39    1
   122   115   114    1
   123    41    42    1
   124   182   183   ar
   125   182   184   ar
   126    90    89    1
   127   168   169    2
   128   168   167    1
   129    89    88    1
   130   167   166    1
   131    85    84    2
   132   183   185   ar
   133   103   104    2
   134   184   186   ar
   135    39    43   am
   136    39    40    2
   137   110   111    1
   138   166   157   am
   139   114   111    1
   140    20    19   ar
   141    43    44    1
   142    84    83    1
   143   164   163    1
   144    21    19   ar
   145    88    87    1
   146   111   112    1
   147    19    18    1
   148   185   186   ar
   149    17    16    2
   150    47    44    1
   151    18    15    1
   152   159   160    1
   153   159   156    1
   154    87    86    1
   155   161   160    1
   156   161   162    1
   157   157   156    1
   158   157   158    2
   159    44    45    1
   160    15    16    1
   161    15    14    1
   162   163   162    2
   163   163   165    1
   164    46    45    2
   165    83    86    1
   166    83    82    1
   167   156   155    1
   168   112   113    2
   169    56    57   ar
   170    56    54   ar
   171   131   130    1
   172    59    57   ar
   173    59    61   ar
   174    45    48   am
   175    57    55   ar
   176    54    53   ar
   177    61    60   ar
   178   130   128   ar
   179   130   129   ar
   180   155   146   am
   181   128   126   ar
   182   143   142    1
   183    13    12    1
   184    48    49    1
   185    11    10    2
   186    55    53   ar
   187    55    58   ar
   188   141   142   ar
   189   141   139   ar
   190    12     9    1
   191    53    52    1
   192   129   127   ar
   193    60    58   ar
   194   147   146    2
   195   146   145    1
   196   142   140   ar
   197   126   125   ar
   198    49    52    1
   199    49    50    1
   200     9    10    1
   201     9     8    1
   202   139   137   ar
   203    81    80    1
   204   120   121    1
   205   127   125   ar
   206   125   124    1
   207    50    62   am
   208    50    51    2
   209   140   138   ar
   210   145   144    1
   211   145   148    1
   212    62    63    1
   213   137   138   ar
   214   137   136    1
   215    80    79   ar
   216    80    78   ar
   217   121   124    1
   218   121   122    1
   219    66    63    1
   220    66    67    1
   221    79    77   ar
   222     7     5    1
   223   148   149    1
   224     6     5    1
   225   136   133    1
   226    63    64    1
   227     4     3    2
   228    65    64    2
   229     2     5    1
   230     2     1    1
   231     2     3    1
   232    78    76   ar
   233    69    67   ar
   234   122   123    2
   235    67    68   ar
   236    77    75   ar
   237   132   133    1
   238   133   134    1
   239   149   150    1
   240    76    75   ar
   241    75    74    1
   242   134   135    2
   243   150   151    1
   244    70    71    1
   245    74    71    1
   246   151   152    2
   247    71    72    1
   248   153   152    1
   249   152   154    1
   250    72    73    2
