@<TRIPOS>MOLECULE
tmp/4bzsA07.pdb
 118 114 0 0 0
SMALL
GASTEIGER

@<TRIPOS>ATOM
      1  N         29.3540   19.4350   -5.8320 N.3   259  GLN259     -0.1245
      2  CA        28.2700   18.7060   -5.1720 C.3   259  GLN259      0.1566
      3  C         27.0340   19.5870   -4.9890 C.2   259  GLN259      0.2260
      4  O         25.9160   19.1100   -5.1180 O.2   259  GLN259     -0.2867
      5  CB        28.7390   18.0810   -3.8430 C.3   259  GLN259      0.0367
      6  CG        29.0110   19.0530   -2.7050 C.3   259  GLN259      0.0905
      7  CD        29.6230   18.3860   -1.4780 C.2   259  GLN259      0.2608
      8  OE1       30.0490   17.2290   -1.5160 O.2   259  GLN259     -0.2717
      9  NE2       29.6680   19.1220   -0.3780 N.am  259  GLN259     -0.0878
     10  N         36.1090   19.2760    8.5840 N.3   331  HIS331     -0.1241
     11  CA        34.8110   18.8180    8.1120 C.3   331  HIS331      0.1621
     12  C         33.8370   18.7740    9.2870 C.2   331  HIS331      0.2264
     13  O         34.0840   18.0890   10.2830 O.2   331  HIS331     -0.2867
     14  CB        34.9010   17.4480    7.4470 C.3   331  HIS331      0.0745
     15  CG        33.6990   17.1110    6.6260 C.ar  331  HIS331      0.0817
     16  ND1       33.6330   17.3540    5.2720 N.ar  331  HIS331     -0.2268
     17  CD2       32.5020   16.5830    6.9720 C.ar  331  HIS331      0.1154
     18  CE1       32.4520   16.9740    4.8160 C.ar  331  HIS331      0.1986
     19  NE2       31.7460   16.5040    5.8290 N.ar  331  HIS331     -0.2212
     20  N         24.3440   24.6880    6.9990 N.3   358  THR358     -0.1218
     21  CA        25.1930   23.6120    7.5270 C.3   358  THR358      0.1862
     22  C         25.0870   23.5450    9.0550 C.2   358  THR358      0.2287
     23  O         25.0060   22.4610    9.6250 O.2   358  THR358     -0.2866
     24  CB        26.6760   23.7830    7.1280 C.3   358  THR358      0.1770
     25  OG1       26.8140   23.6670    5.7090 O.3   358  THR358     -0.2211
     26  CG2       27.5520   22.7200    7.7900 C.3   358  THR358      0.0375
     27  N         21.9360   21.9340    9.7770 N.3   361  HIS361     -0.1226
     28  CA        22.1210   20.5270    9.4660 C.3   361  HIS361      0.1752
     29  C         22.8460   19.7760   10.5880 C.2   361  HIS361      0.2595
     30  O         22.4270   18.6860   10.9740 O.2   361  HIS361     -0.2718
     31  CB        22.8700   20.3810    8.1470 C.3   361  HIS361      0.0759
     32  CG        23.3050   18.9840    7.8550 C.ar  361  HIS361      0.0818
     33  ND1       22.5030   18.0720    7.2070 N.ar  361  HIS361     -0.2268
     34  CD2       24.4660   18.3430    8.1240 C.ar  361  HIS361      0.1154
     35  CE1       23.1510   16.9270    7.0900 C.ar  361  HIS361      0.1986
     36  NE2       24.3430   17.0660    7.6410 N.ar  361  HIS361     -0.2212
     37  N         23.9190   20.3600   11.1140 N.am  362  GLU362     -0.1979
     38  CA        24.6590   19.7280   12.2050 C.3   362  GLU362      0.1602
     39  C         23.8230   19.7110   13.4870 C.2   362  GLU362      0.2287
     40  O         23.8470   18.7290   14.2240 O.2   362  GLU362     -0.2864
     41  CB        25.9980   20.4250   12.4690 C.3   362  GLU362      0.0415
     42  CG        26.9360   20.5380   11.2690 C.3   362  GLU362      0.1163
     43  CD        27.2700   19.2120   10.6090 C.2   362  GLU362      0.3649
     44  OE1       27.4160   18.1890   11.3180 O.co2 362  GLU362     -0.2457
     45  OE2       27.4090   19.2020    9.3690 O.co2 362  GLU362     -0.2457
     46  N         18.0930   19.7290    7.7510 N.3   393  ASP393     -0.1239
     47  CA        17.7750   20.2460    6.4150 C.3   393  ASP393      0.1674
     48  C         16.3040   20.6660    6.2800 C.2   393  ASP393      0.2266
     49  O         15.9960   21.6210    5.5680 O.2   393  ASP393     -0.2867
     50  CB        18.1210   19.2160    5.3310 C.3   393  ASP393      0.1410
     51  CG        19.6240   19.1240    5.0460 C.2   393  ASP393      0.3668
     52  OD1       20.4470   19.5280    5.9020 O.co2 393  ASP393     -0.2456
     53  OD2       19.9810   18.6350    3.9460 O.co2 393  ASP393     -0.2456
     54  N         22.7930   18.5260   -6.2440 N.3   435  PHE435     -0.1241
     55  CA        23.4130   17.5020   -5.4060 C.3   435  PHE435      0.1605
     56  C         22.9800   16.0670   -5.7120 C.2   435  PHE435      0.2264
     57  O         23.7720   15.1340   -5.5510 O.2   435  PHE435     -0.2867
     58  CB        23.1320   17.8030   -3.9310 C.3   435  PHE435      0.0534
     59  CG        23.7160   16.7910   -2.9940 C.ar  435  PHE435     -0.0203
     60  CD1       25.0800   16.7880   -2.7250 C.ar  435  PHE435     -0.0042
     61  CD2       22.9140   15.8260   -2.4060 C.ar  435  PHE435     -0.0042
     62  CE1       25.6290   15.8470   -1.8720 C.ar  435  PHE435     -0.0003
     63  CE2       23.4560   14.8840   -1.5520 C.ar  435  PHE435     -0.0003
     64  CZ        24.8160   14.8940   -1.2820 C.ar  435  PHE435     -0.0000
     65  N         37.4950   13.2360   -1.6630 N.3   489  LYS489     -0.1245
     66  CA        36.2180   13.5470   -1.0230 C.3   489  LYS489      0.1561
     67  C         36.2430   12.9590    0.3850 C.2   489  LYS489      0.2260
     68  O         36.4400   11.7570    0.5420 O.2   489  LYS489     -0.2867
     69  CB        35.0590   12.9520   -1.8370 C.3   489  LYS489      0.0271
     70  CG        33.6690   13.1800   -1.2510 C.3   489  LYS489      0.0035
     71  CD        33.3240   14.6600   -1.1720 C.3   489  LYS489      0.0206
     72  CE        32.0820   14.9200   -0.3360 C.3   489  LYS489      0.1093
     73  NZ        32.0520   16.3110    0.1920 N.3   489  LYS489     -0.1314
     74  N         34.5060   11.6850    2.7460 N.3   491  HIS491     -0.1241
     75  CA        33.8320   10.4690    3.2060 C.3   491  HIS491      0.1621
     76  C         34.5050    9.1700    2.7790 C.2   491  HIS491      0.2264
     77  O         34.3520    8.1450    3.4480 O.2   491  HIS491     -0.2867
     78  CB        32.3760   10.4780    2.7360 C.3   491  HIS491      0.0745
     79  CG        31.5910   11.6280    3.2760 C.ar  491  HIS491      0.0817
     80  ND1       30.6760   11.4900    4.2960 N.ar  491  HIS491     -0.2268
     81  CD2       31.6110   12.9450    2.9620 C.ar  491  HIS491      0.1154
     82  CE1       30.1540   12.6700    4.5760 C.ar  491  HIS491      0.1986
     83  NE2       30.7020   13.5690    3.7790 N.ar  491  HIS491     -0.2212
     84  N         27.6340    7.3600    1.9820 N.3   498  TYR498     -0.1241
     85  CA        27.1380    8.5780    1.3560 C.3   498  TYR498      0.1605
     86  C         25.6830    8.5000    0.8510 C.2   498  TYR498      0.2264
     87  O         25.0740    9.5330    0.5740 O.2   498  TYR498     -0.2867
     88  CB        28.0630    8.9550    0.1980 C.3   498  TYR498      0.0534
     89  CG        28.1660   10.4400   -0.0180 C.ar  498  TYR498     -0.0201
     90  CD1       29.0140   11.2090    0.7680 C.ar  498  TYR498     -0.0009
     91  CD2       27.4130   11.0800   -1.0030 C.ar  498  TYR498     -0.0009
     92  CE1       29.1120   12.5720    0.5860 C.ar  498  TYR498      0.0417
     93  CE2       27.5060   12.4500   -1.1910 C.ar  498  TYR498      0.0417
     94  CZ        28.3590   13.1870   -0.3930 C.ar  498  TYR498      0.1957
     95  OH        28.4630   14.5410   -0.5630 O.3   498  TYR498     -0.2866
     96  N         22.6620   10.6220    2.0830 N.3   501  TYR501     -0.1241
     97  CA        22.4560   11.9930    1.6160 C.3   501  TYR501      0.1605
     98  C         21.4680   12.0620    0.4570 C.2   501  TYR501      0.2264
     99  O         20.6960   13.0130    0.3590 O.2   501  TYR501     -0.2867
    100  CB        23.7900   12.6420    1.2330 C.3   501  TYR501      0.0534
    101  CG        24.7370   12.7630    2.4080 C.ar  501  TYR501     -0.0201
    102  CD1       24.4400   13.6030    3.4720 C.ar  501  TYR501     -0.0009
    103  CD2       25.9130   12.0230    2.4650 C.ar  501  TYR501     -0.0009
    104  CE1       25.2910   13.7120    4.5570 C.ar  501  TYR501      0.0417
    105  CE2       26.7730   12.1240    3.5460 C.ar  501  TYR501      0.0417
    106  CZ        26.4570   12.9740    4.5880 C.ar  501  TYR501      0.1957
    107  OH        27.2930   13.0820    5.6660 O.3   501  TYR501     -0.2866
    108  N         17.8880   13.8990    0.9780 N.3   505  PHE505     -0.1241
    109  CA        17.4520   14.9920    0.1020 C.3   505  PHE505      0.1605
    110  C         16.0780   14.7380   -0.5150 C.2   505  PHE505      0.2264
    111  O         15.3620   15.6810   -0.8280 O.2   505  PHE505     -0.2867
    112  CB        18.4910   15.2720   -0.9940 C.3   505  PHE505      0.0534
    113  CG        19.5290   16.2860   -0.5970 C.ar  505  PHE505     -0.0203
    114  CD1       20.2410   16.1470    0.5870 C.ar  505  PHE505     -0.0042
    115  CD2       19.7970   17.3830   -1.4070 C.ar  505  PHE505     -0.0042
    116  CE1       21.1960   17.0780    0.9550 C.ar  505  PHE505     -0.0003
    117  CE2       20.7560   18.3160   -1.0440 C.ar  505  PHE505     -0.0003
    118  CZ        21.4560   18.1630    0.1380 C.ar  505  PHE505     -0.0000
@<TRIPOS>BOND
     1    54    55    1
     2     1     2    1
     3    56    57    2
     4    56    55    1
     5    55    58    1
     6     2     3    1
     7     2     5    1
     8     4     3    2
     9    58    59    1
    10     5     6    1
    11    59    60   ar
    12    59    61   ar
    13    60    62   ar
    14     6     7    1
    15    61    63   ar
    16    62    64   ar
    17    69    70    1
    18    69    66    1
    19    65    66    1
    20    63    64   ar
    21     8     7    2
    22     7     9   am
    23   115   117   ar
    24   115   113   ar
    25    70    71    1
    26    93    91   ar
    27    93    94   ar
    28    71    72    1
    29   117   118   ar
    30    66    67    1
    31    91    89   ar
    32   112   113    1
    33   112   109    1
    34   111   110    2
    35   113   114   ar
    36    95    94    1
    37   110   109    1
    38    94    92   ar
    39    72    73    1
    40    89    88    1
    41    89    90   ar
    42   109   108    1
    43   118   116   ar
    44    88    85    1
    45    99    98    2
    46    67    68    2
    47    98    97    1
    48    87    86    2
    49    92    90   ar
    50   114   116   ar
    51    86    85    1
    52   100    97    1
    53   100   101    1
    54    85    84    1
    55    97    96    1
    56   101   103   ar
    57   101   102   ar
    58   103   105   ar
    59    78    75    1
    60    78    79    1
    61    74    75    1
    62    76    75    1
    63    76    77    2
    64    81    79   ar
    65    81    83   ar
    66    79    80   ar
    67   102   104   ar
    68   105   106   ar
    69    83    82   ar
    70    53    51   ar
    71    80    82   ar
    72   104   106   ar
    73   106   107    1
    74    18    16   ar
    75    18    19   ar
    76    51    50    1
    77    51    52   ar
    78    16    15   ar
    79    50    47    1
    80    49    48    2
    81    25    24    1
    82    19    17   ar
    83    48    47    1
    84    47    46    1
    85    15    17   ar
    86    15    14    1
    87    20    21    1
    88    35    33   ar
    89    35    36   ar
    90    24    21    1
    91    24    26    1
    92    33    32   ar
    93    14    11    1
    94    21    22    1
    95    36    34   ar
    96    32    34   ar
    97    32    31    1
    98    11    10    1
    99    11    12    1
   100    31    28    1
   101    22    23    2
   102    12    13    2
   103    45    43   ar
   104    28    27    1
   105    28    29    1
   106    29    30    2
   107    29    37   am
   108    43    42    1
   109    43    44   ar
   110    37    38    1
   111    42    41    1
   112    38    41    1
   113    38    39    1
   114    39    40    2
