@<TRIPOS>MOLECULE
tmp/4bzxB01.pdb
 148 140 0 0 0
SMALL
GASTEIGER

@<TRIPOS>ATOM
      1  N         52.9410    9.0820  -11.4240 N.3    13  SER13      -0.1202
      2  CA        52.2560   10.2720  -11.8430 C.3    13  SER13       0.2020
      3  C         53.2040   11.1070  -12.7240 C.2    13  SER13       0.2619
      4  O         54.3840   11.2940  -12.3990 O.2    13  SER13      -0.2717
      5  CB        51.8040   11.0780  -10.6080 C.3    13  SER13       0.2103
      6  OG        51.1140   12.2450  -11.0570 O.3    13  SER13      -0.2182
      7  N         52.7120   11.6050  -13.8600 N.am   14  GLY14      -0.1942
      8  CA        53.5570   12.3950  -14.7440 C.3    14  GLY14       0.2014
      9  C         54.4020   11.6320  -15.7220 C.2    14  GLY14       0.2640
     10  O         55.1600   12.2530  -16.4490 O.2    14  GLY14      -0.2714
     11  N         54.2430   10.2810  -15.7630 N.am   15  SER15      -0.1935
     12  CA        55.0560    9.4040  -16.6370 C.3    15  SER15       0.2055
     13  C         54.5970    9.3980  -18.1120 C.2    15  SER15       0.2644
     14  O         55.3230    8.9580  -18.9770 O.2    15  SER15      -0.2714
     15  CB        55.1600    7.9740  -16.0690 C.3    15  SER15       0.2130
     16  OG        53.8980    7.3670  -15.9950 O.3    15  SER15      -0.2179
     17  N         53.3950    9.8830  -18.4050 N.am   16  GLY16      -0.1939
     18  CA        52.9070    9.9350  -19.7890 C.3    16  GLY16       0.2014
     19  C         51.8050    8.9920  -20.1530 C.2    16  GLY16       0.2639
     20  O         51.4290    8.9290  -21.3300 O.2    16  GLY16      -0.2714
     21  N         51.1860    8.3480  -19.1440 N.am   17  LYS17      -0.1963
     22  CA        50.1430    7.3500  -19.3690 C.3    17  LYS17       0.1728
     23  C         48.9780    7.9240  -20.1580 C.2    17  LYS17       0.2617
     24  O         48.6120    7.3930  -21.1940 O.2    17  LYS17      -0.2715
     25  CB        49.6110    6.7890  -18.0140 C.3    17  LYS17       0.0311
     26  CG        50.6810    6.0990  -17.1940 C.3    17  LYS17       0.0038
     27  CD        50.1730    5.5480  -15.8610 C.3    17  LYS17       0.0206
     28  CE        49.4720    6.5760  -14.9660 C.3    17  LYS17       0.1093
     29  NZ        50.4960    7.5640  -14.5030 N.3    17  LYS17      -0.1314
     30  N         48.4060    9.0350  -19.6710 N.am   18  SER18      -0.1936
     31  CA        47.2080    9.6290  -20.2630 C.3    18  SER18       0.2055
     32  C         47.5060   10.1750  -21.6630 C.2    18  SER18       0.2644
     33  O         46.7030   10.0650  -22.5610 O.2    18  SER18      -0.2714
     34  CB        46.6210   10.7490  -19.3640 C.3    18  SER18       0.2130
     35  OG        46.1280   10.1970  -18.1410 O.3    18  SER18      -0.2179
     36  N         48.6500   10.7900  -21.8040 N.am   19  SER19      -0.1935
     37  CA        49.0620   11.3820  -23.0870 C.3    19  SER19       0.2055
     38  C         49.1910   10.3290  -24.1760 C.2    19  SER19       0.2642
     39  O         48.6880   10.4890  -25.2880 O.2    19  SER19      -0.2714
     40  CB        50.3920   12.1080  -22.9460 C.3    19  SER19       0.2130
     41  OG        50.2370   13.1950  -22.0830 O.3    19  SER19      -0.2179
     42  N         49.8790    9.2440  -23.8350 N.am   20  VAL20      -0.1977
     43  CA        50.0290    8.1600  -24.7830 C.3    20  VAL20       0.1596
     44  C         48.7050    7.5280  -25.0530 C.2    20  VAL20       0.2287
     45  O         48.3800    7.2820  -26.2140 O.2    20  VAL20      -0.2864
     46  CB        51.0470    7.1050  -24.2750 C.3    20  VAL20       0.0276
     47  CG1       51.0860    5.9570  -25.2280 C.3    20  VAL20       0.0022
     48  CG2       52.3900    7.7630  -24.1470 C.3    20  VAL20       0.0022
     49  N         39.9960    6.6070  -17.9060 N.3    39  ASP39      -0.1239
     50  CA        41.1170    7.2260  -17.1990 C.3    39  ASP39       0.1674
     51  C         40.7660    7.2370  -15.7680 C.2    39  ASP39       0.2266
     52  O         39.6960    7.7200  -15.3370 O.2    39  ASP39      -0.2867
     53  CB        41.2580    8.6410  -17.8160 C.3    39  ASP39       0.1410
     54  CG        42.4290    9.4070  -17.2850 C.2    39  ASP39       0.3668
     55  OD1       42.3630    9.7610  -16.1180 O.co2  39  ASP39      -0.2456
     56  OD2       43.3650    9.7090  -18.0780 O.co2  39  ASP39      -0.2456
     57  N         41.8650    8.9630  -13.3320 N.3    41  ASP41      -0.1239
     58  CA        41.5040   10.2920  -12.8430 C.3    41  ASP41       0.1674
     59  C         40.0820   10.7130  -13.1510 C.2    41  ASP41       0.2266
     60  O         39.3800   11.3220  -12.3280 O.2    41  ASP41      -0.2867
     61  CB        42.5340   11.3410  -13.3750 C.3    41  ASP41       0.1410
     62  CG        42.4010   12.6820  -12.7000 C.2    41  ASP41       0.3668
     63  OD1       42.6370   12.7620  -11.4650 O.co2  41  ASP41      -0.2456
     64  OD2       42.0440   13.6530  -13.4050 O.co2  41  ASP41      -0.2456
     65  N         47.6800    4.7990  -12.3360 N.3    84  ILE84      -0.1245
     66  CA        49.0000    4.6400  -11.7490 C.3    84  ILE84       0.1561
     67  C         49.2650    3.1390  -11.4380 C.2    84  ILE84       0.2260
     68  O         50.3250    2.5550  -11.8340 O.2    84  ILE84      -0.2867
     69  CB        49.2110    5.4840  -10.5050 C.3    84  ILE84       0.0252
     70  CG1       49.3540    6.9320  -10.8760 C.3    84  ILE84       0.0019
     71  CG2       50.4740    4.9750   -9.7290 C.3    84  ILE84       0.0019
     72  CD1       49.3850    7.8380   -9.6640 C.3    84  ILE84       0.0001
     73  N         59.0130   17.4760  -14.7760 N.3   120  ARG120     -0.1245
     74  CA        57.8530   17.9430  -15.5300 C.3   120  ARG120      0.1563
     75  C         56.8880   18.5990  -14.5690 C.2   120  ARG120      0.2260
     76  O         56.5570   19.7830  -14.7320 O.2   120  ARG120     -0.2867
     77  CB        57.1470   16.7950  -16.2490 C.3   120  ARG120      0.0307
     78  CG        58.0340   15.9550  -17.1760 C.3   120  ARG120      0.0489
     79  CD        57.4170   14.6050  -17.5890 C.3   120  ARG120      0.2205
     80  NE        58.1150   13.9720  -18.7320 N.pl3 120  ARG120     -0.0865
     81  CZ        57.8980   12.7430  -19.2120 C.cat 120  ARG120      0.5346
     82  NH1       56.9900   11.9470  -18.6590 N.pl3 120  ARG120      0.1354
     83  NH2       58.5900   12.2900  -20.2590 N.pl3 120  ARG120      0.1354
     84  N         53.3350   18.3850  -14.0180 N.2   122  PRO122     -0.2571
     85  CA        52.2200   19.1430  -14.6000 C.3   122  PRO122      0.2026
     86  C         51.0440   19.6080  -13.7440 C.2   122  PRO122      0.2683
     87  O         50.4300   20.5880  -14.1120 O.2   122  PRO122     -0.2709
     88  CB        51.6880   18.2260  -15.7260 C.2   122  PRO122      0.0085
     89  CG        52.5340   17.0050  -15.7530 C.2   122  PRO122      0.0180
     90  CD        53.5040   17.0410  -14.6190 C.2   122  PRO122      0.0938
     91  N         50.7010   18.9530  -12.6350 N.am  123  LYS123     -0.1973
     92  CA        49.6040   19.3750  -11.7490 C.3   123  LYS123      0.1596
     93  C         50.0930   19.9240  -10.4020 C.2   123  LYS123      0.2287
     94  O         49.3140   20.2410   -9.5110 O.2   123  LYS123     -0.2864
     95  CB        48.6580   18.1900  -11.5060 C.3   123  LYS123      0.0298
     96  CG        48.1340   17.5560  -12.7850 C.3   123  LYS123      0.0038
     97  CD        47.3840   16.2500  -12.5530 C.3   123  LYS123      0.0206
     98  CE        47.7150   15.2740  -13.6780 C.3   123  LYS123      0.1093
     99  NZ        46.6740   14.2400  -13.9490 N.3   123  LYS123     -0.1314
    100  N         51.5880   18.3730   -8.0830 N.3   125  LEU125     -0.1245
    101  CA        51.4270   17.3880   -7.0050 C.3   125  LEU125      0.1561
    102  C         52.7450   16.9360   -6.3780 C.2   125  LEU125      0.2260
    103  O         52.7920   16.7430   -5.1750 O.2   125  LEU125     -0.2867
    104  CB        50.7270   16.1340   -7.5570 C.3   125  LEU125      0.0270
    105  CG        49.2860   16.4030   -7.9990 C.3   125  LEU125      0.0019
    106  CD1       48.6260   15.1540   -8.5260 C.3   125  LEU125      0.0001
    107  CD2       48.4980   16.9350   -6.8360 C.3   125  LEU125      0.0001
    108  N         61.3680    7.6760  -21.9270 N.3   156  PRO156     -0.2116
    109  CA        61.2500    8.9470  -22.5970 C.3   156  PRO156      0.1372
    110  C         62.3250    9.1250  -23.6420 C.2   156  PRO156      0.2244
    111  O         62.9420   10.1180  -23.6560 O.2   156  PRO156     -0.2868
    112  CB        61.3650    9.9790  -21.4600 C.3   156  PRO156      0.0268
    113  CG        61.9770    9.2480  -20.3190 C.3   156  PRO156      0.0207
    114  CD        61.7720    7.8000  -20.5260 C.3   156  PRO156      0.0892
    115  N         61.4710    8.8560  -26.9680 N.3   158  ARG158     -0.1231
    116  CA        60.8510    9.3800  -28.2040 C.3   158  ARG158      0.1694
    117  C         59.5600   10.1870  -27.9990 C.2   158  ARG158      0.2593
    118  O         59.2130   10.4640  -26.8860 O.2   158  ARG158     -0.2718
    119  CB        60.6770    8.2710  -29.2180 C.3   158  ARG158      0.0321
    120  CG        59.5780    7.3030  -28.7850 C.3   158  ARG158      0.0489
    121  CD        59.6400    6.0120  -29.5820 C.3   158  ARG158      0.2205
    122  NE        60.7090    5.1710  -29.0630 N.pl3 158  ARG158     -0.0865
    123  CZ        61.0170    3.9630  -29.5330 C.cat 158  ARG158      0.5346
    124  NH1       60.3160    3.4200  -30.5380 N.pl3 158  ARG158      0.1354
    125  NH2       62.0290    3.2910  -28.9710 N.pl3 158  ARG158      0.1354
    126  N         58.9630   10.7220  -29.0730 N.am  159  SER159     -0.1938
    127  CA        57.8200   11.6070  -28.8800 C.3   159  SER159      0.2055
    128  C         56.6680   10.7810  -28.3340 C.2   159  SER159      0.2642
    129  O         56.6850    9.5450  -28.4150 O.2   159  SER159     -0.2714
    130  CB        57.4440   12.3260  -30.1800 C.3   159  SER159      0.2130
    131  OG        56.9320   11.4060  -31.1250 O.3   159  SER159     -0.2179
    132  N         55.6850   11.4630  -27.7790 N.am  160  ILE160     -0.1977
    133  CA        54.4620   10.8220  -27.4140 C.3   160  ILE160      0.1596
    134  C         53.8980   10.1440  -28.6860 C.2   160  ILE160      0.2287
    135  O         53.3800    9.0420  -28.5960 O.2   160  ILE160     -0.2864
    136  CB        53.5180   11.8570  -26.8150 C.3   160  ILE160      0.0276
    137  CG1       54.1670   12.4250  -25.5680 C.3   160  ILE160      0.0022
    138  CG2       52.1690   11.2550  -26.5500 C.3   160  ILE160      0.0022
    139  CD1       53.2930   13.3710  -24.8180 C.3   160  ILE160      0.0001
    140  N         55.6950    6.8740  -29.1300 N.3   163  GLN163     -0.1245
    141  CA        55.2780    5.9440  -28.0830 C.3   163  GLN163      0.1566
    142  C         53.9090    5.3680  -28.3870 C.2   163  GLN163      0.2260
    143  O         53.6710    4.1540  -28.1770 O.2   163  GLN163     -0.2867
    144  CB        55.2660    6.6140  -26.7210 C.3   163  GLN163      0.0367
    145  CG        56.6680    6.9110  -26.2300 C.3   163  GLN163      0.0905
    146  CD        56.6720    7.6250  -24.9100 C.2   163  GLN163      0.2608
    147  OE1       55.7190    8.3190  -24.5770 O.2   163  GLN163     -0.2717
    148  NE2       57.7660    7.4900  -24.1640 N.am  163  GLN163     -0.0878
@<TRIPOS>BOND
     1   131   130    1
     2   124   123    1
     3   130   127    1
     4   121   122    1
     5   121   120    1
     6   123   122    2
     7   123   125    1
     8   119   120    1
     9   119   116    1
    10   140   141    1
    11   126   127    1
    12   126   117   am
    13   127   128    1
    14   134   135    2
    15   134   133    1
    16   129   128    2
    17   142   143    2
    18   142   141    1
    19   128   132   am
    20   116   117    1
    21   116   115    1
    22   141   144    1
    23   117   118    2
    24   132   133    1
    25   133   136    1
    26   136   138    1
    27   136   137    1
    28   144   145    1
    29   145   146    1
    30    45    44    2
    31   137   139    1
    32    39    38    2
    33    47    46    1
    34    44    43    1
    35   146   147    2
    36   146   148   am
    37    43    46    1
    38    43    42    1
    39    46    48    1
    40    38    42   am
    41    38    37    1
    42   111   110    2
    43   110   109    1
    44    37    40    1
    45    37    36    1
    46    40    41    1
    47   109   108    1
    48   109   112    1
    49    33    32    2
    50   108   114    1
    51    36    32   am
    52    32    31    1
    53   112   113    1
    54    20    19    2
    55    24    23    2
    56   114   113    1
    57    31    30    1
    58    31    34    1
    59    83    81    1
    60    23    30   am
    61    23    22    1
    62    19    18    1
    63    19    21   am
    64    18    17    1
    65    22    21    1
    66    22    25    1
    67    34    35    1
    68    81    80    2
    69    81    82    1
    70    14    13    2
    71    80    79    1
    72    17    13   am
    73    13    12    1
    74    56    54   ar
    75    25    26    1
    76    49    50    1
    77    53    54    1
    78    53    50    1
    79    79    78    1
    80    54    55   ar
    81    50    51    1
    82    26    27    1
    83    78    77    1
    84    12    15    1
    85    12    11    1
    86    10     9    2
    87    77    74    1
    88    15    16    1
    89    27    28    1
    90    51    52    2
    91    11     9   am
    92    89    88    2
    93    89    90    1
    94    88    85    1
    95     9     8    1
    96    74    73    1
    97    74    75    1
    98    28    29    1
    99     8     7    1
   100    76    75    2
   101    90    84    2
   102    85    84    1
   103    85    86    1
   104    87    86    2
   105    99    98    1
   106     7     3   am
   107    86    91   am
   108    98    97    1
   109    64    62   ar
   110    61    58    1
   111    61    62    1
   112    57    58    1
   113    59    58    1
   114    59    60    2
   115    96    97    1
   116    96    95    1
   117     3     4    2
   118     3     2    1
   119    62    63   ar
   120    91    92    1
   121    65    66    1
   122     2     1    1
   123     2     5    1
   124    68    67    2
   125    92    95    1
   126    92    93    1
   127    66    67    1
   128    66    69    1
   129     6     5    1
   130    70    69    1
   131    70    72    1
   132    69    71    1
   133    93    94    2
   134   106   105    1
   135   100   101    1
   136   105   104    1
   137   105   107    1
   138   104   101    1
   139   101   102    1
   140   102   103    2
