@<TRIPOS>MOLECULE
tmp/4c00A03.pdb
 113 109 0 0 0
SMALL
GASTEIGER

@<TRIPOS>ATOM
      1  N         23.1750   56.0960   21.7740 N.3   361  ARG361     -0.1245
      2  CA        22.8670   54.7580   21.2870 C.3   361  ARG361      0.1563
      3  C         22.3310   54.8300   19.8670 C.2   361  ARG361      0.2260
      4  O         21.5740   55.7390   19.5350 O.2   361  ARG361     -0.2867
      5  CB        21.8330   54.0850   22.1880 C.3   361  ARG361      0.0307
      6  CG        21.6980   52.5900   21.9520 C.3   361  ARG361      0.0489
      7  CD        20.2690   52.1800   21.6490 C.3   361  ARG361      0.2205
      8  NE        19.4530   52.0550   22.8560 N.pl3 361  ARG361     -0.0865
      9  CZ        18.1250   52.1500   22.8860 C.cat 361  ARG361      0.5346
     10  NH1       17.4380   52.3950   21.7770 N.pl3 361  ARG361      0.1354
     11  NH2       17.4810   52.0120   24.0360 N.pl3 361  ARG361      0.1354
     12  N         20.6860   52.1100   16.8720 N.3   363  ARG363     -0.1245
     13  CA        20.2460   50.7830   16.4590 C.3   363  ARG363      0.1563
     14  C         19.7390   50.8340   15.0250 C.2   363  ARG363      0.2260
     15  O         19.2300   51.8600   14.5750 O.2   363  ARG363     -0.2867
     16  CB        19.1450   50.2730   17.3880 C.3   363  ARG363      0.0307
     17  CG        19.4520   50.4550   18.8630 C.3   363  ARG363      0.0489
     18  CD        18.4080   49.7790   19.7320 C.3   363  ARG363      0.2205
     19  NE        17.0880   50.3830   19.5770 N.pl3 363  ARG363     -0.0865
     20  CZ        15.9960   49.9560   20.2020 C.cat 363  ARG363      0.5346
     21  NH1       16.0640   48.9180   21.0260 N.pl3 363  ARG363      0.1354
     22  NH2       14.8350   50.5640   20.0050 N.pl3 363  ARG363      0.1354
     23  N         18.3170   48.0140   11.6300 N.3   365  ARG365     -0.1245
     24  CA        18.1540   46.7630   10.8970 C.3   365  ARG365      0.1563
     25  C         17.4330   47.0250    9.5830 C.2   365  ARG365      0.2260
     26  O         16.3890   47.6780    9.5550 O.2   365  ARG365     -0.2867
     27  CB        17.4000   45.7200   11.7310 C.3   365  ARG365      0.0307
     28  CG        16.0280   46.1520   12.2240 C.3   365  ARG365      0.0489
     29  CD        15.6760   45.4330   13.5230 C.3   365  ARG365      0.2205
     30  NE        14.3180   45.7130   13.9870 N.pl3 365  ARG365     -0.0865
     31  CZ        13.8520   45.3710   15.1860 C.cat 365  ARG365      0.5346
     32  NH1       14.6330   44.7420   16.0540 N.pl3 365  ARG365      0.1354
     33  NH2       12.6030   45.6640   15.5240 N.pl3 365  ARG365      0.1354
     34  N         13.9900   50.0430   10.1020 N.3   372  TRP372     -0.1241
     35  CA        13.7190   50.2140   11.5190 C.3   372  TRP372      0.1605
     36  C         15.0180   50.6210   12.1920 C.2   372  TRP372      0.2264
     37  O         16.0860   50.1170   11.8450 O.2   372  TRP372     -0.2867
     38  CB        13.2060   48.8990   12.1050 C.3   372  TRP372      0.0550
     39  CG        12.9740   48.9080   13.5900 C.ar  372  TRP372      0.0003
     40  CD1       11.7770   49.0500   14.2290 C.ar  372  TRP372      0.0946
     41  CD2       13.9620   48.7510   14.6200 C.ar  372  TRP372      0.0152
     42  NE1       11.9570   48.9950   15.5910 N.ar  372  TRP372     -0.2442
     43  CE2       13.2880   48.8120   15.8560 C.ar  372  TRP372      0.0810
     44  CE3       15.3480   48.5670   14.6150 C.ar  372  TRP372      0.0012
     45  CZ2       13.9550   48.6980   17.0750 C.ar  372  TRP372      0.0191
     46  CZ3       16.0080   48.4530   15.8270 C.ar  372  TRP372      0.0001
     47  CH2       15.3110   48.5190   17.0390 C.ar  372  TRP372      0.0015
     48  N         14.0190   58.7010   15.0400 N.3   402  TRP402     -0.1241
     49  CA        13.2360   57.4720   15.0920 C.3   402  TRP402      0.1605
     50  C         12.7570   57.0970   13.6960 C.2   402  TRP402      0.2264
     51  O         12.1380   57.9080   13.0060 O.2   402  TRP402     -0.2867
     52  CB        12.0360   57.6360   16.0290 C.3   402  TRP402      0.0550
     53  CG        12.4160   57.8520   17.4670 C.ar  402  TRP402      0.0003
     54  CD1       12.5680   59.0490   18.1050 C.ar  402  TRP402      0.0946
     55  CD2       12.6890   56.8390   18.4450 C.ar  402  TRP402      0.0152
     56  NE1       12.9190   58.8440   19.4190 N.ar  402  TRP402     -0.2442
     57  CE2       12.9990   57.4960   19.6520 C.ar  402  TRP402      0.0810
     58  CE3       12.6990   55.4410   18.4170 C.ar  402  TRP402      0.0012
     59  CZ2       13.3190   56.8040   20.8190 C.ar  402  TRP402      0.0191
     60  CZ3       13.0160   54.7550   19.5770 C.ar  402  TRP402      0.0001
     61  CH2       13.3220   55.4380   20.7610 C.ar  402  TRP402      0.0015
     62  N         10.6220   54.1080   11.5580 N.3   404  ARG404     -0.1231
     63  CA         9.7180   52.9670   11.6110 C.3   404  ARG404      0.1694
     64  C          9.0480   52.7560   10.2600 C.2   404  ARG404      0.2593
     65  O          8.7920   53.7130    9.5300 O.2   404  ARG404     -0.2718
     66  CB         8.6660   53.1800   12.7000 C.3   404  ARG404      0.0321
     67  CG         9.2280   53.1710   14.1170 C.3   404  ARG404      0.0489
     68  CD         9.8380   51.8200   14.4620 C.3   404  ARG404      0.2205
     69  NE        10.2410   51.7220   15.8640 N.pl3 404  ARG404     -0.0865
     70  CZ        11.4230   52.1030   16.3410 C.cat 404  ARG404      0.5346
     71  NH1       12.3400   52.6280   15.5380 N.pl3 404  ARG404      0.1354
     72  NH2       11.6900   51.9630   17.6320 N.pl3 404  ARG404      0.1354
     73  N          8.7700   51.4940    9.9400 N.am  405  THR405     -0.1939
     74  CA         8.1310   51.1320    8.6810 C.3   405  THR405      0.2028
     75  C          6.8250   50.3840    8.9330 C.2   405  THR405      0.2642
     76  O          6.7730   49.4630    9.7470 O.2   405  THR405     -0.2714
     77  CB         9.0550   50.2500    7.8140 C.3   405  THR405      0.1808
     78  OG1       10.2760   50.9490    7.5470 O.3   405  THR405     -0.2208
     79  CG2        8.3840   49.8970    6.4900 C.3   405  THR405      0.0379
     80  N          5.7770   50.7940    8.2250 N.am  406  LEU406     -0.1977
     81  CA         4.4780   50.1330    8.2870 C.3   406  LEU406      0.1596
     82  C          4.1390   49.5130    6.9370 C.2   406  LEU406      0.2287
     83  O          4.1820   50.1860    5.9090 O.2   406  LEU406     -0.2864
     84  CB         3.3880   51.1330    8.6830 C.3   406  LEU406      0.0297
     85  CG         3.0820   51.2400   10.1780 C.3   406  LEU406      0.0022
     86  CD1        2.5130   52.6070   10.5090 C.3   406  LEU406      0.0001
     87  CD2        2.1130   50.1450   10.6000 C.3   406  LEU406      0.0001
     88  N          8.4310   56.1140    8.1550 N.3   412  PHE412     -0.1241
     89  CA         8.3050   57.3500    8.9200 C.3   412  PHE412      0.1605
     90  C          9.6190   57.6880    9.6110 C.2   412  PHE412      0.2264
     91  O         10.1750   56.8670   10.3360 O.2   412  PHE412     -0.2867
     92  CB         7.1930   57.2180    9.9610 C.3   412  PHE412      0.0534
     93  CG         5.8620   56.8480    9.3770 C.ar  412  PHE412     -0.0203
     94  CD1        5.5430   55.5220    9.1390 C.ar  412  PHE412     -0.0042
     95  CD2        4.9330   57.8240    9.0570 C.ar  412  PHE412     -0.0042
     96  CE1        4.3210   55.1750    8.5960 C.ar  412  PHE412     -0.0003
     97  CE2        3.7090   57.4810    8.5160 C.ar  412  PHE412     -0.0003
     98  CZ         3.4040   56.1560    8.2850 C.ar  412  PHE412     -0.0000
     99  N         11.2470   60.4910   12.1530 N.3   414  THR414     -0.1218
    100  CA        10.9660   61.5620   13.1030 C.3   414  THR414      0.1862
    101  C         12.2540   62.0140   13.7820 C.2   414  THR414      0.2287
    102  O         13.0660   61.1860   14.1940 O.2   414  THR414     -0.2866
    103  CB         9.9640   61.1050   14.1770 C.3   414  THR414      0.1770
    104  OG1        8.7960   60.5660   13.5440 O.3   414  THR414     -0.2211
    105  CG2        9.5700   62.2700   15.0630 C.3   414  THR414      0.0375
    106  N          8.8570   65.8820   11.0540 N.3   471  LEU471     -0.1245
    107  CA         8.0700   64.7000   10.7330 C.3   471  LEU471      0.1561
    108  C          8.2100   64.4540    9.2410 C.2   471  LEU471      0.2260
    109  O          7.9490   65.3480    8.4360 O.2   471  LEU471     -0.2867
    110  CB         6.5950   64.9170   11.0780 C.3   471  LEU471      0.0270
    111  CG         6.2790   65.2950   12.5260 C.3   471  LEU471      0.0019
    112  CD1        4.8060   65.6440   12.6740 C.3   471  LEU471      0.0001
    113  CD2        6.6580   64.1660   13.4690 C.3   471  LEU471      0.0001
@<TRIPOS>BOND
     1    83    82    2
     2    79    77    1
     3    82    81    1
     4    78    77    1
     5    77    74    1
     6    88    89    1
     7    80    81    1
     8    80    75   am
     9    98    97   ar
    10    98    96   ar
    11    81    84    1
    12   109   108    2
    13    97    95   ar
    14    96    94   ar
    15    74    75    1
    16    74    73    1
    17    84    85    1
    18    89    90    1
    19    89    92    1
    20    75    76    2
    21    95    93   ar
    22    94    93   ar
    23   108   107    1
    24    93    92    1
    25    65    64    2
    26    26    25    2
    27    25    24    1
    28    90    91    2
    29    73    64   am
    30    34    35    1
    31    85    86    1
    32    85    87    1
    33    64    63    1
    34   107   106    1
    35   107   110    1
    36    24    23    1
    37    24    27    1
    38   110   111    1
    39    35    38    1
    40    35    36    1
    41    62    63    1
    42    63    66    1
    43    27    28    1
    44    37    36    2
    45    38    39    1
    46    99   100    1
    47    28    29    1
    48   111   112    1
    49   111   113    1
    50    66    67    1
    51    51    50    2
    52   100   101    1
    53   100   103    1
    54    29    30    1
    55   104   103    1
    56    39    40   ar
    57    39    41   ar
    58    50    49    1
    59   101   102    2
    60    30    31    2
    61    67    68    1
    62   103   105    1
    63    40    42   ar
    64    68    69    1
    65    15    14    2
    66    44    41   ar
    67    44    46   ar
    68    41    43   ar
    69    14    13    1
    70    48    49    1
    71    49    52    1
    72    31    33    1
    73    31    32    1
    74    71    70    1
    75    42    43   ar
    76    46    47   ar
    77    43    45   ar
    78    69    70    2
    79    52    53    1
    80    70    72    1
    81    13    12    1
    82    13    16    1
    83    47    45   ar
    84    16    17    1
    85    53    54   ar
    86    53    55   ar
    87    54    56   ar
    88    58    55   ar
    89    58    60   ar
    90    55    57   ar
    91    17    18    1
    92    56    57   ar
    93     4     3    2
    94    19    18    1
    95    19    20    2
    96    60    61   ar
    97    57    59   ar
    98     3     2    1
    99    22    20    1
   100    20    21    1
   101    61    59   ar
   102     2     1    1
   103     2     5    1
   104     7     6    1
   105     7     8    1
   106    10     9    1
   107     6     5    1
   108     8     9    2
   109     9    11    1
