@<TRIPOS>MOLECULE
tmp/4c00A15.pdb
 85 85 0 0 0
SMALL
GASTEIGER

@<TRIPOS>ATOM
      1  N         37.0760   65.3690   28.2000 N.3   334  LEU334     -0.1245
      2  CA        37.8370   66.5140   28.6810 C.3   334  LEU334      0.1561
      3  C         38.3700   67.2790   27.4770 C.2   334  LEU334      0.2260
      4  O         39.3250   66.8520   26.8290 O.2   334  LEU334     -0.2867
      5  CB        38.9820   66.0720   29.5940 C.3   334  LEU334      0.0270
      6  CG        39.7210   67.2040   30.3140 C.3   334  LEU334      0.0019
      7  CD1       38.8200   67.8890   31.3390 C.3   334  LEU334      0.0001
      8  CD2       40.9830   66.6840   30.9800 C.3   334  LEU334      0.0001
      9  N         39.7600   70.7360   25.3980 N.3   336  TRP336     -0.1241
     10  CA        40.4340   72.0200   25.3540 C.3   336  TRP336      0.1605
     11  C         40.1880   72.6050   23.9750 C.2   336  TRP336      0.2264
     12  O         40.1480   71.8700   22.9880 O.2   336  TRP336     -0.2867
     13  CB        41.9340   71.8500   25.5890 C.3   336  TRP336      0.0550
     14  CG        42.7210   73.1050   25.3620 C.ar  336  TRP336      0.0003
     15  CD1       43.0090   74.0710   26.2830 C.ar  336  TRP336      0.0946
     16  CD2       43.3200   73.5320   24.1330 C.ar  336  TRP336      0.0152
     17  NE1       43.7510   75.0720   25.7030 N.ar  336  TRP336     -0.2442
     18  CE2       43.9550   74.7650   24.3840 C.ar  336  TRP336      0.0810
     19  CE3       43.3800   72.9920   22.8450 C.ar  336  TRP336      0.0012
     20  CZ2       44.6410   75.4640   23.3940 C.ar  336  TRP336      0.0191
     21  CZ3       44.0610   73.6880   21.8640 C.ar  336  TRP336      0.0001
     22  CH2       44.6820   74.9110   22.1430 C.ar  336  TRP336      0.0015
     23  N         39.7290   80.8410   24.9880 N.3   351  MET351     -0.1245
     24  CA        40.2800   79.5330   25.3150 C.3   351  MET351      0.1570
     25  C         39.3940   78.8600   26.3530 C.2   351  MET351      0.2261
     26  O         39.0610   79.4550   27.3770 O.2   351  MET351     -0.2867
     27  CB        41.7040   79.6600   25.8570 C.3   351  MET351      0.0387
     28  CG        42.2810   78.3410   26.3720 C.3   351  MET351      0.0595
     29  SD        44.0240   78.4400   26.8160 S.3   351  MET351     -0.1393
     30  CE        44.7720   78.7420   25.2160 C.3   351  MET351      0.0692
     31  N         38.5250   75.1320   28.6140 N.3   353  PHE353     -0.1241
     32  CA        38.9450   73.8350   29.1130 C.3   353  PHE353      0.1605
     33  C         37.8370   73.3410   30.0220 C.2   353  PHE353      0.2264
     34  O         37.5760   73.9390   31.0650 O.2   353  PHE353     -0.2867
     35  CB        40.2640   73.9510   29.8810 C.3   353  PHE353      0.0534
     36  CG        40.7420   72.6510   30.4650 C.ar  353  PHE353     -0.0203
     37  CD1       41.1660   71.6210   29.6420 C.ar  353  PHE353     -0.0042
     38  CD2       40.7770   72.4630   31.8370 C.ar  353  PHE353     -0.0042
     39  CE1       41.6100   70.4250   30.1760 C.ar  353  PHE353     -0.0003
     40  CE2       41.2210   71.2700   32.3760 C.ar  353  PHE353     -0.0003
     41  CZ        41.6380   70.2510   31.5450 C.ar  353  PHE353     -0.0000
     42  N         35.6350   78.9400   35.2680 N.3   385  THR385     -0.1203
     43  CA        36.8240   79.7830   35.2960 C.3   385  THR385      0.1994
     44  C         37.7910   79.3880   36.4070 C.2   385  THR385      0.2618
     45  O         38.9660   79.7550   36.3740 O.2   385  THR385     -0.2717
     46  CB        36.4530   81.2670   35.4760 C.3   385  THR385      0.1784
     47  OG1       35.6120   81.4170   36.6260 O.3   385  THR385     -0.2211
     48  CG2       35.7210   81.7940   34.2480 C.3   385  THR385      0.0376
     49  N         37.2970   78.6380   37.3860 N.am  386  ALA386     -0.1965
     50  CA        38.1070   78.2490   38.5340 C.3   386  ALA386      0.1728
     51  C         39.3010   77.3760   38.1400 C.2   386  ALA386      0.2616
     52  O         40.3090   77.3520   38.8470 O.2   386  ALA386     -0.2715
     53  CB        37.2460   77.5390   39.5690 C.3   386  ALA386      0.0334
     54  N         39.1880   76.6670   37.0160 N.am  387  TRP387     -0.1960
     55  CA        40.2700   75.8010   36.5390 C.3   387  TRP387      0.1771
     56  C         40.8590   76.2530   35.2010 C.2   387  TRP387      0.2620
     57  O         41.3720   75.4350   34.4360 O.2   387  TRP387     -0.2715
     58  CB        39.8120   74.3350   36.4590 C.3   387  TRP387      0.0590
     59  CG        38.5880   74.0820   35.6170 C.ar  387  TRP387      0.0006
     60  CD1       38.4450   74.3040   34.2760 C.ar  387  TRP387      0.0946
     61  CD2       37.3440   73.5260   36.0650 C.ar  387  TRP387      0.0152
     62  NE1       37.1840   73.9330   33.8660 N.ar  387  TRP387     -0.2442
     63  CE2       36.4910   73.4530   34.9450 C.ar  387  TRP387      0.0810
     64  CE3       36.8690   73.0900   37.3050 C.ar  387  TRP387      0.0012
     65  CZ2       35.1890   72.9610   35.0310 C.ar  387  TRP387      0.0191
     66  CZ3       35.5770   72.6040   37.3870 C.ar  387  TRP387      0.0001
     67  CH2       34.7520   72.5430   36.2570 C.ar  387  TRP387      0.0015
     68  N         40.7850   77.5530   34.9240 N.am  388  GLY388     -0.1940
     69  CA        41.4940   78.1330   33.7940 C.3   388  GLY388      0.2014
     70  C         40.6700   78.4690   32.5650 C.2   388  GLY388      0.2640
     71  O         41.1370   79.1940   31.6840 O.2   388  GLY388     -0.2714
     72  N         39.4500   77.9490   32.4920 N.am  389  SER389     -0.1935
     73  CA        38.5920   78.2100   31.3430 C.3   389  SER389      0.2055
     74  C         38.2290   79.6940   31.3100 C.2   389  SER389      0.2643
     75  O         38.1270   80.3330   32.3530 O.2   389  SER389     -0.2714
     76  CB        37.3330   77.3470   31.4140 C.3   389  SER389      0.2130
     77  OG        36.7270   77.2270   30.1400 O.3   389  SER389     -0.2179
     78  N         38.0520   80.2510   30.1160 N.am  390  ASP390     -0.1971
     79  CA        37.7970   81.6860   29.9910 C.3   390  ASP390      0.1709
     80  C         36.3660   82.0630   30.3700 C.2   390  ASP390      0.2293
     81  O         36.1050   83.2060   30.7470 O.2   390  ASP390     -0.2864
     82  CB        38.0890   82.1730   28.5680 C.3   390  ASP390      0.1436
     83  CG        39.5760   82.3390   28.2930 C.2   390  ASP390      0.3671
     84  OD1       40.3860   82.2260   29.2370 O.co2 390  ASP390     -0.2456
     85  OD2       39.9320   82.6010   27.1260 O.co2 390  ASP390     -0.2456
@<TRIPOS>BOND
     1    21    22   ar
     2    21    19   ar
     3    22    20   ar
     4    19    16   ar
     5    12    11    2
     6    20    18   ar
     7    11    10    1
     8    16    18   ar
     9    16    14   ar
    10    18    17   ar
    11    23    24    1
    12    30    29    1
    13    24    27    1
    14    24    25    1
    15    10     9    1
    16    10    13    1
    17    14    13    1
    18    14    15   ar
    19    17    15   ar
    20    27    28    1
    21    25    26    2
    22    28    29    1
    23     4     3    2
    24    85    83   ar
    25     3     2    1
    26     1     2    1
    27    83    82    1
    28    83    84   ar
    29    82    79    1
    30    31    32    1
    31     2     5    1
    32    32    35    1
    33    32    33    1
    34     5     6    1
    35    37    39   ar
    36    37    36   ar
    37    35    36    1
    38    79    78    1
    39    79    80    1
    40    33    34    2
    41    78    74   am
    42    77    76    1
    43    39    41   ar
    44     6     8    1
    45     6     7    1
    46    80    81    2
    47    36    38   ar
    48    74    73    1
    49    74    75    2
    50    73    76    1
    51    73    72    1
    52    41    40   ar
    53    71    70    2
    54    38    40   ar
    55    72    70   am
    56    70    69    1
    57    69    68    1
    58    62    60   ar
    59    62    63   ar
    60    48    46    1
    61    60    59   ar
    62    57    56    2
    63    68    56   am
    64    63    65   ar
    65    63    61   ar
    66    65    67   ar
    67    56    55    1
    68    42    43    1
    69    43    46    1
    70    43    44    1
    71    46    47    1
    72    59    61   ar
    73    59    58    1
    74    61    64   ar
    75    67    66   ar
    76    45    44    2
    77    44    49   am
    78    58    55    1
    79    55    54    1
    80    54    51   am
    81    64    66   ar
    82    49    50    1
    83    51    50    1
    84    51    52    2
    85    50    53    1
