@<TRIPOS>MOLECULE
tmp/4c00A11.pdb
 93 90 0 0 0
SMALL
GASTEIGER

@<TRIPOS>ATOM
      1  N         39.8720   54.4700    2.4490 N.3   235  ILE235     -0.1231
      2  CA        39.5300   55.8490    2.1260 C.3   235  ILE235      0.1692
      3  C         38.1270   55.9300    1.5350 C.2   235  ILE235      0.2592
      4  O         37.8700   55.4100    0.4500 O.2   235  ILE235     -0.2718
      5  CB        40.5460   56.4560    1.1340 C.3   235  ILE235      0.0266
      6  CG1       41.9280   56.5470    1.7840 C.3   235  ILE235      0.0019
      7  CG2       40.1070   57.8510    0.6850 C.3   235  ILE235      0.0020
      8  CD1       43.0690   56.6070    0.7980 C.3   235  ILE235      0.0001
      9  N         37.2290   56.5860    2.2650 N.am  236  GLU236     -0.1966
     10  CA        35.8850   56.8710    1.7820 C.3   236  GLU236      0.1733
     11  C         35.7580   58.3540    1.4760 C.2   236  GLU236      0.2617
     12  O         36.2760   59.1920    2.2120 O.2   236  GLU236     -0.2715
     13  CB        34.8370   56.4870    2.8270 C.3   236  GLU236      0.0429
     14  CG        34.6970   54.9940    3.0550 C.3   236  GLU236      0.1163
     15  CD        33.5040   54.6510    3.9260 C.2   236  GLU236      0.3649
     16  OE1       32.9350   55.5730    4.5490 O.co2 236  GLU236     -0.2457
     17  OE2       33.1310   53.4610    3.9840 O.co2 236  GLU236     -0.2457
     18  N         35.0690   58.6660    0.3840 N.am  237  THR237     -0.1937
     19  CA        34.7390   60.0430    0.0470 C.3   237  THR237      0.2028
     20  C         33.2300   60.1820   -0.0710 C.2   237  THR237      0.2643
     21  O         32.5060   59.1890   -0.1360 O.2   237  THR237     -0.2714
     22  CB        35.3810   60.4810   -1.2810 C.3   237  THR237      0.1808
     23  OG1       34.9260   59.6300   -2.3410 O.3   237  THR237     -0.2208
     24  CG2       36.8990   60.4180   -1.1900 C.3   237  THR237      0.0379
     25  N         32.7630   61.4230   -0.0980 N.am  238  GLY238     -0.1939
     26  CA        31.3480   61.7040   -0.2210 C.3   238  GLY238      0.2014
     27  C         31.1430   63.1190   -0.7130 C.2   238  GLY238      0.2639
     28  O         31.9100   64.0150   -0.3650 O.2   238  GLY238     -0.2714
     29  N         30.1120   63.3170   -1.5260 N.am  239  VAL239     -0.1963
     30  CA        29.8180   64.6280   -2.0890 C.3   239  VAL239      0.1727
     31  C         28.3370   64.9480   -1.9350 C.2   239  VAL239      0.2617
     32  O         27.4880   64.0610   -1.9830 O.2   239  VAL239     -0.2715
     33  CB        30.2310   64.7060   -3.5790 C.3   239  VAL239      0.0290
     34  CG1       29.5060   63.6470   -4.3960 C.3   239  VAL239      0.0023
     35  CG2       29.9810   66.1040   -4.1460 C.3   239  VAL239      0.0023
     36  N         28.0380   66.2250   -1.7370 N.am  240  GLY240     -0.1940
     37  CA        26.6680   66.6790   -1.6050 C.3   240  GLY240      0.2014
     38  C         26.5240   68.0860   -2.1420 C.2   240  GLY240      0.2638
     39  O         27.5180   68.7450   -2.4430 O.2   240  GLY240     -0.2714
     40  N         25.2840   68.5440   -2.2660 N.am  241  TYR241     -0.1973
     41  CA        25.0130   69.8920   -2.7450 C.3   241  TYR241      0.1639
     42  C         23.7230   70.4440   -2.1600 C.2   241  TYR241      0.2290
     43  O         22.7290   69.7300   -2.0260 O.2   241  TYR241     -0.2864
     44  CB        24.9200   69.9170   -4.2700 C.3   241  TYR241      0.0560
     45  CG        24.5130   71.2700   -4.8140 C.ar  241  TYR241     -0.0198
     46  CD1       25.4590   72.2610   -5.0370 C.ar  241  TYR241     -0.0009
     47  CD2       23.1830   71.5610   -5.0930 C.ar  241  TYR241     -0.0009
     48  CE1       25.0950   73.5000   -5.5280 C.ar  241  TYR241      0.0417
     49  CE2       22.8090   72.7990   -5.5840 C.ar  241  TYR241      0.0417
     50  CZ        23.7700   73.7630   -5.7990 C.ar  241  TYR241      0.1957
     51  OH        23.4050   74.9950   -6.2870 O.3   241  TYR241     -0.2866
     52  N         28.2460   73.1310   -3.0730 N.3   247  PRO247     -0.2116
     53  CA        28.7840   71.7720   -2.9830 C.3   247  PRO247      0.1372
     54  C         29.5110   71.5300   -1.6670 C.2   247  PRO247      0.2244
     55  O         30.0570   72.4620   -1.0760 O.2   247  PRO247     -0.2868
     56  CB        29.7580   71.6970   -4.1650 C.3   247  PRO247      0.0268
     57  CG        30.1000   73.1100   -4.4780 C.3   247  PRO247      0.0207
     58  CD        28.8780   73.9070   -4.1540 C.3   247  PRO247      0.0892
     59  N         25.5200   52.6130   -4.2280 N.3   515  VAL515     -0.1245
     60  CA        26.4870   53.1760   -3.2870 C.3   515  VAL515      0.1561
     61  C         25.8220   53.7140   -2.0210 C.2   515  VAL515      0.2260
     62  O         26.4340   54.4680   -1.2630 O.2   515  VAL515     -0.2867
     63  CB        27.3140   54.3040   -3.9390 C.3   515  VAL515      0.0252
     64  CG1       28.1400   53.7560   -5.0920 C.3   515  VAL515      0.0019
     65  CG2       26.4110   55.4380   -4.4180 C.3   515  VAL515      0.0019
     66  N         20.4720   57.8070   -1.7160 N.3   518  ILE518     -0.1245
     67  CA        20.6190   59.1680   -2.2270 C.3   518  ILE518      0.1561
     68  C         19.2820   59.8730   -2.0620 C.2   518  ILE518      0.2260
     69  O         18.2530   59.3490   -2.4920 O.2   518  ILE518     -0.2867
     70  CB        20.9970   59.1660   -3.7250 C.3   518  ILE518      0.0252
     71  CG1       22.3600   58.4970   -3.9230 C.3   518  ILE518      0.0019
     72  CG2       21.0040   60.5960   -4.2930 C.3   518  ILE518      0.0019
     73  CD1       22.7650   58.3260   -5.3730 C.3   518  ILE518      0.0001
     74  N         20.6780   67.8300   -2.2930 N.3   538  ILE538     -0.1231
     75  CA        20.9410   66.5040   -2.8260 C.3   538  ILE538      0.1692
     76  C         22.2160   65.9480   -2.2160 C.2   538  ILE538      0.2593
     77  O         23.2140   66.6530   -2.0830 O.2   538  ILE538     -0.2718
     78  CB        21.0350   66.5040   -4.3660 C.3   538  ILE538      0.0266
     79  CG1       21.3360   65.0930   -4.8790 C.3   538  ILE538      0.0019
     80  CG2       22.0970   67.4890   -4.8410 C.3   538  ILE538      0.0020
     81  CD1       21.0810   64.9130   -6.3590 C.3   538  ILE538      0.0001
     82  N         22.1690   64.6800   -1.8320 N.am  539  GLY539     -0.1942
     83  CA        23.3100   64.0410   -1.2120 C.3   539  GLY539      0.2014
     84  C         23.0040   62.6430   -0.7210 C.2   539  GLY539      0.2638
     85  O         21.9880   62.0500   -1.0860 O.2   539  GLY539     -0.2714
     86  N         23.8940   62.1320    0.1220 N.am  540  LEU540     -0.1977
     87  CA        23.8480   60.7530    0.5890 C.3   540  LEU540      0.1596
     88  C         23.4690   60.7190    2.0790 C.2   540  LEU540      0.2287
     89  O         23.9040   59.8540    2.8330 O.2   540  LEU540     -0.2864
     90  CB        25.2000   60.0850    0.2620 C.3   540  LEU540      0.0297
     91  CG        26.0940   59.3100    1.2350 C.3   540  LEU540      0.0022
     92  CD1       25.6320   57.8650    1.3790 C.3   540  LEU540      0.0001
     93  CD2       27.5300   59.3480    0.7490 C.3   540  LEU540      0.0001
@<TRIPOS>BOND
     1    81    79    1
     2    51    50    1
     3    50    49   ar
     4    50    48   ar
     5    49    47   ar
     6    48    46   ar
     7    73    71    1
     8    47    45   ar
     9    64    63    1
    10    46    45   ar
    11    79    78    1
    12    80    78    1
    13    45    44    1
    14    57    56    1
    15    57    58    1
    16    65    63    1
    17    34    33    1
    18    78    75    1
    19    72    70    1
    20    44    41    1
    21    59    60    1
    22    56    53    1
    23    58    52    1
    24    35    33    1
    25    63    60    1
    26    71    70    1
    27    70    67    1
    28    33    30    1
    29    60    61    1
    30    52    53    1
    31    53    54    1
    32    75    74    1
    33    75    76    1
    34    41    40    1
    35    41    42    1
    36    69    68    2
    37    39    38    2
    38    23    22    1
    39    40    38   am
    40    67    68    1
    41    67    66    1
    42    76    77    2
    43    76    82   am
    44    42    43    2
    45    38    37    1
    46    30    31    1
    47    30    29    1
    48    61    62    2
    49    32    31    2
    50    31    36   am
    51    82    83    1
    52    36    37    1
    53    54    55    2
    54    29    27   am
    55    22    24    1
    56    22    19    1
    57    83    84    1
    58    85    84    2
    59    84    86   am
    60    27    28    2
    61    27    26    1
    62    26    25    1
    63    21    20    2
    64    25    20   am
    65    20    19    1
    66    19    18    1
    67    86    87    1
    68    90    87    1
    69    90    91    1
    70    18    11   am
    71     4     3    2
    72    87    88    1
    73     7     5    1
    74    93    91    1
    75     8     6    1
    76     5     6    1
    77     5     2    1
    78    91    92    1
    79    11    10    1
    80    11    12    2
    81     3     2    1
    82     3     9   am
    83    10     9    1
    84    10    13    1
    85    88    89    2
    86     2     1    1
    87    13    14    1
    88    14    15    1
    89    15    17   ar
    90    15    16   ar
