@<TRIPOS>MOLECULE
tmp/4c00A00.pdb
 100 99 0 0 0
SMALL
GASTEIGER

@<TRIPOS>ATOM
      1  N          7.4260   53.9770   -3.8070 N.3   477  VAL477     -0.1245
      2  CA         6.6390   53.9910   -5.0350 C.3   477  VAL477      0.1561
      3  C          6.8870   52.7290   -5.8580 C.2   477  VAL477      0.2260
      4  O          5.9460   52.0330   -6.2360 O.2   477  VAL477     -0.2867
      5  CB         6.9600   55.2340   -5.8910 C.3   477  VAL477      0.0252
      6  CG1        6.1460   55.2270   -7.1820 C.3   477  VAL477      0.0019
      7  CG2        6.6890   56.5070   -5.1030 C.3   477  VAL477      0.0019
      8  N         12.7920   53.1970   -5.3120 N.3   481  TRP481     -0.1227
      9  CA        12.4460   54.6110   -5.3900 C.3   481  TRP481      0.1737
     10  C         11.3110   54.9610   -4.4360 C.2   481  TRP481      0.2595
     11  O         10.2810   54.2840   -4.4030 O.2   481  TRP481     -0.2718
     12  CB        12.0650   54.9700   -6.8250 C.3   481  TRP481      0.0564
     13  CG        13.2160   54.8180   -7.7680 C.ar  481  TRP481      0.0003
     14  CD1       13.5890   53.6880   -8.4350 C.ar  481  TRP481      0.0946
     15  CD2       14.1570   55.8320   -8.1390 C.ar  481  TRP481      0.0152
     16  NE1       14.7020   53.9350   -9.2010 N.ar  481  TRP481     -0.2442
     17  CE2       15.0700   55.2450   -9.0370 C.ar  481  TRP481      0.0810
     18  CE3       14.3150   57.1790   -7.8010 C.ar  481  TRP481      0.0012
     19  CZ2       16.1250   55.9590   -9.6020 C.ar  481  TRP481      0.0191
     20  CZ3       15.3630   57.8860   -8.3630 C.ar  481  TRP481      0.0001
     21  CH2       16.2540   57.2750   -9.2530 C.ar  481  TRP481      0.0015
     22  N         11.5150   56.0250   -3.6630 N.am  482  TRP482     -0.1962
     23  CA        10.5370   56.4810   -2.6850 C.3   482  TRP482      0.1771
     24  C         10.1820   57.9400   -2.9190 C.2   482  TRP482      0.2620
     25  O         11.0160   58.7280   -3.3650 O.2   482  TRP482     -0.2715
     26  CB        11.0880   56.3570   -1.2630 C.3   482  TRP482      0.0590
     27  CG        11.5990   55.0030   -0.8900 C.ar  482  TRP482      0.0006
     28  CD1       12.6470   54.3320   -1.4520 C.ar  482  TRP482      0.0946
     29  CD2       11.0970   54.1620    0.1520 C.ar  482  TRP482      0.0152
     30  NE1       12.8200   53.1200   -0.8310 N.ar  482  TRP482     -0.2442
     31  CE2       11.8820   52.9920    0.1600 C.ar  482  TRP482      0.0810
     32  CE3       10.0570   54.2820    1.0780 C.ar  482  TRP482      0.0012
     33  CZ2       11.6570   51.9480    1.0550 C.ar  482  TRP482      0.0191
     34  CZ3        9.8370   53.2480    1.9670 C.ar  482  TRP482      0.0001
     35  CH2       10.6320   52.0960    1.9490 C.ar  482  TRP482      0.0015
     36  N          8.9390   58.2870   -2.6010 N.am  483  GLY483     -0.1940
     37  CA         8.5180   59.6730   -2.5260 C.3   483  GLY483      0.2014
     38  C          8.4710   60.0660   -1.0670 C.2   483  GLY483      0.2638
     39  O          8.1840   59.2270   -0.2180 O.2   483  GLY483     -0.2714
     40  N          8.7590   61.3310   -0.7720 N.am  484  ALA484     -0.1977
     41  CA         8.8040   61.8010    0.6070 C.3   484  ALA484      0.1597
     42  C          8.0890   63.1350    0.7650 C.2   484  ALA484      0.2287
     43  O          8.1420   63.9850   -0.1180 O.2   484  ALA484     -0.2864
     44  CB        10.2480   61.9220    1.0750 C.3   484  ALA484      0.0319
     45  N          8.8510   68.2910   -0.3700 N.3   507  VAL507     -0.1231
     46  CA         8.7180   66.9380   -0.8790 C.3   507  VAL507      0.1696
     47  C         10.0670   66.4860   -1.4100 C.2   507  VAL507      0.2632
     48  O         10.9460   67.3130   -1.6460 O.2   507  VAL507     -0.2714
     49  CB         7.6570   66.8630   -1.9980 C.3   507  VAL507      0.0266
     50  CG1        6.3240   67.3830   -1.4850 C.3   507  VAL507      0.0020
     51  CG2        8.0980   67.6590   -3.2260 C.3   507  VAL507      0.0020
     52  N         10.2360   65.1830   -1.6040 N.am  508  GLY508     -0.1718
     53  CA        11.5100   64.6720   -2.0670 C.2   508  GLY508      0.1480
     54  C         11.4830   63.2910   -2.6850 C.2   508  GLY508      0.2820
     55  O         10.4500   62.6200   -2.7210 O.2   508  GLY508     -0.2669
     56  N         12.6500   62.8850   -3.1770 N.am  509  VAL509     -0.1943
     57  CA        12.8610   61.5630   -3.7460 C.3   509  VAL509      0.1599
     58  C         13.9450   60.8590   -2.9390 C.2   509  VAL509      0.2287
     59  O         14.8600   61.5040   -2.4230 O.2   509  VAL509     -0.2864
     60  CB        13.3260   61.6530   -5.2170 C.3   509  VAL509      0.0276
     61  CG1       13.3900   60.2660   -5.8510 C.3   509  VAL509      0.0022
     62  CG2       12.4050   62.5590   -6.0190 C.3   509  VAL509      0.0022
     63  N         16.8630   63.5830   -2.3450 N.3   520  LEU520     -0.1245
     64  CA        16.6840   64.8370   -3.0590 C.3   520  LEU520      0.1561
     65  C         15.4550   65.5070   -2.4710 C.2   520  LEU520      0.2260
     66  O         14.3580   64.9680   -2.5610 O.2   520  LEU520     -0.2867
     67  CB        16.4930   64.5940   -4.5590 C.3   520  LEU520      0.0270
     68  CG        15.8760   65.7380   -5.3750 C.3   520  LEU520      0.0019
     69  CD1       16.6400   67.0390   -5.1640 C.3   520  LEU520      0.0001
     70  CD2       15.8330   65.3780   -6.8530 C.3   520  LEU520      0.0001
     71  N         13.1280   69.1760   -2.0190 N.3   522  PHE522     -0.1241
     72  CA        12.7620   70.5550   -2.3240 C.3   522  PHE522      0.1605
     73  C         11.9710   71.0580   -1.1280 C.2   522  PHE522      0.2264
     74  O         11.1780   70.3100   -0.5640 O.2   522  PHE522     -0.2867
     75  CB        11.8840   70.6290   -3.5770 C.3   522  PHE522      0.0534
     76  CG        12.5200   70.0440   -4.8070 C.ar  522  PHE522     -0.0203
     77  CD1       13.3090   70.8250   -5.6350 C.ar  522  PHE522     -0.0042
     78  CD2       12.3180   68.7180   -5.1410 C.ar  522  PHE522     -0.0042
     79  CE1       13.8890   70.2920   -6.7700 C.ar  522  PHE522     -0.0003
     80  CE2       12.8950   68.1770   -6.2760 C.ar  522  PHE522     -0.0003
     81  CZ        13.6810   68.9660   -7.0910 C.ar  522  PHE522     -0.0000
     82  N         12.3450   78.5580   -3.0520 N.3   534  LEU534     -0.1245
     83  CA        12.6510   77.1460   -2.9170 C.3   534  LEU534      0.1561
     84  C         14.1220   76.9260   -2.5660 C.2   534  LEU534      0.2260
     85  O         15.0060   77.5580   -3.1410 O.2   534  LEU534     -0.2867
     86  CB        12.3160   76.4570   -4.2460 C.3   534  LEU534      0.0270
     87  CG        12.4150   74.9410   -4.4250 C.3   534  LEU534      0.0019
     88  CD1       11.5830   74.5440   -5.6270 C.3   534  LEU534      0.0001
     89  CD2       13.8430   74.4950   -4.6370 C.3   534  LEU534      0.0001
     90  N         16.7020   73.5300   -2.4130 N.3   536  PHE536     -0.1241
     91  CA        16.7990   72.0930   -2.6330 C.3   536  PHE536      0.1605
     92  C         18.1500   71.5390   -2.2070 C.2   536  PHE536      0.2264
     93  O         19.1370   72.2640   -2.0970 O.2   536  PHE536     -0.2867
     94  CB        16.4110   71.6830   -4.0680 C.3   536  PHE536      0.0534
     95  CG        17.4600   71.9530   -5.1110 C.ar  536  PHE536     -0.0203
     96  CD1       18.5560   71.1150   -5.2520 C.ar  536  PHE536     -0.0042
     97  CD2       17.3180   73.0130   -5.9920 C.ar  536  PHE536     -0.0042
     98  CE1       19.5100   71.3540   -6.2250 C.ar  536  PHE536     -0.0003
     99  CE2       18.2680   73.2550   -6.9700 C.ar  536  PHE536     -0.0003
    100  CZ        19.3640   72.4230   -7.0860 C.ar  536  PHE536     -0.0000
@<TRIPOS>BOND
     1    19    21   ar
     2    19    17   ar
     3    21    20   ar
     4    16    17   ar
     5    16    14   ar
     6    17    15   ar
     7    14    13   ar
     8    20    18   ar
     9    15    18   ar
    10    15    13   ar
    11    13    12    1
    12     6     5    1
    13    81    79   ar
    14    81    80   ar
    15   100    99   ar
    16   100    98   ar
    17    99    97   ar
    18    70    68    1
    19    12     9    1
    20    79    77   ar
    21    80    78   ar
    22     4     3    2
    23    98    96   ar
    24    62    60    1
    25    97    95   ar
    26     5     7    1
    27     5     2    1
    28     3     2    1
    29    61    60    1
    30    77    76   ar
    31    88    87    1
    32     9     8    1
    33     9    10    1
    34    68    69    1
    35    68    67    1
    36    96    95   ar
    37    60    57    1
    38    78    76   ar
    39    95    94    1
    40     2     1    1
    41    76    75    1
    42    89    87    1
    43    67    64    1
    44    10    11    2
    45    10    22   am
    46    87    86    1
    47    86    83    1
    48    94    91    1
    49    57    56    1
    50    57    58    1
    51    22    23    1
    52    75    72    1
    53    25    24    2
    54    51    49    1
    55    56    54   am
    56    85    84    2
    57    64    65    1
    58    64    63    1
    59    82    83    1
    60    58    59    2
    61    24    23    1
    62    24    36   am
    63    83    84    1
    64    55    54    2
    65    54    53    1
    66    23    26    1
    67    91    90    1
    68    91    92    1
    69    36    37    1
    70    66    65    2
    71    37    38    1
    72    72    71    1
    73    72    73    1
    74    92    93    2
    75    53    52    2
    76    49    50    1
    77    49    46    1
    78    48    47    2
    79    52    47    1
    80    28    27   ar
    81    28    30   ar
    82    47    46    1
    83    26    27    1
    84    73    74    2
    85    38    40   am
    86    38    39    2
    87    27    29   ar
    88    46    45    1
    89    30    31   ar
    90    40    41    1
    91    43    42    2
    92    29    31   ar
    93    29    32   ar
    94    31    33   ar
    95    41    42    1
    96    41    44    1
    97    33    35   ar
    98    32    34   ar
    99    35    34   ar
