@<TRIPOS>MOLECULE
tmp/4c00A01.pdb
 90 85 0 0 0
SMALL
GASTEIGER

@<TRIPOS>ATOM
      1  N         34.6670   46.9110   24.4250 N.3   292  GLU292     -0.1231
      2  CA        33.7430   47.7380   25.1950 C.3   292  GLU292      0.1699
      3  C         34.3810   49.0120   25.7420 C.2   292  GLU292      0.2592
      4  O         33.7010   50.0270   25.8950 O.2   292  GLU292     -0.2718
      5  CB        33.1490   46.9290   26.3500 C.3   292  GLU292      0.0402
      6  CG        32.2450   45.7910   25.8990 C.3   292  GLU292      0.1161
      7  CD        31.4830   45.1520   27.0430 C.2   292  GLU292      0.3649
      8  OE1       31.8450   45.3970   28.2130 O.co2 292  GLU292     -0.2457
      9  OE2       30.5160   44.4080   26.7710 O.co2 292  GLU292     -0.2457
     10  N         35.6790   48.9590   26.0310 N.am  293  GLN293     -0.1979
     11  CA        36.3590   50.0690   26.6970 C.3   293  GLN293      0.1601
     12  C         37.6110   50.5270   25.9540 C.2   293  GLN293      0.2287
     13  O         38.4190   49.7180   25.4970 O.2   293  GLN293     -0.2864
     14  CB        36.7100   49.6860   28.1380 C.3   293  GLN293      0.0394
     15  CG        35.4900   49.3560   28.9910 C.3   293  GLN293      0.0908
     16  CD        35.8430   49.0600   30.4370 C.2   293  GLN293      0.2608
     17  OE1       36.6840   49.7310   31.0370 O.2   293  GLN293     -0.2717
     18  NE2       35.2010   48.0470   31.0030 N.am  293  GLN293     -0.0878
     19  N         37.1050   58.8750   27.6670 N.3   320  ARG320     -0.1245
     20  CA        37.0610   57.4960   28.1260 C.3   320  ARG320      0.1563
     21  C         35.6760   56.9530   27.7990 C.2   320  ARG320      0.2260
     22  O         34.6760   57.5280   28.2150 O.2   320  ARG320     -0.2867
     23  CB        37.3150   57.4400   29.6330 C.3   320  ARG320      0.0307
     24  CG        37.1070   56.0780   30.2780 C.3   320  ARG320      0.0489
     25  CD        38.1110   55.0530   29.7870 C.3   320  ARG320      0.2205
     26  NE        38.2880   53.9780   30.7620 N.pl3 320  ARG320     -0.0865
     27  CZ        37.5120   52.9010   30.8530 C.cat 320  ARG320      0.5346
     28  NH1       36.4900   52.7310   30.0210 N.pl3 320  ARG320      0.1354
     29  NH2       37.7620   51.9880   31.7810 N.pl3 320  ARG320      0.1354
     30  N         32.7590   53.7220   27.5120 N.3   322  TRP322     -0.1241
     31  CA        32.2330   52.4330   27.9490 C.3   322  TRP322      0.1605
     32  C         31.0980   52.0460   27.0060 C.2   322  TRP322      0.2264
     33  O         30.0140   52.6220   27.0700 O.2   322  TRP322     -0.2867
     34  CB        31.6770   52.5160   29.3730 C.3   322  TRP322      0.0550
     35  CG        32.7030   52.6280   30.4630 C.ar  322  TRP322      0.0003
     36  CD1       33.2850   51.6020   31.1500 C.ar  322  TRP322      0.0946
     37  CD2       33.2470   53.8350   31.0090 C.ar  322  TRP322      0.0152
     38  NE1       34.1640   52.0950   32.0830 N.ar  322  TRP322     -0.2442
     39  CE2       34.1590   53.4630   32.0180 C.ar  322  TRP322      0.0810
     40  CE3       33.0540   55.1940   30.7420 C.ar  322  TRP322      0.0012
     41  CZ2       34.8770   54.4000   32.7580 C.ar  322  TRP322      0.0191
     42  CZ3       33.7690   56.1230   31.4780 C.ar  322  TRP322      0.0001
     43  CH2       34.6680   55.7220   32.4730 C.ar  322  TRP322      0.0015
     44  N         28.4370   49.1690   25.2120 N.3   324  LEU324     -0.1245
     45  CA        27.6910   47.9440   25.4710 C.3   324  LEU324      0.1561
     46  C         27.2120   47.3590   24.1490 C.2   324  LEU324      0.2260
     47  O         26.9670   48.0910   23.1910 O.2   324  LEU324     -0.2867
     48  CB        26.4920   48.2310   26.3780 C.3   324  LEU324      0.0270
     49  CG        26.8270   48.7730   27.7690 C.3   324  LEU324      0.0019
     50  CD1       25.5710   49.2860   28.4540 C.3   324  LEU324      0.0001
     51  CD2       27.4960   47.7040   28.6160 C.3   324  LEU324      0.0001
     52  N         28.7730   55.2960   26.4770 N.3   330  ARG330     -0.1231
     53  CA        28.8540   56.2180   27.5970 C.3   330  ARG330      0.1694
     54  C         30.2810   56.7210   27.6870 C.2   330  ARG330      0.2592
     55  O         31.2240   55.9270   27.6800 O.2   330  ARG330     -0.2718
     56  CB        28.4520   55.5090   28.8890 C.3   330  ARG330      0.0321
     57  CG        27.0680   54.8770   28.8230 C.3   330  ARG330      0.0489
     58  CD        26.8540   53.8560   29.9220 C.3   330  ARG330      0.2205
     59  NE        27.7140   52.6880   29.7520 N.pl3 330  ARG330     -0.0865
     60  CZ        27.6820   51.6130   30.5340 C.cat 330  ARG330      0.5346
     61  NH1       26.8310   51.5480   31.5500 N.pl3 330  ARG330      0.1354
     62  NH2       28.5040   50.6000   30.3000 N.pl3 330  ARG330      0.1354
     63  N         30.4420   58.0380   27.7580 N.am  331  ALA331     -0.1966
     64  CA        31.7700   58.6290   27.7190 C.3   331  ALA331      0.1728
     65  C         31.9270   59.8150   28.6600 C.2   331  ALA331      0.2616
     66  O         30.9950   60.5870   28.8720 O.2   331  ALA331     -0.2715
     67  CB        32.1190   59.0430   26.2910 C.3   331  ALA331      0.0334
     68  N         33.1240   59.9290   29.2290 N.am  332  ILE332     -0.1977
     69  CA        33.5440   61.1200   29.9470 C.3   332  ILE332      0.1596
     70  C         34.5150   61.8520   29.0390 C.2   332  ILE332      0.2287
     71  O         35.4340   61.2420   28.4940 O.2   332  ILE332     -0.2864
     72  CB        34.2370   60.7700   31.2760 C.3   332  ILE332      0.0276
     73  CG1       33.2570   60.0390   32.1970 C.3   332  ILE332      0.0022
     74  CG2       34.7730   62.0330   31.9600 C.3   332  ILE332      0.0022
     75  CD1       33.8800   59.5070   33.4770 C.3   332  ILE332      0.0001
     76  N         30.0280   64.9050   29.8940 N.3   357  VAL357     -0.1245
     77  CA        29.6270   63.5090   29.8060 C.3   357  VAL357      0.1561
     78  C         28.6850   63.3430   28.6240 C.2   357  VAL357      0.2260
     79  O         27.9990   64.2850   28.2270 O.2   357  VAL357     -0.2867
     80  CB        28.9620   63.0140   31.1150 C.3   357  VAL357      0.0252
     81  CG1       27.5740   63.6280   31.3010 C.3   357  VAL357      0.0019
     82  CG2       28.8910   61.4910   31.1350 C.3   357  VAL357      0.0019
     83  N         26.0190   60.3370   26.6640 N.3   359  ILE359     -0.1245
     84  CA        25.3630   59.0420   26.5540 C.3   359  ILE359      0.1561
     85  C         24.6800   58.9850   25.1960 C.2   359  ILE359      0.2260
     86  O         23.9770   59.9220   24.8190 O.2   359  ILE359     -0.2867
     87  CB        24.2890   58.8430   27.6470 C.3   359  ILE359      0.0252
     88  CG1       24.8280   59.2260   29.0310 C.3   359  ILE359      0.0019
     89  CG2       23.7790   57.4070   27.6310 C.3   359  ILE359      0.0019
     90  CD1       25.9260   58.3240   29.5600 C.3   359  ILE359      0.0001
@<TRIPOS>BOND
     1    47    46    2
     2    46    45    1
     3     1     2    1
     4    86    85    2
     5     2     3    1
     6     2     5    1
     7    85    84    1
     8    44    45    1
     9    45    48    1
    10    13    12    2
    11     3     4    2
    12     3    10   am
    13     6     5    1
    14     6     7    1
    15    12    11    1
    16    10    11    1
    17    67    64    1
    18    48    49    1
    19    52    53    1
    20    84    83    1
    21    84    87    1
    22    11    14    1
    23     9     7   ar
    24    32    33    2
    25    32    31    1
    26     7     8   ar
    27    30    31    1
    28    53    54    1
    29    53    56    1
    30    89    87    1
    31    87    88    1
    32    19    20    1
    33    55    54    2
    34    54    63   am
    35    64    63    1
    36    64    65    1
    37    49    50    1
    38    49    51    1
    39    21    20    1
    40    21    22    2
    41    31    34    1
    42    20    23    1
    43    14    15    1
    44    79    78    2
    45    71    70    2
    46    78    77    1
    47    65    66    2
    48    65    68   am
    49    57    56    1
    50    57    58    1
    51    15    16    1
    52    88    90    1
    53    70    69    1
    54    68    69    1
    55    34    35    1
    56    23    24    1
    57    59    58    1
    58    59    60    2
    59    25    24    1
    60    25    26    1
    61    77    76    1
    62    77    80    1
    63    69    72    1
    64    28    27    1
    65    62    60    1
    66    16    18   am
    67    16    17    2
    68    35    37   ar
    69    35    36   ar
    70    60    61    1
    71    40    37   ar
    72    40    42   ar
    73    26    27    2
    74    27    29    1
    75    37    39   ar
    76    80    82    1
    77    80    81    1
    78    36    38   ar
    79    72    74    1
    80    72    73    1
    81    42    43   ar
    82    39    38   ar
    83    39    41   ar
    84    73    75    1
    85    43    41   ar
