@<TRIPOS>MOLECULE
tmp/4c00A09.pdb
 101 97 0 0 0
SMALL
GASTEIGER

@<TRIPOS>ATOM
      1  N         38.0460   65.0140    6.8960 N.3   269  THR269     -0.1218
      2  CA        37.8880   66.3990    6.4840 C.3   269  THR269      0.1862
      3  C         36.5150   66.6030    5.8570 C.2   269  THR269      0.2287
      4  O         35.9830   65.7130    5.1980 O.2   269  THR269     -0.2866
      5  CB        38.9860   66.8300    5.4830 C.3   269  THR269      0.1770
      6  OG1       38.8400   68.2230    5.1790 O.3   269  THR269     -0.2211
      7  CG2       38.9090   66.0150    4.1940 C.3   269  THR269      0.0375
      8  N         34.6100   69.6900    3.6000 N.3   271  ILE271     -0.1245
      9  CA        34.8870   70.9280    2.8810 C.3   271  ILE271      0.1561
     10  C         33.6540   71.4570    2.1700 C.2   271  ILE271      0.2260
     11  O         33.0350   70.7630    1.3650 O.2   271  ILE271     -0.2867
     12  CB        35.9930   70.7320    1.8170 C.3   271  ILE271      0.0252
     13  CG1       37.2490   70.1230    2.4450 C.3   271  ILE271      0.0019
     14  CG2       36.3200   72.0590    1.1220 C.3   271  ILE271      0.0019
     15  CD1       37.8850   70.9690    3.5400 C.3   271  ILE271      0.0001
     16  N         35.0450   74.6070    6.7730 N.3   276  GLN276     -0.1231
     17  CA        36.0590   73.5900    6.5380 C.3   276  GLN276      0.1698
     18  C         36.5690   73.0340    7.8570 C.2   276  GLN276      0.2593
     19  O         36.8630   73.7870    8.7850 O.2   276  GLN276     -0.2718
     20  CB        37.2280   74.1620    5.7400 C.3   276  GLN276      0.0381
     21  CG        36.8130   74.8420    4.4550 C.3   276  GLN276      0.0905
     22  CD        36.4170   76.2890    4.6470 C.2   276  GLN276      0.2608
     23  OE1       37.0590   77.0260    5.3940 O.2   276  GLN276     -0.2717
     24  NE2       35.3550   76.7050    3.9680 N.am  276  GLN276     -0.0878
     25  N         36.6720   71.7120    7.9280 N.am  277  THR277     -0.1939
     26  CA        37.1620   71.0440    9.1250 C.3   277  THR277      0.2028
     27  C         38.2010   69.9940    8.7700 C.2   277  THR277      0.2642
     28  O         38.1650   69.4030    7.6910 O.2   277  THR277     -0.2714
     29  CB        36.0200   70.3530    9.9000 C.3   277  THR277      0.1808
     30  OG1       35.4770   69.2880    9.1100 O.3   277  THR277     -0.2208
     31  CG2       34.9190   71.3420   10.2390 C.3   277  THR277      0.0379
     32  N         39.1250   69.7770    9.6960 N.am  278  LEU278     -0.1977
     33  CA        40.1030   68.7090    9.5980 C.3   278  LEU278      0.1596
     34  C         40.2340   68.1020   10.9840 C.2   278  LEU278      0.2287
     35  O         40.4890   68.8140   11.9520 O.2   278  LEU278     -0.2864
     36  CB        41.4530   69.2500    9.1260 C.3   278  LEU278      0.0297
     37  CG        42.5990   68.2370    9.0820 C.3   278  LEU278      0.0022
     38  CD1       42.3150   67.1620    8.0540 C.3   278  LEU278      0.0001
     39  CD2       43.9170   68.9320    8.7810 C.3   278  LEU278      0.0001
     40  N         40.7180   71.0140   13.6500 N.3   301  PHE301     -0.1227
     41  CA        40.8100   72.3950   13.2120 C.3   301  PHE301      0.1736
     42  C         39.5390   72.7060   12.4490 C.2   301  PHE301      0.2595
     43  O         39.0510   71.8650   11.6950 O.2   301  PHE301     -0.2718
     44  CB        42.0130   72.5960   12.2900 C.3   301  PHE301      0.0547
     45  CG        43.3220   72.1640   12.8880 C.ar  301  PHE301     -0.0202
     46  CD1       43.6740   70.8240   12.9250 C.ar  301  PHE301     -0.0042
     47  CD2       44.2020   73.0990   13.4060 C.ar  301  PHE301     -0.0042
     48  CE1       44.8800   70.4250   13.4740 C.ar  301  PHE301     -0.0003
     49  CE2       45.4090   72.7060   13.9530 C.ar  301  PHE301     -0.0003
     50  CZ        45.7480   71.3680   13.9870 C.ar  301  PHE301     -0.0000
     51  N         39.0000   73.9040   12.6460 N.am  302  LYS302     -0.1966
     52  CA        37.8140   74.3300   11.9160 C.3   302  LYS302      0.1728
     53  C         37.9250   75.7910   11.5220 C.2   302  LYS302      0.2616
     54  O         38.4670   76.6040   12.2660 O.2   302  LYS302     -0.2715
     55  CB        36.5500   74.1100   12.7540 C.3   302  LYS302      0.0311
     56  CG        35.2630   74.5280   12.0520 C.3   302  LYS302      0.0038
     57  CD        34.0360   73.9120   12.7070 C.3   302  LYS302      0.0206
     58  CE        32.7980   74.1080   11.8480 C.3   302  LYS302      0.1093
     59  NZ        31.6620   73.2610   12.3050 N.3   302  LYS302     -0.1314
     60  N         37.4230   76.1050   10.3340 N.am  303  ARG303     -0.1977
     61  CA        37.2950   77.4830    9.8860 C.3   303  ARG303      0.1597
     62  C         35.8800   77.7160    9.3840 C.2   303  ARG303      0.2287
     63  O         35.3570   76.9360    8.5890 O.2   303  ARG303     -0.2864
     64  CB        38.3090   77.8020    8.7850 C.3   303  ARG303      0.0334
     65  CG        38.0680   79.1430    8.0980 C.3   303  ARG303      0.0492
     66  CD        39.3740   79.8330    7.7420 C.3   303  ARG303      0.2205
     67  NE        40.3570   78.8900    7.2080 N.pl3 303  ARG303     -0.0865
     68  CZ        41.6580   78.9050    7.4880 C.cat 303  ARG303      0.5346
     69  NH1       42.1730   79.8190    8.3030 N.pl3 303  ARG303      0.1354
     70  NH2       42.4530   77.9950    6.9470 N.pl3 303  ARG303      0.1354
     71  N         37.9750   80.7490   13.3850 N.3   312  ASP312     -0.1225
     72  CA        38.8920   79.6290   13.2750 C.3   312  ASP312      0.1805
     73  C         39.0150   79.0090   14.6580 C.2   312  ASP312      0.2598
     74  O         39.0870   79.7190   15.6620 O.2   312  ASP312     -0.2718
     75  CB        40.2560   80.0660   12.7380 C.3   312  ASP312      0.1424
     76  CG        40.9280   81.0940   13.6170 C.2   312  ASP312      0.3668
     77  OD1       41.6160   80.6930   14.5790 O.co2 312  ASP312     -0.2456
     78  OD2       40.7760   82.3030   13.3390 O.co2 312  ASP312     -0.2456
     79  N         39.0110   77.6820   14.7030 N.am  313  SER313     -0.1938
     80  CA        38.9820   76.9620   15.9660 C.3   313  SER313      0.2055
     81  C         39.9670   75.8070   15.9670 C.2   313  SER313      0.2643
     82  O         40.1510   75.1300   14.9570 O.2   313  SER313     -0.2714
     83  CB        37.5720   76.4280   16.2330 C.3   313  SER313      0.2130
     84  OG        37.5130   75.7550   17.4800 O.3   313  SER313     -0.2179
     85  N         40.6000   75.5970   17.1160 N.am  314  THR314     -0.1950
     86  CA        41.4350   74.4280   17.3410 C.3   314  THR314      0.1897
     87  C         40.9520   73.7660   18.6160 C.2   314  THR314      0.2313
     88  O         40.6530   74.4460   19.5950 O.2   314  THR314     -0.2863
     89  CB        42.9200   74.7960   17.4970 C.3   314  THR314      0.1794
     90  OG1       43.3420   75.5850   16.3780 O.3   314  THR314     -0.2208
     91  CG2       43.7750   73.5340   17.5840 C.3   314  THR314      0.0378
     92  N         39.3570   81.8790   17.8170 N.3   340  HIS340     -0.1241
     93  CA        39.4140   83.2640   17.3700 C.3   340  HIS340      0.1621
     94  C         38.2170   83.5000   16.4590 C.2   340  HIS340      0.2264
     95  O         38.0790   82.8300   15.4360 O.2   340  HIS340     -0.2867
     96  CB        40.7060   83.5340   16.5960 C.3   340  HIS340      0.0745
     97  CG        41.9270   82.9430   17.2240 C.ar  340  HIS340      0.0817
     98  ND1       42.4830   81.7570   16.8030 N.ar  340  HIS340     -0.2268
     99  CD2       42.7100   83.3810   18.2440 C.ar  340  HIS340      0.1154
    100  CE1       43.5520   81.4840   17.5310 C.ar  340  HIS340      0.1986
    101  NE2       43.7070   82.4580   18.4140 N.ar  340  HIS340     -0.2212
@<TRIPOS>BOND
     1    14    12    1
     2    11    10    2
     3    12    13    1
     4    12     9    1
     5    10     9    1
     6    13    15    1
     7     9     8    1
     8    24    22   am
     9     7     5    1
    10    21    22    1
    11    21    20    1
    12    22    23    2
    13     6     5    1
    14     4     3    2
    15     5     2    1
    16    20    17    1
    17     3     2    1
    18     2     1    1
    19    17    16    1
    20    17    18    1
    21    70    68    1
    22    67    68    2
    23    67    66    1
    24    68    69    1
    25    28    27    2
    26    66    65    1
    27    18    25   am
    28    18    19    2
    29    25    26    1
    30    38    37    1
    31    65    64    1
    32    63    62    2
    33    27    26    1
    34    27    32   am
    35    39    37    1
    36    64    61    1
    37    37    36    1
    38    30    29    1
    39    26    29    1
    40    36    33    1
    41    62    61    1
    42    33    32    1
    43    33    34    1
    44    61    60    1
    45    29    31    1
    46    60    53   am
    47    34    35    2
    48    53    52    1
    49    53    54    2
    50    43    42    2
    51    58    59    1
    52    58    57    1
    53    52    51    1
    54    52    55    1
    55    56    57    1
    56    56    55    1
    57    44    45    1
    58    44    41    1
    59    42    51   am
    60    42    41    1
    61    75    72    1
    62    75    76    1
    63    45    46   ar
    64    45    47   ar
    65    46    48   ar
    66    41    40    1
    67    72    71    1
    68    72    73    1
    69    78    76   ar
    70    47    49   ar
    71    48    50   ar
    72    76    77   ar
    73    49    50   ar
    74    73    79   am
    75    73    74    2
    76    79    80    1
    77    82    81    2
    78    95    94    2
    79    80    81    1
    80    80    83    1
    81    81    85   am
    82    83    84    1
    83    90    89    1
    84    94    93    1
    85    96    97    1
    86    96    93    1
    87    98    97   ar
    88    98   100   ar
    89    85    86    1
    90    97    99   ar
    91    86    89    1
    92    86    87    1
    93    93    92    1
    94    89    91    1
    95   100   101   ar
    96    99   101   ar
    97    87    88    2
