@<TRIPOS>MOLECULE
tmp/4c00A08.pdb
 175 169 0 0 0
SMALL
GASTEIGER

@<TRIPOS>ATOM
      1  N         22.6450   62.2900   24.2520 N.3   378  TYR378     -0.1241
      2  CA        22.4550   63.2560   25.3220 C.3   378  TYR378      0.1605
      3  C         23.8170   63.6150   25.8900 C.2   378  TYR378      0.2264
      4  O         24.6520   62.7380   26.1060 O.2   378  TYR378     -0.2867
      5  CB        21.5660   62.6720   26.4200 C.3   378  TYR378      0.0534
      6  CG        20.3410   61.9600   25.8940 C.ar  378  TYR378     -0.0201
      7  CD1       19.2320   62.6730   25.4530 C.ar  378  TYR378     -0.0009
      8  CD2       20.2920   60.5740   25.8380 C.ar  378  TYR378     -0.0009
      9  CE1       18.1120   62.0240   24.9700 C.ar  378  TYR378      0.0417
     10  CE2       19.1770   59.9170   25.3590 C.ar  378  TYR378      0.0417
     11  CZ        18.0900   60.6470   24.9260 C.ar  378  TYR378      0.1957
     12  OH        16.9800   59.9900   24.4480 O.3   378  TYR378     -0.2866
     13  N         20.2880   67.3020   23.6560 N.3   398  ALA398     -0.1231
     14  CA        19.5540   66.0660   23.4700 C.3   398  ALA398      0.1694
     15  C         19.0820   66.0150   22.0280 C.2   398  ALA398      0.2592
     16  O         18.6420   67.0260   21.4800 O.2   398  ALA398     -0.2718
     17  CB        18.3670   66.0120   24.4190 C.3   398  ALA398      0.0304
     18  N         19.1890   64.8480   21.4030 N.am  399  GLN399     -0.1966
     19  CA        18.6930   64.6850   20.0450 C.3   399  GLN399      0.1733
     20  C         18.2400   63.2560   19.7860 C.2   399  GLN399      0.2616
     21  O         18.8090   62.3020   20.3150 O.2   399  GLN399     -0.2715
     22  CB        19.7460   65.1170   19.0220 C.3   399  GLN399      0.0408
     23  CG        20.9830   64.2420   18.9790 C.3   399  GLN399      0.0908
     24  CD        22.0970   64.8540   18.1500 C.2   399  GLN399      0.2608
     25  OE1       22.2100   66.0750   18.0470 O.2   399  GLN399     -0.2717
     26  NE2       22.9240   64.0050   17.5510 N.am  399  GLN399     -0.0878
     27  N         17.1970   63.1310   18.9720 N.am  400  ASN400     -0.1972
     28  CA        16.5630   61.8520   18.6930 C.3   400  ASN400      0.1688
     29  C         16.3150   61.6980   17.2040 C.2   400  ASN400      0.2292
     30  O         15.9930   62.6690   16.5230 O.2   400  ASN400     -0.2864
     31  CB        15.2140   61.7670   19.4150 C.3   400  ASN400      0.1181
     32  CG        15.2890   61.0190   20.7330 C.2   400  ASN400      0.2629
     33  OD1       14.3780   60.2660   21.0760 O.2   400  ASN400     -0.2716
     34  ND2       16.3700   61.2220   21.4780 N.am  400  ASN400     -0.0877
     35  N         14.0190   58.7010   15.0400 N.3   402  TRP402     -0.1241
     36  CA        13.2360   57.4720   15.0920 C.3   402  TRP402      0.1605
     37  C         12.7570   57.0970   13.6960 C.2   402  TRP402      0.2264
     38  O         12.1380   57.9080   13.0060 O.2   402  TRP402     -0.2867
     39  CB        12.0360   57.6360   16.0290 C.3   402  TRP402      0.0550
     40  CG        12.4160   57.8520   17.4670 C.ar  402  TRP402      0.0003
     41  CD1       12.5680   59.0490   18.1050 C.ar  402  TRP402      0.0946
     42  CD2       12.6890   56.8390   18.4450 C.ar  402  TRP402      0.0152
     43  NE1       12.9190   58.8440   19.4190 N.ar  402  TRP402     -0.2442
     44  CE2       12.9990   57.4960   19.6520 C.ar  402  TRP402      0.0810
     45  CE3       12.6990   55.4410   18.4170 C.ar  402  TRP402      0.0012
     46  CZ2       13.3190   56.8040   20.8190 C.ar  402  TRP402      0.0191
     47  CZ3       13.0160   54.7550   19.5770 C.ar  402  TRP402      0.0001
     48  CH2       13.3220   55.4380   20.7610 C.ar  402  TRP402      0.0015
     49  N         11.2470   60.4910   12.1530 N.3   414  THR414     -0.1203
     50  CA        10.9660   61.5620   13.1030 C.3   414  THR414      0.1994
     51  C         12.2540   62.0140   13.7820 C.2   414  THR414      0.2618
     52  O         13.0660   61.1860   14.1940 O.2   414  THR414     -0.2717
     53  CB         9.9640   61.1050   14.1770 C.3   414  THR414      0.1784
     54  OG1        8.7960   60.5660   13.5440 O.3   414  THR414     -0.2211
     55  CG2        9.5700   62.2700   15.0630 C.3   414  THR414      0.0376
     56  N         12.4420   63.3270   13.8850 N.am  415  ARG415     -0.1965
     57  CA        13.6410   63.8860   14.5070 C.3   415  ARG415      0.1729
     58  C         13.2980   64.9930   15.4890 C.2   415  ARG415      0.2617
     59  O         12.2810   65.6690   15.3530 O.2   415  ARG415     -0.2715
     60  CB        14.5860   64.4620   13.4550 C.3   415  ARG415      0.0348
     61  CG        14.7160   63.6550   12.1880 C.3   415  ARG415      0.0492
     62  CD        15.6170   64.3860   11.2160 C.3   415  ARG415      0.2205
     63  NE        15.6340   63.7630    9.8950 N.pl3 415  ARG415     -0.0865
     64  CZ        16.5940   62.9620    9.4400 C.cat 415  ARG415      0.5346
     65  NH1       17.6510   62.6650   10.1910 N.pl3 415  ARG415      0.1354
     66  NH2       16.4910   62.4590    8.2180 N.pl3 415  ARG415      0.1354
     67  N         14.1750   65.1810   16.4680 N.am  416  GLY416     -0.1940
     68  CA        14.0240   66.2380   17.4500 C.3   416  GLY416      0.2014
     69  C         15.3720   66.5990   18.0410 C.2   416  GLY416      0.2640
     70  O         16.1740   65.7160   18.3400 O.2   416  GLY416     -0.2714
     71  N         15.6210   67.8960   18.1970 N.am  417  THR417     -0.1936
     72  CA        16.8670   68.3840   18.7740 C.3   417  THR417      0.2028
     73  C         16.5880   69.4460   19.8310 C.2   417  THR417      0.2642
     74  O         15.7860   70.3560   19.6160 O.2   417  THR417     -0.2714
     75  CB        17.7870   68.9820   17.6900 C.3   417  THR417      0.1808
     76  OG1       18.0590   67.9920   16.6920 O.3   417  THR417     -0.2208
     77  CG2       19.1050   69.4630   18.2870 C.3   417  THR417      0.0379
     78  N         17.2580   69.3170   20.9730 N.am  418  LEU418     -0.1977
     79  CA        17.1730   70.3010   22.0450 C.3   418  LEU418      0.1596
     80  C         18.5690   70.7500   22.4460 C.2   418  LEU418      0.2287
     81  O         19.4900   69.9410   22.5350 O.2   418  LEU418     -0.2864
     82  CB        16.4660   69.7150   23.2690 C.3   418  LEU418      0.0297
     83  CG        15.0080   69.2910   23.1040 C.3   418  LEU418      0.0022
     84  CD1       14.5270   68.6270   24.3830 C.3   418  LEU418      0.0001
     85  CD2       14.1260   70.4760   22.7420 C.3   418  LEU418      0.0001
     86  N         15.3990   74.5290   19.7850 N.3   467  ILE467     -0.1231
     87  CA        14.3590   73.5130   19.7310 C.3   467  ILE467      0.1692
     88  C         13.9710   73.3270   18.2740 C.2   467  ILE467      0.2593
     89  O         13.5030   74.2640   17.6320 O.2   467  ILE467     -0.2718
     90  CB        13.0950   73.9290   20.5110 C.3   467  ILE467      0.0266
     91  CG1       13.4370   74.2680   21.9630 C.3   467  ILE467      0.0019
     92  CG2       12.0460   72.8140   20.4590 C.3   467  ILE467      0.0020
     93  CD1       12.2940   74.9090   22.7230 C.3   467  ILE467      0.0001
     94  N         14.1770   72.1240   17.7510 N.am  468  THR468     -0.1939
     95  CA        13.7800   71.8130   16.3830 C.3   468  THR468      0.2028
     96  C         13.2400   70.3960   16.3140 C.2   468  THR468      0.2643
     97  O         13.6020   69.5390   17.1210 O.2   468  THR468     -0.2714
     98  CB        14.9560   71.9500   15.3860 C.3   468  THR468      0.1808
     99  OG1       15.8760   70.8690   15.5730 O.3   468  THR468     -0.2208
    100  CG2       15.6790   73.2780   15.5700 C.3   468  THR468      0.0379
    101  N         12.3680   70.1570   15.3430 N.am  469  GLY469     -0.1939
    102  CA        11.7970   68.8430   15.1390 C.3   469  GLY469      0.2014
    103  C         11.3630   68.6730   13.7010 C.2   469  GLY469      0.2640
    104  O         11.2530   69.6470   12.9600 O.2   469  GLY469     -0.2714
    105  N         11.1200   67.4290   13.3060 N.am  470  SER470     -0.1935
    106  CA        10.7180   67.1360   11.9420 C.3   470  SER470      0.2055
    107  C          9.9020   65.8530   11.8760 C.2   470  SER470      0.2642
    108  O         10.2040   64.8750   12.5590 O.2   470  SER470     -0.2714
    109  CB        11.9510   67.0190   11.0410 C.3   470  SER470      0.2130
    110  OG        11.5990   66.5670    9.7440 O.3   470  SER470     -0.2179
    111  N          8.8570   65.8820   11.0540 N.am  471  LEU471     -0.1977
    112  CA         8.0700   64.7000   10.7330 C.3   471  LEU471      0.1596
    113  C          8.2100   64.4540    9.2410 C.2   471  LEU471      0.2287
    114  O          7.9490   65.3480    8.4360 O.2   471  LEU471     -0.2864
    115  CB         6.5950   64.9170   11.0780 C.3   471  LEU471      0.0297
    116  CG         6.2790   65.2950   12.5260 C.3   471  LEU471      0.0022
    117  CD1        4.8060   65.6440   12.6740 C.3   471  LEU471      0.0001
    118  CD2        6.6580   64.1660   13.4690 C.3   471  LEU471      0.0001
    119  N          7.6310   68.0130    7.1270 N.3   487  VAL487     -0.1245
    120  CA         7.4960   69.3340    7.7160 C.3   487  VAL487      0.1561
    121  C          8.5540   69.4710    8.8120 C.2   487  VAL487      0.2260
    122  O          8.6990   68.5900    9.6570 O.2   487  VAL487     -0.2867
    123  CB         6.0700   69.5650    8.2870 C.3   487  VAL487      0.0252
    124  CG1        5.6840   68.4650    9.2750 C.3   487  VAL487      0.0019
    125  CG2        5.9600   70.9420    8.9400 C.3   487  VAL487      0.0019
    126  N         10.0820   72.1430   11.8170 N.3   489  SER489     -0.1217
    127  CA         9.7900   73.3280   12.6050 C.3   489  SER489      0.1889
    128  C         10.7460   73.4380   13.7810 C.2   489  SER489      0.2288
    129  O         11.1900   72.4340   14.3340 O.2   489  SER489     -0.2866
    130  CB         8.3460   73.3020   13.1060 C.3   489  SER489      0.2089
    131  OG         7.9880   74.5510   13.6690 O.3   489  SER489     -0.2183
    132  N          8.6800   82.7820   22.0530 N.3   499  SER499     -0.1202
    133  CA         8.8020   81.8750   20.9200 C.3   499  SER499      0.2020
    134  C          8.9750   82.6130   19.5980 C.2   499  SER499      0.2619
    135  O          8.4830   83.7270   19.4230 O.2   499  SER499     -0.2717
    136  CB         7.5760   80.9630   20.8330 C.3   499  SER499      0.2103
    137  OG         7.5820   79.9890   21.8610 O.3   499  SER499     -0.2182
    138  N          9.6850   81.9770   18.6730 N.am  500  ASP500     -0.1959
    139  CA         9.8130   82.4820   17.3120 C.3   500  ASP500      0.1840
    140  C         10.0470   81.2980   16.3840 C.2   500  ASP500      0.2622
    141  O         11.0970   81.1820   15.7520 O.2   500  ASP500     -0.2715
    142  CB        10.9580   83.4930   17.2100 C.3   500  ASP500      0.1450
    143  CG        10.9660   84.2360   15.8880 C.2   500  ASP500      0.3671
    144  OD1        9.9220   84.2470   15.2010 O.co2 500  ASP500     -0.2456
    145  OD2       12.0150   84.8190   15.5390 O.co2 500  ASP500     -0.2456
    146  N          9.0570   80.4140   16.3170 N.am  501  PHE501     -0.1974
    147  CA         9.1750   79.1920   15.5350 C.3   501  PHE501      0.1639
    148  C          9.1150   79.4630   14.0390 C.2   501  PHE501      0.2290
    149  O          8.3050   80.2610   13.5680 O.2   501  PHE501     -0.2864
    150  CB         8.0920   78.1890   15.9360 C.3   501  PHE501      0.0560
    151  CG         8.3680   77.4990   17.2400 C.ar  501  PHE501     -0.0200
    152  CD1        9.1480   76.3550   17.2800 C.ar  501  PHE501     -0.0042
    153  CD2        7.8590   77.9980   18.4250 C.ar  501  PHE501     -0.0042
    154  CE1        9.4110   75.7210   18.4790 C.ar  501  PHE501     -0.0003
    155  CE2        8.1170   77.3690   19.6250 C.ar  501  PHE501     -0.0003
    156  CZ         8.8950   76.2290   19.6520 C.ar  501  PHE501     -0.0000
    157  N          8.9010   77.4420   10.2790 N.3   503  THR503     -0.1218
    158  CA         8.4260   76.1780    9.7350 C.3   503  THR503      0.1862
    159  C          8.7260   76.0750    8.2470 C.2   503  THR503      0.2287
    160  O          8.4680   77.0040    7.4810 O.2   503  THR503     -0.2866
    161  CB         6.9110   76.0050    9.9660 C.3   503  THR503      0.1770
    162  OG1        6.6370   76.0670   11.3710 O.3   503  THR503     -0.2211
    163  CG2        6.4180   74.6680    9.4130 C.3   503  THR503      0.0375
    164  N          7.2740   78.2790    5.4140 N.3   526  VAL526     -0.1231
    165  CA         5.8170   78.3600    5.5270 C.3   526  VAL526      0.1692
    166  C          5.3720   79.6110    6.2830 C.2   526  VAL526      0.2591
    167  O          5.8400   79.8740    7.3920 O.2   526  VAL526     -0.2718
    168  CB         5.2470   77.1170    6.2560 C.3   526  VAL526      0.0266
    169  CG1        3.7340   77.2370    6.4540 C.3   526  VAL526      0.0020
    170  CG2        5.5800   75.8500    5.4880 C.3   526  VAL526      0.0020
    171  N          4.4600   80.3670    5.6750 N.am  527  ALA527     -0.1980
    172  CA         3.8370   81.5240    6.3170 C.3   527  ALA527      0.1597
    173  C          4.8690   82.4950    6.8790 C.2   527  ALA527      0.2287
    174  O          4.8160   82.8600    8.0550 O.2   527  ALA527     -0.2864
    175  CB         2.8910   81.0620    7.4150 C.3   527  ALA527      0.0319
@<TRIPOS>BOND
     1   164   165    1
     2   170   168    1
     3   165   168    1
     4   165   166    1
     5   171   166   am
     6   171   172    1
     7   168   169    1
     8   166   167    2
     9   172   173    1
    10   172   175    1
    11   173   174    2
    12   119   120    1
    13   160   159    2
    14   120   123    1
    15   120   121    1
    16    66    64    1
    17   159   158    1
    18   123   125    1
    19   123   124    1
    20   114   113    2
    21   121   122    2
    22   113   112    1
    23   163   161    1
    24    64    63    2
    25    64    65    1
    26   158   161    1
    27   158   157    1
    28   110   109    1
    29    63    62    1
    30   161   162    1
    31   112   111    1
    32   112   115    1
    33   109   106    1
    34   111   107   am
    35   115   116    1
    36    62    61    1
    37   126   127    1
    38   107   106    1
    39   107   108    2
    40   106   105    1
    41    49    50    1
    42    61    60    1
    43   116   117    1
    44   116   118    1
    45   127   130    1
    46   127   128    1
    47   104   103    2
    48    38    37    2
    49    50    51    1
    50    50    53    1
    51   130   131    1
    52   105   103   am
    53    60    57    1
    54    54    53    1
    55   149   148    2
    56    37    36    1
    57   103   102    1
    58   128   129    2
    59    51    56   am
    60    51    52    2
    61    56    57    1
    62   148   147    1
    63    53    55    1
    64    57    58    1
    65    35    36    1
    66    36    39    1
    67   102   101    1
    68   144   143   ar
    69   101    96   am
    70    59    58    2
    71    98   100    1
    72    98    99    1
    73    98    95    1
    74    58    67   am
    75   147   150    1
    76   147   146    1
    77   145   143   ar
    78   141   140    2
    79   143   142    1
    80   150   151    1
    81    39    40    1
    82    96    95    1
    83    96    97    2
    84   146   140   am
    85    95    94    1
    86   140   139    1
    87    67    68    1
    88    30    29    2
    89    76    75    1
    90    29    28    1
    91   142   139    1
    92   151   152   ar
    93   151   153   ar
    94   152   154   ar
    95   139   138    1
    96    68    69    1
    97    40    41   ar
    98    40    42   ar
    99    26    24   am
   100    89    88    2
   101    75    77    1
   102    75    72    1
   103    94    88   am
   104    69    71   am
   105    69    70    2
   106    25    24    2
   107    41    43   ar
   108    24    23    1
   109    71    72    1
   110    88    87    1
   111    45    42   ar
   112    45    47   ar
   113   153   155   ar
   114    42    44   ar
   115   154   156   ar
   116   138   134   am
   117    28    27    1
   118    28    31    1
   119    72    73    1
   120    27    20   am
   121    23    22    1
   122    22    19    1
   123    31    32    1
   124    43    44   ar
   125   135   134    2
   126    47    48   ar
   127   134   133    1
   128    74    73    2
   129   155   156   ar
   130    44    46   ar
   131    87    86    1
   132    87    90    1
   133    20    19    1
   134    20    21    2
   135    73    78   am
   136    19    18    1
   137    92    90    1
   138    90    91    1
   139    32    33    2
   140    32    34   am
   141    48    46   ar
   142   136   133    1
   143   136   137    1
   144   133   132    1
   145    78    79    1
   146    18    15   am
   147    16    15    2
   148    91    93    1
   149    15    14    1
   150    79    80    1
   151    79    82    1
   152    80    81    2
   153    85    83    1
   154    83    82    1
   155    83    84    1
   156    14    13    1
   157    14    17    1
   158     1     2    1
   159    12    11    1
   160    11     9   ar
   161    11    10   ar
   162     9     7   ar
   163     2     3    1
   164     2     5    1
   165    10     8   ar
   166     7     6   ar
   167     8     6   ar
   168     3     4    2
   169     6     5    1
