@<TRIPOS>MOLECULE
tmp/4c00A06.pdb
 137 130 0 0 0
SMALL
GASTEIGER

@<TRIPOS>ATOM
      1  N         39.8720   54.4700    2.4490 N.3   235  ILE235     -0.1245
      2  CA        39.5300   55.8490    2.1260 C.3   235  ILE235      0.1561
      3  C         38.1270   55.9300    1.5350 C.2   235  ILE235      0.2260
      4  O         37.8700   55.4100    0.4500 O.2   235  ILE235     -0.2867
      5  CB        40.5460   56.4560    1.1340 C.3   235  ILE235      0.0252
      6  CG1       41.9280   56.5470    1.7840 C.3   235  ILE235      0.0019
      7  CG2       40.1070   57.8510    0.6850 C.3   235  ILE235      0.0019
      8  CD1       43.0690   56.6070    0.7980 C.3   235  ILE235      0.0001
      9  N         35.0690   58.6660    0.3840 N.3   237  THR237     -0.1218
     10  CA        34.7390   60.0430    0.0470 C.3   237  THR237      0.1862
     11  C         33.2300   60.1820   -0.0710 C.2   237  THR237      0.2287
     12  O         32.5060   59.1890   -0.1360 O.2   237  THR237     -0.2866
     13  CB        35.3810   60.4810   -1.2810 C.3   237  THR237      0.1770
     14  OG1       34.9260   59.6300   -2.3410 O.3   237  THR237     -0.2211
     15  CG2       36.8990   60.4180   -1.1900 C.3   237  THR237      0.0375
     16  N         28.2460   73.1310   -3.0730 N.3   247  PRO247     -0.2116
     17  CA        28.7840   71.7720   -2.9830 C.3   247  PRO247      0.1372
     18  C         29.5110   71.5300   -1.6670 C.2   247  PRO247      0.2244
     19  O         30.0570   72.4620   -1.0760 O.2   247  PRO247     -0.2868
     20  CB        29.7580   71.6970   -4.1650 C.3   247  PRO247      0.0268
     21  CG        30.1000   73.1100   -4.4780 C.3   247  PRO247      0.0207
     22  CD        28.8780   73.9070   -4.1540 C.3   247  PRO247      0.0892
     23  N         32.0350   68.4080    0.3100 N.3   249  VAL249     -0.1245
     24  CA        32.7960   67.1770    0.1540 C.3   249  VAL249      0.1561
     25  C         33.3080   66.7070    1.5040 C.2   249  VAL249      0.2260
     26  O         33.7990   67.5010    2.3060 O.2   249  VAL249     -0.2867
     27  CB        33.9760   67.3710   -0.8270 C.3   249  VAL249      0.0252
     28  CG1       34.9220   66.1740   -0.7950 C.3   249  VAL249      0.0019
     29  CG2       33.4520   67.5890   -2.2350 C.3   249  VAL249      0.0019
     30  N         35.6950   63.4440    3.3120 N.3   251  ALA251     -0.1231
     31  CA        36.5940   62.3250    3.0840 C.3   251  ALA251      0.1694
     32  C         37.1720   61.8430    4.4010 C.2   251  ALA251      0.2593
     33  O         37.5240   62.6430    5.2660 O.2   251  ALA251     -0.2718
     34  CB        37.7050   62.7180    2.1310 C.3   251  ALA251      0.0304
     35  N         37.2600   60.5260    4.5440 N.am  252  THR252     -0.1939
     36  CA        37.8330   59.9170    5.7340 C.3   252  THR252      0.2028
     37  C         38.8940   58.9040    5.3380 C.2   252  THR252      0.2642
     38  O         38.7010   58.1150    4.4150 O.2   252  THR252     -0.2714
     39  CB        36.7650   59.2050    6.5820 C.3   252  THR252      0.1808
     40  OG1       36.2090   58.1140    5.8390 O.3   252  THR252     -0.2208
     41  CG2       35.6560   60.1710    6.9790 C.3   252  THR252      0.0379
     42  N         40.0180   58.9480    6.0420 N.am  253  TRP253     -0.1973
     43  CA        41.1020   58.0030    5.8490 C.3   253  TRP253      0.1640
     44  C         41.2840   57.2190    7.1420 C.2   253  TRP253      0.2290
     45  O         41.7310   57.7630    8.1520 O.2   253  TRP253     -0.2864
     46  CB        42.3760   58.7580    5.4760 C.3   253  TRP253      0.0576
     47  CG        43.6170   57.9320    5.4310 C.ar  253  TRP253      0.0006
     48  CD1       43.7130   56.5700    5.4580 C.ar  253  TRP253      0.0946
     49  CD2       44.9520   58.4270    5.3510 C.ar  253  TRP253      0.0152
     50  NE1       45.0310   56.1900    5.4000 N.ar  253  TRP253     -0.2442
     51  CE2       45.8120   57.3130    5.3330 C.ar  253  TRP253      0.0810
     52  CE3       45.5050   59.7080    5.2920 C.ar  253  TRP253      0.0012
     53  CZ2       47.1930   57.4430    5.2580 C.ar  253  TRP253      0.0191
     54  CZ3       46.8720   59.8350    5.2140 C.ar  253  TRP253      0.0001
     55  CH2       47.7050   58.7090    5.2010 C.ar  253  TRP253      0.0015
     56  N         41.5390   59.9280   10.1140 N.3   267  THR267     -0.1203
     57  CA        41.6950   61.3130    9.6890 C.3   267  THR267      0.1994
     58  C         40.5120   61.6680    8.7990 C.2   267  THR267      0.2619
     59  O         40.1600   60.9130    7.8930 O.2   267  THR267     -0.2717
     60  CB        43.0060   61.5310    8.9090 C.3   267  THR267      0.1784
     61  OG1       44.1080   61.0100    9.6620 O.3   267  THR267     -0.2211
     62  CG2       43.2290   63.0150    8.6430 C.3   267  THR267      0.0376
     63  N         39.8990   62.8160    9.0650 N.am  268  SER268     -0.1937
     64  CA        38.6820   63.2130    8.3680 C.3   268  SER268      0.2055
     65  C         38.7190   64.6830    7.9910 C.2   268  SER268      0.2643
     66  O         39.3400   65.4970    8.6740 O.2   268  SER268     -0.2714
     67  CB        37.4600   62.9490    9.2530 C.3   268  SER268      0.2130
     68  OG        37.4420   61.6070    9.7040 O.3   268  SER268     -0.2179
     69  N         38.0460   65.0140    6.8960 N.am  269  THR269     -0.1950
     70  CA        37.8880   66.3990    6.4840 C.3   269  THR269      0.1897
     71  C         36.5150   66.6030    5.8570 C.2   269  THR269      0.2313
     72  O         35.9830   65.7130    5.1980 O.2   269  THR269     -0.2863
     73  CB        38.9860   66.8300    5.4830 C.3   269  THR269      0.1794
     74  OG1       38.8400   68.2230    5.1790 O.3   269  THR269     -0.2208
     75  CG2       38.9090   66.0150    4.1940 C.3   269  THR269      0.0378
     76  N         34.6100   69.6900    3.6000 N.3   271  ILE271     -0.1231
     77  CA        34.8870   70.9280    2.8810 C.3   271  ILE271      0.1692
     78  C         33.6540   71.4570    2.1700 C.2   271  ILE271      0.2593
     79  O         33.0350   70.7630    1.3650 O.2   271  ILE271     -0.2718
     80  CB        35.9930   70.7320    1.8170 C.3   271  ILE271      0.0266
     81  CG1       37.2490   70.1230    2.4450 C.3   271  ILE271      0.0019
     82  CG2       36.3200   72.0590    1.1220 C.3   271  ILE271      0.0020
     83  CD1       37.8850   70.9690    3.5400 C.3   271  ILE271      0.0001
     84  N         33.3200   72.7050    2.4750 N.am  272  SER272     -0.1938
     85  CA        32.3070   73.4490    1.7450 C.3   272  SER272      0.2055
     86  C         32.7550   74.9010    1.7260 C.2   272  SER272      0.2643
     87  O         33.7190   75.2590    2.4000 O.2   272  SER272     -0.2714
     88  CB        30.9450   73.3240    2.4240 C.3   272  SER272      0.2130
     89  OG        30.9420   73.9800    3.6780 O.3   272  SER272     -0.2179
     90  N         32.0670   75.7370    0.9580 N.am  273  ALA273     -0.1963
     91  CA        32.4220   77.1510    0.8850 C.3   273  ALA273      0.1713
     92  C         32.4300   77.8430    2.2600 C.2   273  ALA273      0.2458
     93  O         33.4130   78.4930    2.6150 O.2   273  ALA273     -0.2730
     94  CB        31.5100   77.8890   -0.1040 C.3   273  ALA273      0.0333
     95  N         31.3460   77.6990    3.0440 N.am  274  PRO274     -0.2727
     96  CA        31.2950   78.4020    4.3320 C.3   274  PRO274      0.1402
     97  C         32.0330   77.7240    5.4920 C.2   274  PRO274      0.2269
     98  O         32.3600   78.4100    6.4610 O.2   274  PRO274     -0.2865
     99  CB        29.7940   78.4490    4.6380 C.3   274  PRO274      0.0296
    100  CG        29.2470   77.2480    3.9770 C.3   274  PRO274      0.0237
    101  CD        30.0510   77.0720    2.7180 C.3   274  PRO274      0.0939
    102  N         35.0450   74.6070    6.7730 N.3   276  GLN276     -0.1245
    103  CA        36.0590   73.5900    6.5380 C.3   276  GLN276      0.1566
    104  C         36.5690   73.0340    7.8570 C.2   276  GLN276      0.2260
    105  O         36.8630   73.7870    8.7850 O.2   276  GLN276     -0.2867
    106  CB        37.2280   74.1620    5.7400 C.3   276  GLN276      0.0367
    107  CG        36.8130   74.8420    4.4550 C.3   276  GLN276      0.0905
    108  CD        36.4170   76.2890    4.6470 C.2   276  GLN276      0.2608
    109  OE1       37.0590   77.0260    5.3940 O.2   276  GLN276     -0.2717
    110  NE2       35.3550   76.7050    3.9680 N.am  276  GLN276     -0.0878
    111  N         39.1250   69.7770    9.6960 N.3   278  LEU278     -0.1245
    112  CA        40.1030   68.7090    9.5980 C.3   278  LEU278      0.1561
    113  C         40.2340   68.1020   10.9840 C.2   278  LEU278      0.2260
    114  O         40.4890   68.8140   11.9520 O.2   278  LEU278     -0.2867
    115  CB        41.4530   69.2500    9.1260 C.3   278  LEU278      0.0270
    116  CG        42.5990   68.2370    9.0820 C.3   278  LEU278      0.0019
    117  CD1       42.3150   67.1620    8.0540 C.3   278  LEU278      0.0001
    118  CD2       43.9170   68.9320    8.7810 C.3   278  LEU278      0.0001
    119  N         37.4230   76.1050   10.3340 N.3   303  ARG303     -0.1245
    120  CA        37.2950   77.4830    9.8860 C.3   303  ARG303      0.1563
    121  C         35.8800   77.7160    9.3840 C.2   303  ARG303      0.2260
    122  O         35.3570   76.9360    8.5890 O.2   303  ARG303     -0.2867
    123  CB        38.3090   77.8020    8.7850 C.3   303  ARG303      0.0307
    124  CG        38.0680   79.1430    8.0980 C.3   303  ARG303      0.0489
    125  CD        39.3740   79.8330    7.7420 C.3   303  ARG303      0.2205
    126  NE        40.3570   78.8900    7.2080 N.pl3 303  ARG303     -0.0865
    127  CZ        41.6580   78.9050    7.4880 C.cat 303  ARG303      0.5346
    128  NH1       42.1730   79.8190    8.3030 N.pl3 303  ARG303      0.1354
    129  NH2       42.4530   77.9950    6.9470 N.pl3 303  ARG303      0.1354
    130  N         33.2610   80.7130    7.7330 N.3   305  ASP305     -0.1239
    131  CA        33.0210   82.0100    7.1220 C.3   305  ASP305      0.1674
    132  C         31.5960   81.9600    6.5860 C.2   305  ASP305      0.2266
    133  O         31.3610   81.5950    5.4350 O.2   305  ASP305     -0.2867
    134  CB        34.0280   82.2750    6.0020 C.3   305  ASP305      0.1410
    135  CG        33.9660   83.7020    5.4820 C.2   305  ASP305      0.3668
    136  OD1       32.9450   84.3850    5.7120 O.co2 305  ASP305     -0.2456
    137  OD2       34.9410   84.1420    4.8380 O.co2 305  ASP305     -0.2456
@<TRIPOS>BOND
     1    21    20    1
     2    21    22    1
     3    20    17    1
     4    22    16    1
     5    16    17    1
     6    17    18    1
     7    14    13    1
     8    29    27    1
     9    18    19    2
    10    13    15    1
    11    13    10    1
    12    27    28    1
    13    27    24    1
    14    12    11    2
    15    94    91    1
    16    11    10    1
    17    10     9    1
    18    24    23    1
    19    24    25    1
    20     4     3    2
    21     7     5    1
    22     8     6    1
    23    91    90    1
    24    91    92    1
    25    90    86   am
    26    82    80    1
    27     5     6    1
    28     5     2    1
    29    79    78    2
    30    25    26    2
    31     3     2    1
    32    86    85    1
    33    86    87    2
    34    85    88    1
    35    85    84    1
    36    80    81    1
    37    80    77    1
    38     2     1    1
    39    34    31    1
    40    78    84   am
    41    78    77    1
    42    92    93    2
    43    92    95   am
    44    88    89    1
    45    81    83    1
    46   101    95    1
    47   101   100    1
    48    77    76    1
    49    95    96    1
    50    31    30    1
    51    31    32    1
    52   110   108   am
    53   100    99    1
    54    75    73    1
    55    96    99    1
    56    96    97    1
    57    32    35   am
    58    32    33    2
    59    38    37    2
    60   107   108    1
    61   107   106    1
    62    35    36    1
    63   108   109    2
    64   137   135   ar
    65    74    73    1
    66    72    71    2
    67    55    54   ar
    68    55    53   ar
    69    54    52   ar
    70    53    51   ar
    71    52    49   ar
    72    51    49   ar
    73    51    50   ar
    74    37    36    1
    75    37    42   am
    76    49    47   ar
    77    50    48   ar
    78    47    48   ar
    79    47    46    1
    80   133   132    2
    81    46    43    1
    82   135   136   ar
    83   135   134    1
    84    73    70    1
    85    97    98    2
    86    36    39    1
    87   106   103    1
    88    40    39    1
    89    43    42    1
    90    43    44    1
    91    71    70    1
    92   134   131    1
    93    70    69    1
    94   103   102    1
    95   103   104    1
    96    39    41    1
    97   132   131    1
    98    69    65   am
    99   129   127    1
   100   131   130    1
   101    44    45    2
   102   126   127    2
   103   126   125    1
   104   127   128    1
   105   125   124    1
   106   104   105    2
   107    59    58    2
   108    65    64    1
   109    65    66    2
   110   117   116    1
   111   124   123    1
   112    64    63    1
   113    64    67    1
   114   122   121    2
   115    62    60    1
   116   118   116    1
   117   123   120    1
   118    58    63   am
   119    58    57    1
   120    60    61    1
   121    60    57    1
   122   116   115    1
   123   115   112    1
   124    67    68    1
   125   121   120    1
   126   112   111    1
   127   112   113    1
   128    57    56    1
   129   120   119    1
   130   113   114    2
