@<TRIPOS>MOLECULE
tmp/4c00A07.pdb
 133 128 0 0 0
SMALL
GASTEIGER

@<TRIPOS>ATOM
      1  N         48.2370   41.5230   19.4320 N.3   169  ARG169     -0.1245
      2  CA        48.7330   40.6780   20.5160 C.3   169  ARG169      0.1563
      3  C         47.6230   39.7890   21.0720 C.2   169  ARG169      0.2260
      4  O         46.4780   40.2190   21.2160 O.2   169  ARG169     -0.2867
      5  CB        49.3420   41.5350   21.6260 C.3   169  ARG169      0.0307
      6  CG        50.6500   42.2000   21.2270 C.3   169  ARG169      0.0489
      7  CD        51.1100   43.1970   22.2750 C.3   169  ARG169      0.2205
      8  NE        51.4350   42.5430   23.5410 N.pl3 169  ARG169     -0.0865
      9  CZ        52.6470   42.1200   23.8920 C.cat 169  ARG169      0.5346
     10  NH1       53.6870   42.2770   23.0810 N.pl3 169  ARG169      0.1354
     11  NH2       52.8170   41.5370   25.0710 N.pl3 169  ARG169      0.1354
     12  N         47.0860   50.3900   13.9880 N.3   258  MET258     -0.1230
     13  CA        48.3380   51.1360   13.9070 C.3   258  MET258      0.1702
     14  C         49.4910   50.3400   14.4940 C.2   258  MET258      0.2592
     15  O         50.6540   50.6760   14.2900 O.2   258  MET258     -0.2718
     16  CB        48.2090   52.4490   14.6770 C.3   258  MET258      0.0401
     17  CG        47.2730   53.4540   14.0340 C.3   258  MET258      0.0596
     18  SD        47.9530   54.1650   12.5230 S.3   258  MET258     -0.1393
     19  CE        49.2920   55.1570   13.1790 C.3   258  MET258      0.0692
     20  N         49.1620   49.2940   15.2400 N.am  259  ASN259     -0.1960
     21  CA        50.1690   48.4960   15.9180 C.3   259  ASN259      0.1819
     22  C         49.5540   47.2390   16.5180 C.2   259  ASN259      0.2622
     23  O         48.3510   47.0020   16.3950 O.2   259  ASN259     -0.2715
     24  CB        50.8700   49.3210   17.0060 C.3   259  ASN259      0.1195
     25  CG        49.8950   49.9590   17.9810 C.2   259  ASN259      0.2630
     26  OD1       48.9890   49.3040   18.4950 O.2   259  ASN259     -0.2716
     27  ND2       50.0780   51.2490   18.2360 N.am  259  ASN259     -0.0877
     28  N         50.3870   46.4400   17.1740 N.am  260  SER260     -0.1936
     29  CA        49.9580   45.1610   17.7190 C.3   260  SER260      0.2055
     30  C         49.1230   45.3290   18.9890 C.2   260  SER260      0.2643
     31  O         48.5930   44.3520   19.5180 O.2   260  SER260     -0.2714
     32  CB        51.1740   44.2780   18.0070 C.3   260  SER260      0.2130
     33  OG        52.0000   44.8570   19.0010 O.3   260  SER260     -0.2179
     34  N         49.0100   46.5660   19.4710 N.am  261  TYR261     -0.1973
     35  CA        48.1690   46.8690   20.6280 C.3   261  TYR261      0.1639
     36  C         46.7540   47.2580   20.2010 C.2   261  TYR261      0.2290
     37  O         45.9040   47.5630   21.0360 O.2   261  TYR261     -0.2864
     38  CB        48.7980   47.9780   21.4770 C.3   261  TYR261      0.0560
     39  CG        50.1240   47.5770   22.0810 C.ar  261  TYR261     -0.0198
     40  CD1       50.1750   46.7110   23.1670 C.ar  261  TYR261     -0.0009
     41  CD2       51.3210   48.0510   21.5630 C.ar  261  TYR261     -0.0009
     42  CE1       51.3770   46.3310   23.7210 C.ar  261  TYR261      0.0417
     43  CE2       52.5330   47.6770   22.1130 C.ar  261  TYR261      0.0417
     44  CZ        52.5540   46.8160   23.1920 C.ar  261  TYR261      0.1957
     45  OH        53.7530   46.4390   23.7460 O.3   261  TYR261     -0.2866
     46  N         45.6370   49.8130   18.4610 N.3   263  HIS263     -0.1241
     47  CA        45.3020   51.2220   18.3150 C.3   263  HIS263      0.1621
     48  C         44.8440   51.4640   16.8850 C.2   263  HIS263      0.2264
     49  O         45.2370   50.7370   15.9770 O.2   263  HIS263     -0.2867
     50  CB        46.5100   52.1070   18.6190 C.3   263  HIS263      0.0745
     51  CG        47.0190   51.9810   20.0190 C.ar  263  HIS263      0.0817
     52  ND1       48.1860   52.5820   20.4440 N.ar  263  HIS263     -0.2268
     53  CD2       46.5220   51.3280   21.0960 C.ar  263  HIS263      0.1154
     54  CE1       48.3880   52.2990   21.7160 C.ar  263  HIS263      0.1986
     55  NE2       47.3910   51.5400   22.1380 N.ar  263  HIS263     -0.2212
     56  N         43.5990   54.8110   13.9480 N.3   265  LEU265     -0.1245
     57  CA        43.6400   56.2320   13.6320 C.3   265  LEU265      0.1561
     58  C         42.6640   56.5460   12.5050 C.2   265  LEU265      0.2260
     59  O         42.5790   55.8110   11.5210 O.2   265  LEU265     -0.2867
     60  CB        45.0590   56.6410   13.2240 C.3   265  LEU265      0.0270
     61  CG        45.2600   58.0710   12.7070 C.3   265  LEU265      0.0019
     62  CD1       45.0780   59.0950   13.8190 C.3   265  LEU265      0.0001
     63  CD2       46.6290   58.2080   12.0630 C.3   265  LEU265      0.0001
     64  N         41.4550   64.5470   13.5240 N.3   280  PHE280     -0.1241
     65  CA        42.1700   63.3020   13.7470 C.3   280  PHE280      0.1605
     66  C         41.5700   62.6340   14.9760 C.2   280  PHE280      0.2264
     67  O         41.2160   63.3070   15.9430 O.2   280  PHE280     -0.2867
     68  CB        43.6620   63.5670   13.9570 C.3   280  PHE280      0.0534
     69  CG        44.3170   64.2790   12.8060 C.ar  280  PHE280     -0.0203
     70  CD1       44.2760   65.6610   12.7150 C.ar  280  PHE280     -0.0042
     71  CD2       44.9730   63.5670   11.8160 C.ar  280  PHE280     -0.0042
     72  CE1       44.8760   66.3200   11.6590 C.ar  280  PHE280     -0.0003
     73  CE2       45.5760   64.2200   10.7560 C.ar  280  PHE280     -0.0003
     74  CZ        45.5270   65.5990   10.6770 C.ar  280  PHE280     -0.0000
     75  N         42.4170   59.2420   17.4350 N.3   282  TYR282     -0.1241
     76  CA        43.2900   58.1320   17.7890 C.3   282  TYR282      0.1605
     77  C         42.6610   57.3290   18.9290 C.2   282  TYR282      0.2264
     78  O         42.3800   57.8720   19.9950 O.2   282  TYR282     -0.2867
     79  CB        44.6690   58.6590   18.1910 C.3   282  TYR282      0.0534
     80  CG        45.7260   57.5870   18.2790 C.ar  282  TYR282     -0.0201
     81  CD1       46.3340   57.0890   17.1330 C.ar  282  TYR282     -0.0009
     82  CD2       46.1190   57.0740   19.5060 C.ar  282  TYR282     -0.0009
     83  CE1       47.3030   56.1060   17.2090 C.ar  282  TYR282      0.0417
     84  CE2       47.0870   56.0920   19.5930 C.ar  282  TYR282      0.0417
     85  CZ        47.6760   55.6130   18.4440 C.ar  282  TYR282      0.1957
     86  OH        48.6380   54.6360   18.5370 O.3   282  TYR282     -0.2866
     87  N         42.4870   53.9090   21.5240 N.3   284  MET284     -0.1245
     88  CA        43.3290   52.9690   22.2590 C.3   284  MET284      0.1570
     89  C         42.4750   52.0540   23.1390 C.2   284  MET284      0.2261
     90  O         42.0900   52.4340   24.2450 O.2   284  MET284     -0.2867
     91  CB        44.3430   53.7340   23.1170 C.3   284  MET284      0.0387
     92  CG        45.2380   54.6720   22.3120 C.3   284  MET284      0.0595
     93  SD        46.1620   55.8390   23.3280 S.3   284  MET284     -0.1393
     94  CE        47.5830   54.8580   23.7920 C.3   284  MET284      0.0692
     95  N         41.5960   60.0050   21.7910 N.3   297  VAL297     -0.1231
     96  CA        42.2840   61.2880   21.7500 C.3   297  VAL297      0.1692
     97  C         42.0230   61.9040   20.3850 C.2   297  VAL297      0.2592
     98  O         42.4170   61.3490   19.3590 O.2   297  VAL297     -0.2718
     99  CB        43.8000   61.1410   21.9880 C.3   297  VAL297      0.0266
    100  CG1       44.4810   62.5030   21.9500 C.3   297  VAL297      0.0020
    101  CG2       44.0600   60.4530   23.3200 C.3   297  VAL297      0.0020
    102  N         41.3430   63.0460   20.3840 N.am  298  GLN298     -0.1966
    103  CA        40.9550   63.7080   19.1470 C.3   298  GLN298      0.1733
    104  C         41.5110   65.1210   19.0910 C.2   298  GLN298      0.2616
    105  O         41.6070   65.8080   20.1060 O.2   298  GLN298     -0.2715
    106  CB        39.4310   63.7410   19.0160 C.3   298  GLN298      0.0408
    107  CG        38.7640   62.3970   19.2550 C.3   298  GLN298      0.0908
    108  CD        37.2570   62.4650   19.1270 C.2   298  GLN298      0.2608
    109  OE1       36.5940   63.2080   19.8500 O.2   298  GLN298     -0.2717
    110  NE2       36.7070   61.6890   18.2000 N.am  298  GLN298     -0.0878
    111  N         41.8840   65.5390   17.8880 N.am  299  GLY299     -0.1955
    112  CA        42.3540   66.8860   17.6440 C.3   299  GLY299      0.1869
    113  C         41.7400   67.3830   16.3550 C.2   299  GLY299      0.2309
    114  O         41.6320   66.6310   15.3880 O.2   299  GLY299     -0.2863
    115  N         40.7180   71.0140   13.6500 N.3   301  PHE301     -0.1241
    116  CA        40.8100   72.3950   13.2120 C.3   301  PHE301      0.1605
    117  C         39.5390   72.7060   12.4490 C.2   301  PHE301      0.2264
    118  O         39.0510   71.8650   11.6950 O.2   301  PHE301     -0.2867
    119  CB        42.0130   72.5960   12.2900 C.3   301  PHE301      0.0534
    120  CG        43.3220   72.1640   12.8880 C.ar  301  PHE301     -0.0203
    121  CD1       43.6740   70.8240   12.9250 C.ar  301  PHE301     -0.0042
    122  CD2       44.2020   73.0990   13.4060 C.ar  301  PHE301     -0.0042
    123  CE1       44.8800   70.4250   13.4740 C.ar  301  PHE301     -0.0003
    124  CE2       45.4090   72.7060   13.9530 C.ar  301  PHE301     -0.0003
    125  CZ        45.7480   71.3680   13.9870 C.ar  301  PHE301     -0.0000
    126  N         41.3140   70.0360   21.2280 N.3   316  LEU316     -0.1245
    127  CA        41.8520   68.7400   21.6060 C.3   316  LEU316      0.1561
    128  C         40.9010   68.1190   22.6150 C.2   316  LEU316      0.2260
    129  O         40.3490   68.8170   23.4650 O.2   316  LEU316     -0.2867
    130  CB        43.2470   68.8850   22.2150 C.3   316  LEU316      0.0270
    131  CG        44.3750   69.2520   21.2490 C.3   316  LEU316      0.0019
    132  CD1       45.6450   69.5800   22.0170 C.3   316  LEU316      0.0001
    133  CD2       44.6260   68.1260   20.2580 C.3   316  LEU316      0.0001
@<TRIPOS>BOND
     1    74    73   ar
     2    74    72   ar
     3    73    71   ar
     4    59    58    2
     5    72    70   ar
     6   118   117    2
     7    71    69   ar
     8    63    61    1
     9   119   120    1
    10   119   116    1
    11   117   116    1
    12    58    57    1
    13    18    19    1
    14    18    17    1
    15    61    60    1
    16    61    62    1
    17    70    69   ar
    18    69    68    1
    19   120   121   ar
    20   120   122   ar
    21   121   123   ar
    22   116   115    1
    23    60    57    1
    24   122   124   ar
    25   123   125   ar
    26    64    65    1
    27    57    56    1
    28    65    68    1
    29    65    66    1
    30    13    12    1
    31    13    14    1
    32    13    16    1
    33   124   125   ar
    34    17    16    1
    35    15    14    2
    36    14    20   am
    37    66    67    2
    38    20    21    1
    39   114   113    2
    40    21    22    1
    41    21    24    1
    42    49    48    2
    43   113   112    1
    44    23    22    2
    45    22    28   am
    46    48    47    1
    47    24    25    1
    48    81    83   ar
    49    81    80   ar
    50    28    29    1
    51    83    85   ar
    52    75    76    1
    53   112   111    1
    54    29    32    1
    55    29    30    1
    56    76    79    1
    57    76    77    1
    58   111   104   am
    59    25    27   am
    60    25    26    2
    61    32    33    1
    62    79    80    1
    63   110   108   am
    64    80    82   ar
    65    47    46    1
    66    47    50    1
    67    85    86    1
    68    85    84   ar
    69    50    51    1
    70    77    78    2
    71    30    34   am
    72    30    31    2
    73   106   103    1
    74   106   107    1
    75   104   103    1
    76   104   105    2
    77   108   107    1
    78   108   109    2
    79   103   102    1
    80    98    97    2
    81     1     2    1
    82    34    35    1
    83    82    84   ar
    84    51    52   ar
    85    51    53   ar
    86    36    35    1
    87    36    37    2
    88   133   131    1
    89   102    97   am
    90    97    96    1
    91    52    54   ar
    92     2     3    1
    93     2     5    1
    94    35    38    1
    95     3     4    2
    96    53    55   ar
    97     6     5    1
    98     6     7    1
    99   126   127    1
   100   131   132    1
   101   131   130    1
   102    38    39    1
   103    87    88    1
   104    41    39   ar
   105    41    43   ar
   106   127   130    1
   107   127   128    1
   108    54    55   ar
   109    96    95    1
   110    96    99    1
   111   100    99    1
   112    99   101    1
   113    39    40   ar
   114    43    44   ar
   115    88    91    1
   116    88    89    1
   117     7     8    1
   118    92    91    1
   119    92    93    1
   120   128   129    2
   121    10     9    1
   122    89    90    2
   123    40    42   ar
   124    44    42   ar
   125    44    45    1
   126    93    94    1
   127     8     9    2
   128     9    11    1
