@<TRIPOS>MOLECULE
tmp/4c00A02.pdb
 96 94 0 0 0
SMALL
GASTEIGER

@<TRIPOS>ATOM
      1  N         48.2370   41.5230   19.4320 N.3   169  ARG169     -0.1245
      2  CA        48.7330   40.6780   20.5160 C.3   169  ARG169      0.1563
      3  C         47.6230   39.7890   21.0720 C.2   169  ARG169      0.2260
      4  O         46.4780   40.2190   21.2160 O.2   169  ARG169     -0.2867
      5  CB        49.3420   41.5350   21.6260 C.3   169  ARG169      0.0307
      6  CG        50.6500   42.2000   21.2270 C.3   169  ARG169      0.0489
      7  CD        51.1100   43.1970   22.2750 C.3   169  ARG169      0.2205
      8  NE        51.4350   42.5430   23.5410 N.pl3 169  ARG169     -0.0865
      9  CZ        52.6470   42.1200   23.8920 C.cat 169  ARG169      0.5346
     10  NH1       53.6870   42.2770   23.0810 N.pl3 169  ARG169      0.1354
     11  NH2       52.8170   41.5370   25.0710 N.pl3 169  ARG169      0.1354
     12  N         46.7170   38.5030   23.9050 N.3   171  GLU171     -0.1231
     13  CA        45.9980   38.7750   25.1490 C.3   171  GLU171      0.1699
     14  C         44.7170   39.5760   24.9100 C.2   171  GLU171      0.2592
     15  O         43.7390   39.4260   25.6420 O.2   171  GLU171     -0.2718
     16  CB        46.8930   39.5010   26.1590 C.3   171  GLU171      0.0402
     17  CG        47.4630   40.8300   25.6780 C.3   171  GLU171      0.1161
     18  CD        48.8710   40.7110   25.1200 C.2   171  GLU171      0.3649
     19  OE1       49.2580   39.6120   24.6620 O.co2 171  GLU171     -0.2457
     20  OE2       49.5970   41.7260   25.1480 O.co2 171  GLU171     -0.2457
     21  N         44.7270   40.4230   23.8860 N.am  172  TYR172     -0.1976
     22  CA        43.5430   41.1990   23.5360 C.3   172  TYR172      0.1639
     23  C         42.4360   40.2800   23.0390 C.2   172  TYR172      0.2290
     24  O         41.2670   40.4680   23.3690 O.2   172  TYR172     -0.2864
     25  CB        43.8770   42.2480   22.4740 C.3   172  TYR172      0.0560
     26  CG        44.6980   43.4010   23.0050 C.ar  172  TYR172     -0.0198
     27  CD1       46.0850   43.3520   23.0070 C.ar  172  TYR172     -0.0009
     28  CD2       44.0830   44.5360   23.5140 C.ar  172  TYR172     -0.0009
     29  CE1       46.8360   44.4070   23.5010 C.ar  172  TYR172      0.0417
     30  CE2       44.8230   45.5910   24.0070 C.ar  172  TYR172      0.0417
     31  CZ        46.1970   45.5220   23.9990 C.ar  172  TYR172      0.1957
     32  OH        46.9280   46.5760   24.4890 O.3   172  TYR172     -0.2866
     33  N         49.0100   46.5660   19.4710 N.3   261  TYR261     -0.1241
     34  CA        48.1690   46.8690   20.6280 C.3   261  TYR261      0.1605
     35  C         46.7540   47.2580   20.2010 C.2   261  TYR261      0.2264
     36  O         45.9040   47.5630   21.0360 O.2   261  TYR261     -0.2867
     37  CB        48.7980   47.9780   21.4770 C.3   261  TYR261      0.0534
     38  CG        50.1240   47.5770   22.0810 C.ar  261  TYR261     -0.0201
     39  CD1       50.1750   46.7110   23.1670 C.ar  261  TYR261     -0.0009
     40  CD2       51.3210   48.0510   21.5630 C.ar  261  TYR261     -0.0009
     41  CE1       51.3770   46.3310   23.7210 C.ar  261  TYR261      0.0417
     42  CE2       52.5330   47.6770   22.1130 C.ar  261  TYR261      0.0417
     43  CZ        52.5540   46.8160   23.1920 C.ar  261  TYR261      0.1957
     44  OH        53.7530   46.4390   23.7460 O.3   261  TYR261     -0.2866
     45  N         45.6370   49.8130   18.4610 N.3   263  HIS263     -0.1241
     46  CA        45.3020   51.2220   18.3150 C.3   263  HIS263      0.1621
     47  C         44.8440   51.4640   16.8850 C.2   263  HIS263      0.2264
     48  O         45.2370   50.7370   15.9770 O.2   263  HIS263     -0.2867
     49  CB        46.5100   52.1070   18.6190 C.3   263  HIS263      0.0745
     50  CG        47.0190   51.9810   20.0190 C.ar  263  HIS263      0.0817
     51  ND1       48.1860   52.5820   20.4440 N.ar  263  HIS263     -0.2268
     52  CD2       46.5220   51.3280   21.0960 C.ar  263  HIS263      0.1154
     53  CE1       48.3880   52.2990   21.7160 C.ar  263  HIS263      0.1986
     54  NE2       47.3910   51.5400   22.1380 N.ar  263  HIS263     -0.2212
     55  N         42.4870   53.9090   21.5240 N.3   284  MET284     -0.1231
     56  CA        43.3290   52.9690   22.2590 C.3   284  MET284      0.1687
     57  C         42.4750   52.0540   23.1390 C.2   284  MET284      0.2434
     58  O         42.0900   52.4340   24.2450 O.2   284  MET284     -0.2733
     59  CB        44.3430   53.7340   23.1170 C.3   284  MET284      0.0400
     60  CG        45.2380   54.6720   22.3120 C.3   284  MET284      0.0596
     61  SD        46.1620   55.8390   23.3280 S.3   284  MET284     -0.1393
     62  CE        47.5830   54.8580   23.7920 C.3   284  MET284      0.0692
     63  N         42.1640   50.8460   22.6390 N.am  285  PRO285     -0.2718
     64  CA        41.4140   49.8450   23.4070 C.3   285  PRO285      0.1535
     65  C         42.0800   49.4470   24.7180 C.2   285  PRO285      0.2598
     66  O         43.2950   49.2760   24.7630 O.2   285  PRO285     -0.2715
     67  CB        41.3770   48.6440   22.4590 C.3   285  PRO285      0.0310
     68  CG        41.4430   49.2390   21.1080 C.3   285  PRO285      0.0237
     69  CD        42.3700   50.4110   21.2460 C.3   285  PRO285      0.0939
     70  N         41.2800   49.2990   25.7710 N.am  286  LEU286     -0.1978
     71  CA        41.7780   48.8100   27.0530 C.3   286  LEU286      0.1596
     72  C         41.9230   47.2960   26.9930 C.2   286  LEU286      0.2287
     73  O         41.0480   46.6030   26.4710 O.2   286  LEU286     -0.2864
     74  CB        40.8300   49.1950   28.1960 C.3   286  LEU286      0.0297
     75  CG        40.9820   50.5910   28.8080 C.3   286  LEU286      0.0022
     76  CD1       40.6980   51.6690   27.7910 C.3   286  LEU286      0.0001
     77  CD2       40.0660   50.7470   30.0140 C.3   286  LEU286      0.0001
     78  N         40.1800   54.4610   25.2180 N.3   295  TYR295     -0.1241
     79  CA        40.3900   55.9000   25.2580 C.3   295  TYR295      0.1605
     80  C         40.3170   56.4610   23.8450 C.2   295  TYR295      0.2264
     81  O         40.6530   55.7730   22.8790 O.2   295  TYR295     -0.2867
     82  CB        41.7490   56.2360   25.8750 C.3   295  TYR295      0.0534
     83  CG        41.7880   56.1070   27.3800 C.ar  295  TYR295     -0.0201
     84  CD1       41.2940   57.1160   28.1940 C.ar  295  TYR295     -0.0009
     85  CD2       42.3230   54.9790   27.9870 C.ar  295  TYR295     -0.0009
     86  CE1       41.3270   57.0050   29.5700 C.ar  295  TYR295      0.0417
     87  CE2       42.3610   54.8600   29.3640 C.ar  295  TYR295      0.0417
     88  CZ        41.8620   55.8760   30.1480 C.ar  295  TYR295      0.1957
     89  OH        41.8990   55.7590   31.5160 O.3   295  TYR295     -0.2866
     90  N         41.5960   60.0050   21.7910 N.3   297  VAL297     -0.1245
     91  CA        42.2840   61.2880   21.7500 C.3   297  VAL297      0.1561
     92  C         42.0230   61.9040   20.3850 C.2   297  VAL297      0.2260
     93  O         42.4170   61.3490   19.3590 O.2   297  VAL297     -0.2867
     94  CB        43.8000   61.1410   21.9880 C.3   297  VAL297      0.0252
     95  CG1       44.4810   62.5030   21.9500 C.3   297  VAL297      0.0019
     96  CG2       44.0600   60.4530   23.3200 C.3   297  VAL297      0.0019
@<TRIPOS>BOND
     1    48    47    2
     2    47    46    1
     3    46    45    1
     4    46    49    1
     5    49    50    1
     6    93    92    2
     7     1     2    1
     8    33    34    1
     9    50    51   ar
    10    50    52   ar
    11    35    34    1
    12    35    36    2
    13    92    91    1
    14    51    53   ar
    15     2     3    1
    16     2     5    1
    17    34    37    1
    18     3     4    2
    19    52    54   ar
    20    68    69    1
    21    68    67    1
    22     6     5    1
    23     6     7    1
    24    69    63    1
    25    37    38    1
    26    55    56    1
    27    40    38   ar
    28    40    42   ar
    29    53    54   ar
    30    91    90    1
    31    91    94    1
    32    95    94    1
    33    94    96    1
    34    38    39   ar
    35    42    43   ar
    36    56    59    1
    37    56    57    1
    38     7     8    1
    39    60    59    1
    40    60    61    1
    41    67    64    1
    42    25    26    1
    43    25    22    1
    44    63    57   am
    45    63    64    1
    46    81    80    2
    47    26    27   ar
    48    26    28   ar
    49    27    29   ar
    50    23    24    2
    51    23    22    1
    52    10     9    1
    53    57    58    2
    54    39    41   ar
    55    43    41   ar
    56    43    44    1
    57    61    62    1
    58    64    65    1
    59    29    31   ar
    60    28    30   ar
    61    22    21    1
    62     8     9    2
    63    80    79    1
    64    21    14   am
    65     9    11    1
    66    12    13    1
    67    31    30   ar
    68    31    32    1
    69    19    18   ar
    70    65    66    2
    71    65    70   am
    72    14    13    1
    73    14    15    2
    74    18    20   ar
    75    18    17    1
    76    13    16    1
    77    78    79    1
    78    79    82    1
    79    17    16    1
    80    70    71    1
    81    82    83    1
    82    73    72    2
    83    72    71    1
    84    71    74    1
    85    83    85   ar
    86    83    84   ar
    87    76    75    1
    88    85    87   ar
    89    84    86   ar
    90    74    75    1
    91    75    77    1
    92    87    88   ar
    93    86    88   ar
    94    88    89    1
