@<TRIPOS>MOLECULE
tmp/4c02A02.pdb
 85 82 0 0 0
SMALL
GASTEIGER

@<TRIPOS>ATOM
      1  N        -64.2240    1.6160   10.3270 N.3    77  ARG77      -0.1231
      2  CA       -63.5700    0.9180   11.4230 C.3    77  ARG77       0.1694
      3  C        -62.7850   -0.2880   10.9490 C.2    77  ARG77       0.2592
      4  O        -63.3020   -1.1480   10.2690 O.2    77  ARG77      -0.2718
      5  CB       -64.5900    0.4570   12.4460 C.3    77  ARG77       0.0321
      6  CG       -65.2490    1.6200   13.1630 C.3    77  ARG77       0.0489
      7  CD       -66.2870    1.1590   14.1800 C.3    77  ARG77       0.2205
      8  NE       -67.1370    2.2780   14.5570 N.pl3  77  ARG77      -0.0865
      9  CZ       -67.8440    2.3590   15.6820 C.cat  77  ARG77       0.5346
     10  NH1      -67.8230    1.3710   16.5710 N.pl3  77  ARG77       0.1354
     11  NH2      -68.5760    3.4490   15.9230 N.pl3  77  ARG77       0.1354
     12  N        -61.5200   -0.3390   11.3290 N.am   78  HIS78      -0.1962
     13  CA       -60.5950   -1.3590   10.8700 C.3    78  HIS78       0.1787
     14  C        -59.3470   -1.1590   11.6900 C.2    78  HIS78       0.2620
     15  O        -58.9500   -0.0190   11.9980 O.2    78  HIS78      -0.2715
     16  CB       -60.2640   -1.2090    9.3730 C.3    78  HIS78       0.0785
     17  CG       -59.5230   -2.3740    8.8020 C.ar   78  HIS78       0.0821
     18  ND1      -58.1550   -2.4810    8.8610 N.ar   78  HIS78      -0.2267
     19  CD2      -59.9570   -3.4990    8.1850 C.ar   78  HIS78       0.1154
     20  CE1      -57.7680   -3.6220    8.3080 C.ar   78  HIS78       0.1986
     21  NE2      -58.8450   -4.2560    7.8840 N.ar   78  HIS78      -0.2212
     22  N        -58.7380   -2.2710   12.0580 N.am   79  GLU79      -0.1977
     23  CA       -57.5500   -2.2860   12.8970 C.3    79  GLU79       0.1602
     24  C        -56.3970   -1.4380   12.3390 C.2    79  GLU79       0.2287
     25  O        -55.5480   -0.9450   13.0920 O.2    79  GLU79      -0.2864
     26  CB       -57.1130   -3.7500   13.0350 C.3    79  GLU79       0.0415
     27  CG       -55.8420   -3.9710   13.8130 C.3    79  GLU79       0.1163
     28  CD       -55.8350   -5.3000   14.5270 C.2    79  GLU79       0.3649
     29  OE1      -56.1890   -6.3450   13.9020 O.co2  79  GLU79      -0.2457
     30  OE2      -55.4670   -5.2770   15.7190 O.co2  79  GLU79      -0.2457
     31  N        -56.7320    1.2550   10.0410 N.3    81  ILE81      -0.1231
     32  CA       -57.0870    2.6180    9.6250 C.3    81  ILE81       0.1692
     33  C        -57.2680    3.4460   10.9060 C.2    81  ILE81       0.2592
     34  O        -57.9430    3.0150   11.8080 O.2    81  ILE81      -0.2718
     35  CB       -58.3600    2.6060    8.7850 C.3    81  ILE81       0.0266
     36  CG1      -58.1300    1.8210    7.5030 C.3    81  ILE81       0.0019
     37  CG2      -58.8250    4.0240    8.4660 C.3    81  ILE81       0.0020
     38  CD1      -59.3840    1.6100    6.7030 C.3    81  ILE81       0.0001
     39  N        -56.6230    4.5960   11.0310 N.am   82  LEU82      -0.1966
     40  CA       -56.7190    5.3570   12.2880 C.3    82  LEU82       0.1728
     41  C        -58.1820    5.4850   12.7240 C.2    82  LEU82       0.2616
     42  O        -59.0110    5.9680   11.9580 O.2    82  LEU82      -0.2715
     43  CB       -56.1170    6.7470   12.1370 C.3    82  LEU82       0.0311
     44  CG       -56.1150    7.6570   13.3670 C.3    82  LEU82       0.0022
     45  CD1      -55.3750    7.0180   14.5260 C.3    82  LEU82       0.0001
     46  CD2      -55.5030    9.0110   13.0750 C.3    82  LEU82       0.0001
     47  N        -58.4770    5.1140   13.9680 N.am   83  GLY83      -0.1955
     48  CA       -59.8400    5.1860   14.5080 C.3    83  GLY83       0.1869
     49  C        -60.3500    6.5870   14.7940 C.2    83  GLY83       0.2309
     50  O        -59.7950    7.3180   15.6070 O.2    83  GLY83      -0.2863
     51  N        -58.3400    8.0720   17.9180 N.3   101  HIS101     -0.1241
     52  CA       -57.5620    7.1650   18.7790 C.3   101  HIS101      0.1621
     53  C        -56.1360    7.7190   18.8830 C.2   101  HIS101      0.2264
     54  O        -55.5960    8.1800   17.8900 O.2   101  HIS101     -0.2867
     55  CB       -57.5550    5.8020   18.1050 C.3   101  HIS101      0.0745
     56  CG       -57.1640    4.6720   18.9830 C.ar  101  HIS101      0.0817
     57  ND1      -57.6510    3.3990   18.7950 N.ar  101  HIS101     -0.2268
     58  CD2      -56.2860    4.5910   20.0110 C.ar  101  HIS101      0.1154
     59  CE1      -57.1120    2.5890   19.6890 C.ar  101  HIS101      0.1986
     60  NE2      -56.2850    3.2900   20.4390 N.ar  101  HIS101     -0.2212
     61  N        -52.1460    7.2340   19.6240 N.3   103  HIS103     -0.1241
     62  CA       -51.1240    6.2050   19.5070 C.3   103  HIS103      0.1621
     63  C        -49.7790    6.7720   19.9430 C.2   103  HIS103      0.2264
     64  O        -49.1500    7.5680   19.2330 O.2   103  HIS103     -0.2867
     65  CB       -51.0740    5.6990   18.0830 C.3   103  HIS103      0.0745
     66  CG       -52.3080    4.9900   17.6710 C.ar  103  HIS103      0.0817
     67  ND1      -52.6500    3.7590   18.1780 N.ar  103  HIS103     -0.2268
     68  CD2      -53.2870    5.3180   16.7970 C.ar  103  HIS103      0.1154
     69  CE1      -53.8040    3.3700   17.6590 C.ar  103  HIS103      0.1986
     70  NE2      -54.2110    4.2910   16.8140 N.ar  103  HIS103     -0.2212
     71  N        -48.8560    1.2280   16.2390 N.3   162  LYS162     -0.1245
     72  CA       -49.6530    0.7960   17.3710 C.3   162  LYS162      0.1561
     73  C        -48.8060   -0.0640   18.2940 C.2   162  LYS162      0.2260
     74  O        -47.8030   -0.6740   17.8900 O.2   162  LYS162     -0.2867
     75  CB       -50.8890    0.0120   16.9050 C.3   162  LYS162      0.0271
     76  CG       -51.7500    0.7940   15.9400 C.3   162  LYS162      0.0035
     77  CD       -52.8060   -0.0760   15.2520 C.3   162  LYS162      0.0206
     78  CE       -53.7420   -0.6400   16.2870 C.3   162  LYS162      0.1093
     79  NZ       -55.1030   -0.8860   15.8190 N.3   162  LYS162     -0.1314
     80  N        -51.4060    1.6930   11.6340 N.3   168  CYS168     -0.1235
     81  CA       -52.6260    2.1310   11.0070 C.3   168  CYS168      0.1677
     82  C        -52.3750    3.3460   10.1460 C.2   168  CYS168      0.2270
     83  O        -51.5170    4.1820   10.4320 O.2   168  CYS168     -0.2867
     84  CB       -53.7060    2.4280   12.0570 C.3   168  CYS168      0.0956
     85  SG       -53.2540    3.6900   13.2560 S.3   168  CYS168     -0.0801
@<TRIPOS>BOND
     1    38    36    1
     2    36    35    1
     3    21    19   ar
     4    21    20   ar
     5    19    17   ar
     6    20    18   ar
     7    37    35    1
     8    35    32    1
     9    17    18   ar
    10    17    16    1
    11    16    13    1
    12    32    31    1
    13    32    33    1
    14    82    83    2
    15    82    81    1
    16     4     3    2
    17     1     2    1
    18    13    12    1
    19    13    14    1
    20    33    39   am
    21    33    34    2
    22     3    12   am
    23     3     2    1
    24    81    80    1
    25    81    84    1
    26    39    40    1
    27     2     5    1
    28    14    15    2
    29    14    22   am
    30    42    41    2
    31    84    85    1
    32    22    23    1
    33    43    40    1
    34    43    44    1
    35    40    41    1
    36    24    23    1
    37    24    25    2
    38     5     6    1
    39    41    47   am
    40    23    26    1
    41    26    27    1
    42    46    44    1
    43     6     7    1
    44    44    45    1
    45    27    28    1
    46    29    28   ar
    47    47    48    1
    48     7     8    1
    49    48    49    1
    50    28    30   ar
    51     8     9    2
    52    49    50    2
    53    77    76    1
    54    77    78    1
    55     9    11    1
    56     9    10    1
    57    79    78    1
    58    76    75    1
    59    71    72    1
    60    68    70   ar
    61    68    66   ar
    62    70    69   ar
    63    75    72    1
    64    72    73    1
    65    69    67   ar
    66    66    65    1
    67    66    67   ar
    68    54    53    2
    69    74    73    2
    70    51    52    1
    71    65    62    1
    72    55    52    1
    73    55    56    1
    74    52    53    1
    75    57    56   ar
    76    57    59   ar
    77    56    58   ar
    78    64    63    2
    79    62    61    1
    80    62    63    1
    81    59    60   ar
    82    58    60   ar
