@<TRIPOS>MOLECULE
tmp/4c02A04.pdb
 80 76 0 0 0
SMALL
GASTEIGER

@<TRIPOS>ATOM
      1  N        -55.5880   -2.2470    1.5030 N.3   134  ALA134     -0.1245
      2  CA       -56.5600   -3.0770    0.7900 C.3   134  ALA134      0.1562
      3  C        -57.9690   -2.7890    1.2800 C.2   134  ALA134      0.2260
      4  O        -58.8760   -2.6950    0.4760 O.2   134  ALA134     -0.2867
      5  CB       -56.2470   -4.5330    0.9530 C.3   134  ALA134      0.0290
      6  N        -59.0320    0.4120   -0.2860 N.3   137  HIS137     -0.1226
      7  CA       -59.2010    0.2690   -1.7440 C.3   137  HIS137      0.1752
      8  C        -60.4060   -0.5290   -2.2090 C.2   137  HIS137      0.2596
      9  O        -60.9060   -0.2950   -3.3090 O.2   137  HIS137     -0.2718
     10  CB       -57.9490   -0.3590   -2.3500 C.3   137  HIS137      0.0759
     11  CG       -56.8300    0.6040   -2.5150 C.ar  137  HIS137      0.0818
     12  ND1      -55.6800    0.2840   -3.1910 N.ar  137  HIS137     -0.2268
     13  CD2      -56.6810    1.8810   -2.0890 C.ar  137  HIS137      0.1154
     14  CE1      -54.8720    1.3320   -3.1980 C.ar  137  HIS137      0.1986
     15  NE2      -55.4620    2.3180   -2.5450 N.ar  137  HIS137     -0.2212
     16  N        -60.8750   -1.4480   -1.3790 N.am  138  ILE138     -0.1966
     17  CA       -61.9310   -2.3870   -1.7840 C.3   138  ILE138      0.1727
     18  C        -63.3220   -1.8030   -1.5960 C.2   138  ILE138      0.2616
     19  O        -63.6290   -1.1870   -0.5630 O.2   138  ILE138     -0.2715
     20  CB       -61.8280   -3.7060   -1.0050 C.3   138  ILE138      0.0290
     21  CG1      -60.5870   -4.4800   -1.4470 C.3   138  ILE138      0.0022
     22  CG2      -63.0430   -4.5840   -1.2510 C.3   138  ILE138      0.0023
     23  CD1      -60.2700   -5.6920   -0.6040 C.3   138  ILE138      0.0001
     24  N        -64.1750   -1.9730   -2.6000 N.am  139  GLU139     -0.1977
     25  CA       -65.5610   -1.5540   -2.4840 C.3   139  GLU139      0.1602
     26  C        -66.3640   -2.7420   -1.9630 C.2   139  GLU139      0.2287
     27  O        -66.2690   -3.8200   -2.4940 O.2   139  GLU139     -0.2864
     28  CB       -66.1220   -1.1160   -3.8260 C.3   139  GLU139      0.0415
     29  CG       -67.5810   -0.6980   -3.7070 C.3   139  GLU139      0.1163
     30  CD       -68.1240    0.0160   -4.9370 C.2   139  GLU139      0.3649
     31  OE1      -67.4380    0.0080   -5.9960 O.co2 139  GLU139     -0.2457
     32  OE2      -69.2570    0.5660   -4.8240 O.co2 139  GLU139     -0.2457
     33  N        -59.5370    3.5640  -10.5500 N.3   211  ASP211     -0.1239
     34  CA       -58.4710    2.5690  -10.5140 C.3   211  ASP211      0.1674
     35  C        -57.1060    3.2020  -10.5690 C.2   211  ASP211      0.2266
     36  O        -56.1500    2.7220   -9.9590 O.2   211  ASP211     -0.2867
     37  CB       -58.6060    1.6140  -11.6960 C.3   211  ASP211      0.1410
     38  CG       -57.5560    0.5450  -11.7010 C.2   211  ASP211      0.3668
     39  OD1      -57.6970   -0.4100  -10.9180 O.co2 211  ASP211     -0.2456
     40  OD2      -56.5970    0.6220  -12.5090 O.co2 211  ASP211     -0.2456
     41  N        -55.8240    4.2360   -7.1720 N.3   214  LYS214     -0.1231
     42  CA       -55.3420    3.1080   -6.3780 C.3   214  LYS214      0.1693
     43  C        -53.8930    2.7600   -6.7280 C.2   214  LYS214      0.2591
     44  O        -53.0660    2.4460   -5.8490 O.2   214  LYS214     -0.2718
     45  CB       -56.2490    1.8790   -6.5600 C.3   214  LYS214      0.0285
     46  CG       -57.6170    1.9700   -5.9240 C.3   214  LYS214      0.0035
     47  CD       -58.3030    0.6170   -5.8620 C.3   214  LYS214      0.0206
     48  CE       -58.6840    0.1210   -7.2570 C.3   214  LYS214      0.1093
     49  NZ       -59.3380   -1.2180   -7.2960 N.3   214  LYS214     -0.1314
     50  N        -53.5690    2.8220   -8.0160 N.am  215  ARG215     -0.1980
     51  CA       -52.2160    2.4440   -8.4800 C.3   215  ARG215      0.1597
     52  C        -51.1560    3.4680   -8.1090 C.2   215  ARG215      0.2287
     53  O        -50.0050    3.1270   -7.9130 O.2   215  ARG215     -0.2864
     54  CB       -52.2360    2.1400   -9.9810 C.3   215  ARG215      0.0334
     55  CG       -52.9630    0.8220  -10.2510 C.3   215  ARG215      0.0492
     56  CD       -53.3280    0.5890  -11.6940 C.3   215  ARG215      0.2205
     57  NE       -54.2450   -0.5250  -11.7710 N.pl3 215  ARG215     -0.0865
     58  CZ       -53.8990   -1.8060  -11.6500 C.cat 215  ARG215      0.5346
     59  NH1      -52.6380   -2.1830  -11.5530 N.pl3 215  ARG215      0.1354
     60  NH2      -54.8330   -2.7280  -11.6890 N.pl3 215  ARG215      0.1354
     61  N        -52.0070   -5.2310   -6.9040 N.3   301  THR301     -0.1203
     62  CA       -53.0440   -4.6600   -6.0770 C.3   301  THR301      0.1994
     63  C        -52.6760   -4.7720   -4.5930 C.2   301  THR301      0.2618
     64  O        -51.8310   -5.5790   -4.2020 O.2   301  THR301     -0.2717
     65  CB       -54.3900   -5.3530   -6.3160 C.3   301  THR301      0.1784
     66  OG1      -54.3120   -6.6990   -5.8590 O.3   301  THR301     -0.2211
     67  CG2      -54.7490   -5.3200   -7.8060 C.3   301  THR301      0.0376
     68  N        -53.3060   -3.9400   -3.7690 N.am  302  ALA302     -0.1965
     69  CA       -53.0570   -3.9590   -2.3290 C.3   302  ALA302      0.1728
     70  C        -53.4010   -5.3470   -1.7610 C.2   302  ALA302      0.2616
     71  O        -52.6760   -5.9180   -0.9460 O.2   302  ALA302     -0.2715
     72  CB       -53.9090   -2.8890   -1.6740 C.3   302  ALA302      0.0334
     73  N        -54.5110   -5.8970   -2.2200 N.am  303  LEU303     -0.1977
     74  CA       -54.9420   -7.2250   -1.8070 C.3   303  LEU303      0.1596
     75  C        -53.9340   -8.3090   -2.1940 C.2   303  LEU303      0.2287
     76  O        -53.6510   -9.2140   -1.4080 O.2   303  LEU303     -0.2864
     77  CB       -56.3130   -7.5220   -2.4000 C.3   303  LEU303      0.0297
     78  CG       -57.0770   -8.7470   -1.8980 C.3   303  LEU303      0.0022
     79  CD1      -57.2350   -8.7440   -0.3790 C.3   303  LEU303      0.0001
     80  CD2      -58.4510   -8.7800   -2.5650 C.3   303  LEU303      0.0001
@<TRIPOS>BOND
     1    40    38   ar
     2    57    56    1
     3    57    58    2
     4    38    37    1
     5    38    39   ar
     6    37    34    1
     7    56    55    1
     8    60    58    1
     9    58    59    1
    10    35    34    1
    11    35    36    2
    12    33    34    1
    13    55    54    1
    14    54    51    1
    15    51    52    1
    16    51    50    1
    17    52    53    2
    18    50    43   am
    19    67    65    1
    20    49    48    1
    21    48    47    1
    22    41    42    1
    23    61    62    1
    24    43    42    1
    25    43    44    2
    26    45    42    1
    27    45    46    1
    28    65    62    1
    29    65    66    1
    30    62    63    1
    31    31    30   ar
    32    46    47    1
    33    30    32   ar
    34    30    29    1
    35    63    64    2
    36    63    68   am
    37    28    29    1
    38    28    25    1
    39    68    69    1
    40     9     8    2
    41    14    12   ar
    42    14    15   ar
    43    12    11   ar
    44    24    25    1
    45    24    18   am
    46    80    78    1
    47    15    13   ar
    48    11    10    1
    49    11    13   ar
    50    27    26    2
    51    25    26    1
    52    77    78    1
    53    77    74    1
    54    10     7    1
    55    69    70    1
    56    69    72    1
    57    73    74    1
    58    73    70   am
    59     8     7    1
    60     8    16   am
    61    75    74    1
    62    75    76    2
    63    78    79    1
    64    17    18    1
    65    17    16    1
    66    17    20    1
    67    70    71    2
    68     7     6    1
    69    18    19    2
    70    21    20    1
    71    21    23    1
    72    22    20    1
    73     4     3    2
    74     2     5    1
    75     2     3    1
    76     2     1    1
