@<TRIPOS>MOLECULE
tmp/4c02A05.pdb
 152 144 0 0 0
SMALL
GASTEIGER

@<TRIPOS>ATOM
      1  N        -47.9670   17.0430   20.3700 N.3    33  VAL33      -0.1231
      2  CA       -47.0340   15.9690   20.0050 C.3    33  VAL33       0.1692
      3  C        -46.5990   16.0190   18.5570 C.2    33  VAL33       0.2592
      4  O        -45.8020   15.2110   18.1270 O.2    33  VAL33      -0.2718
      5  CB       -47.6200   14.5710   20.2950 C.3    33  VAL33       0.0266
      6  CG1      -47.7170   14.3710   21.7860 C.3    33  VAL33       0.0020
      7  CG2      -48.9830   14.3650   19.6210 C.3    33  VAL33       0.0020
      8  N        -47.1370   16.9680   17.8050 N.am   34  GLY34      -0.1957
      9  CA       -46.8230   17.1030   16.3900 C.3    34  GLY34       0.1869
     10  C        -47.2200   18.4910   15.9220 C.2    34  GLY34       0.2309
     11  O        -48.2350   19.0520   16.3690 O.2    34  GLY34      -0.2863
     12  N        -51.0310   18.3790   16.0630 N.3    41  VAL41      -0.1245
     13  CA       -51.6430   17.2370   16.7430 C.3    41  VAL41       0.1561
     14  C        -51.3210   17.3080   18.2240 C.2    41  VAL41       0.2260
     15  O        -50.1590   17.4750   18.6020 O.2    41  VAL41      -0.2867
     16  CB       -51.1620   15.8820   16.2160 C.3    41  VAL41       0.0252
     17  CG1      -51.8900   14.7590   16.9500 C.3    41  VAL41       0.0019
     18  CG2      -51.4330   15.7760   14.7410 C.3    41  VAL41       0.0019
     19  N        -56.2940   11.7220   20.6110 N.3    52  ALA52      -0.1245
     20  CA       -55.5120   12.6500   19.8010 C.3    52  ALA52       0.1562
     21  C        -56.4360   13.6980   19.2080 C.2    52  ALA52       0.2260
     22  O        -57.5440   13.4020   18.7690 O.2    52  ALA52      -0.2867
     23  CB       -54.7870   11.9140   18.6910 C.3    52  ALA52       0.0290
     24  N        -56.2840   16.6070   16.3580 N.3    54  LYS54      -0.1245
     25  CA       -55.6380   17.3360   15.2970 C.3    54  LYS54       0.1561
     26  C        -56.4020   18.6280   15.0820 C.2    54  LYS54       0.2260
     27  O        -57.6160   18.6140   14.8620 O.2    54  LYS54      -0.2867
     28  CB       -55.6310   16.5300   14.0290 C.3    54  LYS54       0.0271
     29  CG       -54.9370   17.2580   12.8980 C.3    54  LYS54       0.0035
     30  CD       -54.5620   16.2910   11.8220 C.3    54  LYS54       0.0206
     31  CE       -54.0390   17.0270   10.6070 C.3    54  LYS54       0.1093
     32  NZ       -53.7610   16.0230    9.5600 N.3    54  LYS54      -0.1314
     33  N        -61.8230   14.9800    5.3730 N.3    67  GLU67      -0.1245
     34  CA       -61.5780   13.8650    6.2880 C.3    67  GLU67       0.1567
     35  C        -62.8060   13.6370    7.1730 C.2    67  GLU67       0.2260
     36  O        -63.2510   12.4940    7.3780 O.2    67  GLU67      -0.2867
     37  CB       -60.3160   14.1280    7.1160 C.3    67  GLU67       0.0388
     38  CG       -59.8840   12.9220    7.9170 C.3    67  GLU67       0.1160
     39  CD       -58.4340   12.9720    8.3500 C.2    67  GLU67       0.3649
     40  OE1      -57.8670   14.0680    8.5090 O.co2  67  GLU67      -0.2457
     41  OE2      -57.8610   11.8850    8.5410 O.co2  67  GLU67      -0.2457
     42  N        -56.6230    4.5960   11.0310 N.3    82  LEU82      -0.1245
     43  CA       -56.7190    5.3570   12.2880 C.3    82  LEU82       0.1561
     44  C        -58.1820    5.4850   12.7240 C.2    82  LEU82       0.2260
     45  O        -59.0110    5.9680   11.9580 O.2    82  LEU82      -0.2867
     46  CB       -56.1170    6.7470   12.1370 C.3    82  LEU82       0.0270
     47  CG       -56.1150    7.6570   13.3670 C.3    82  LEU82       0.0019
     48  CD1      -55.3750    7.0180   14.5260 C.3    82  LEU82       0.0001
     49  CD2      -55.5030    9.0110   13.0750 C.3    82  LEU82       0.0001
     50  N        -60.1510   17.4270   14.6320 N.3    98  LEU98      -0.1245
     51  CA       -60.4410   16.0450   14.3160 C.3    98  LEU98       0.1561
     52  C        -59.8930   15.2050   15.4690 C.2    98  LEU98       0.2260
     53  O        -58.7120   15.2900   15.7830 O.2    98  LEU98      -0.2867
     54  CB       -59.7740   15.6350   13.0170 C.3    98  LEU98       0.0270
     55  CG       -60.1560   14.2200   12.5880 C.3    98  LEU98       0.0019
     56  CD1      -61.2450   14.3280   11.5440 C.3    98  LEU98       0.0001
     57  CD2      -58.9320   13.5140   12.0530 C.3    98  LEU98       0.0001
     58  N        -59.2340   11.5560   17.3380 N.3   100  THR100     -0.1203
     59  CA       -59.0100   10.1700   16.9740 C.3   100  THR100      0.1994
     60  C        -58.4030    9.3810   18.1040 C.2   100  THR100      0.2618
     61  O        -58.0060    9.9490   19.1180 O.2   100  THR100     -0.2717
     62  CB       -58.0100   10.0700   15.8020 C.3   100  THR100      0.1784
     63  OG1      -56.7040   10.3350   16.2610 O.3   100  THR100     -0.2211
     64  CG2      -58.3370   11.0560   14.7420 C.3   100  THR100      0.0376
     65  N        -58.3400    8.0720   17.9180 N.am  101  HIS101     -0.1961
     66  CA       -57.5620    7.1650   18.7790 C.3   101  HIS101      0.1787
     67  C        -56.1360    7.7190   18.8830 C.2   101  HIS101      0.2620
     68  O        -55.5960    8.1800   17.8900 O.2   101  HIS101     -0.2715
     69  CB       -57.5550    5.8020   18.1050 C.3   101  HIS101      0.0785
     70  CG       -57.1640    4.6720   18.9830 C.ar  101  HIS101      0.0821
     71  ND1      -57.6510    3.3990   18.7950 N.ar  101  HIS101     -0.2267
     72  CD2      -56.2860    4.5910   20.0110 C.ar  101  HIS101      0.1154
     73  CE1      -57.1120    2.5890   19.6890 C.ar  101  HIS101      0.1986
     74  NE2      -56.2850    3.2900   20.4390 N.ar  101  HIS101     -0.2212
     75  N        -55.5750    7.7240   20.0990 N.am  102  TYR102     -0.1960
     76  CA       -54.2340    8.2050   20.3670 C.3   102  TYR102      0.1771
     77  C        -53.2560    7.0480   20.3240 C.2   102  TYR102      0.2620
     78  O        -53.4790    6.0200   20.9610 O.2   102  TYR102     -0.2715
     79  CB       -54.1700    8.8150   21.7910 C.3   102  TYR102      0.0574
     80  CG       -52.8080    9.3500   22.1670 C.ar  102  TYR102     -0.0198
     81  CD1      -52.3280   10.5140   21.5920 C.ar  102  TYR102     -0.0009
     82  CD2      -52.0230    8.7130   23.0960 C.ar  102  TYR102     -0.0009
     83  CE1      -51.1130   11.0280   21.9390 C.ar  102  TYR102      0.0417
     84  CE2      -50.7800    9.2080   23.4390 C.ar  102  TYR102      0.0417
     85  CZ       -50.3290   10.3660   22.8560 C.ar  102  TYR102      0.1957
     86  OH       -49.0940   10.8990   23.1810 O.3   102  TYR102     -0.2866
     87  N        -52.1460    7.2340   19.6240 N.am  103  HIS103     -0.1959
     88  CA       -51.1240    6.2050   19.5070 C.3   103  HIS103      0.1787
     89  C        -49.7790    6.7720   19.9430 C.2   103  HIS103      0.2620
     90  O        -49.1500    7.5680   19.2330 O.2   103  HIS103     -0.2715
     91  CB       -51.0740    5.6990   18.0830 C.3   103  HIS103      0.0785
     92  CG       -52.3080    4.9900   17.6710 C.ar  103  HIS103      0.0821
     93  ND1      -52.6500    3.7590   18.1780 N.ar  103  HIS103     -0.2267
     94  CD2      -53.2870    5.3180   16.7970 C.ar  103  HIS103      0.1154
     95  CE1      -53.8040    3.3700   17.6590 C.ar  103  HIS103      0.1986
     96  NE2      -54.2110    4.2910   16.8140 N.ar  103  HIS103     -0.2212
     97  N        -49.3410    6.3760   21.1320 N.am  104  GLU104     -0.1963
     98  CA       -48.2120    7.0430   21.7760 C.3   104  GLU104      0.1733
     99  C        -46.8900    6.7410   21.0690 C.2   104  GLU104      0.2616
    100  O        -45.9260    7.4660   21.2620 O.2   104  GLU104     -0.2715
    101  CB       -48.1310    6.6870   23.2990 C.3   104  GLU104      0.0429
    102  CG       -47.4530    5.3720   23.5840 C.3   104  GLU104      0.1163
    103  CD       -47.3090    5.0360   25.0780 C.2   104  GLU104      0.3649
    104  OE1      -46.3520    5.4520   25.7430 O.co2 104  GLU104     -0.2457
    105  OE2      -48.1530    4.2990   25.5820 O.co2 104  GLU104     -0.2457
    106  N        -46.8170    5.6810   20.2500 N.am  105  MET105     -0.1963
    107  CA       -45.5410    5.4210   19.5520 C.3   105  MET105      0.1736
    108  C        -45.3200    6.3940   18.4170 C.2   105  MET105      0.2617
    109  O        -44.2540    6.4290   17.8740 O.2   105  MET105     -0.2715
    110  CB       -45.4670    4.0210   18.9660 C.3   105  MET105      0.0427
    111  CG       -45.9030    2.8590   19.8480 C.3   105  MET105      0.0599
    112  SD       -44.5300    1.9360   20.4640 S.3   105  MET105     -0.1393
    113  CE       -43.8830    3.2900   21.4200 C.3   105  MET105      0.0692
    114  N        -46.3380    7.1580   18.0250 N.am  106  GLY106     -0.1940
    115  CA       -46.1900    8.1520   16.9500 C.3   106  GLY106      0.2014
    116  C        -46.1250    7.5340   15.5470 C.2   106  GLY106      0.2639
    117  O        -46.6230    6.4270   15.3100 O.2   106  GLY106     -0.2714
    118  N        -45.5150    8.2450   14.6200 N.am  107  SER107     -0.1949
    119  CA       -45.5230    7.8290   13.2270 C.3   107  SER107      0.1924
    120  C        -44.4700    6.7800   12.9330 C.2   107  SER107      0.2314
    121  O        -43.4700    6.6850   13.6200 O.2   107  SER107     -0.2863
    122  CB       -45.2900    9.0110   12.3170 C.3   107  SER107      0.2116
    123  OG       -43.9380    9.4390   12.3990 O.3   107  SER107     -0.2180
    124  N        -41.0660    8.4070   12.4940 N.3   110  ASP110     -0.1239
    125  CA       -40.2890    8.6330   13.7070 C.3   110  ASP110      0.1674
    126  C        -39.7840    7.3600   14.3140 C.2   110  ASP110      0.2266
    127  O        -38.6310    7.2970   14.7190 O.2   110  ASP110     -0.2867
    128  CB       -41.0810    9.4290   14.7230 C.3   110  ASP110      0.1410
    129  CG       -41.2600   10.8850   14.2860 C.2   110  ASP110      0.3668
    130  OD1      -40.3160   11.5350   13.7530 O.co2 110  ASP110     -0.2456
    131  OD2      -42.3620   11.3780   14.4510 O.co2 110  ASP110     -0.2456
    132  N        -49.2240    5.4490   11.5220 N.3   160  LEU160     -0.1245
    133  CA       -48.9480    5.4320   12.9470 C.3   160  LEU160      0.1561
    134  C        -48.6550    4.0240   13.4260 C.2   160  LEU160      0.2260
    135  O        -49.2390    3.0580   12.9340 O.2   160  LEU160     -0.2867
    136  CB       -50.1460    6.0080   13.7190 C.3   160  LEU160      0.0270
    137  CG       -50.4230    7.4750   13.4010 C.3   160  LEU160      0.0019
    138  CD1      -51.7770    7.8170   13.9460 C.3   160  LEU160      0.0001
    139  CD2      -49.3680    8.3540   14.0440 C.3   160  LEU160      0.0001
    140  N        -53.3280    6.8620    8.5240 N.3   170  ALA170     -0.1231
    141  CA       -53.9890    8.1110    8.9270 C.3   170  ALA170      0.1694
    142  C        -53.9870    9.1200    7.7850 C.2   170  ALA170      0.2592
    143  O        -53.3830    8.8900    6.7350 O.2   170  ALA170     -0.2718
    144  CB       -53.2540    8.7290   10.1110 C.3   170  ALA170      0.0304
    145  N        -54.6350   10.2500    8.0390 N.am  171  ASP171     -0.1974
    146  CA       -54.5760   11.4630    7.2070 C.3   171  ASP171      0.1709
    147  C        -55.2870   11.2270    5.8930 C.2   171  ASP171      0.2293
    148  O        -54.6730   11.0940    4.8250 O.2   171  ASP171     -0.2864
    149  CB       -53.1420   11.9510    7.0040 C.3   171  ASP171      0.1436
    150  CG       -52.4410   12.2980    8.3230 C.2   171  ASP171      0.3671
    151  OD1      -52.7150   13.3720    8.8880 O.co2 171  ASP171     -0.2456
    152  OD2      -51.6020   11.5030    8.7980 O.co2 171  ASP171     -0.2456
@<TRIPOS>BOND
     1   148   147    2
     2    33    34    1
     3   147   146    1
     4    34    37    1
     5    34    35    1
     6   143   142    2
     7   149   146    1
     8   149   150    1
     9    37    38    1
    10    35    36    2
    11   146   145    1
    12   142   145   am
    13   142   141    1
    14    38    39    1
    15   150   152   ar
    16   150   151   ar
    17    39    40   ar
    18    39    41   ar
    19   140   141    1
    20   141   144    1
    21    32    31    1
    22    31    30    1
    23    42    43    1
    24   132   133    1
    25    56    55    1
    26    30    29    1
    27    45    44    2
    28    57    55    1
    29    46    43    1
    30    46    47    1
    31    43    44    1
    32   122   123    1
    33   122   119    1
    34   124   125    1
    35    55    54    1
    36    29    28    1
    37   120   119    1
    38   120   121    2
    39   135   134    2
    40   133   134    1
    41   133   136    1
    42    54    51    1
    43    49    47    1
    44   119   118    1
    45    47    48    1
    46   137   136    1
    47   137   138    1
    48   137   139    1
    49   125   126    1
    50   125   128    1
    51   130   129   ar
    52    28    25    1
    53   129   131   ar
    54   129   128    1
    55   126   127    2
    56    51    50    1
    57    51    52    1
    58   118   116   am
    59    18    16    1
    60    64    62    1
    61    27    26    2
    62    26    25    1
    63    25    24    1
    64   117   116    2
    65    52    53    2
    66   116   115    1
    67    62    63    1
    68    62    59    1
    69    10    11    2
    70    10     9    1
    71    12    13    1
    72    16    13    1
    73    16    17    1
    74     9     8    1
    75    13    14    1
    76    94    96   ar
    77    94    92   ar
    78    96    95   ar
    79   115   114    1
    80    59    58    1
    81    59    60    1
    82    95    93   ar
    83    92    91    1
    84    92    93   ar
    85     8     3   am
    86   109   108    2
    87    68    67    2
    88    65    60   am
    89    65    66    1
    90   114   108   am
    91    91    88    1
    92    60    61    2
    93    69    66    1
    94    69    70    1
    95     4     3    2
    96    14    15    2
    97   108   107    1
    98     3     2    1
    99    23    20    1
   100    22    21    2
   101    66    67    1
   102    71    70   ar
   103    71    73   ar
   104    67    75   am
   105   110   107    1
   106   110   111    1
   107    70    72   ar
   108    21    20    1
   109    90    89    2
   110    88    87    1
   111    88    89    1
   112   107   106    1
   113     7     5    1
   114    87    77   am
   115    73    74   ar
   116    20    19    1
   117   111   112    1
   118    89    97   am
   119     2     5    1
   120     2     1    1
   121    72    74   ar
   122    75    76    1
   123   106    99   am
   124     5     6    1
   125    77    76    1
   126    77    78    2
   127    76    79    1
   128   112   113    1
   129    99   100    2
   130    99    98    1
   131    97    98    1
   132    81    83   ar
   133    81    80   ar
   134    98   101    1
   135    79    80    1
   136    83    85   ar
   137    80    82   ar
   138    85    86    1
   139    85    84   ar
   140    82    84   ar
   141   101   102    1
   142   102   103    1
   143   103   105   ar
   144   103   104   ar
