@<TRIPOS>MOLECULE
tmp/4c04A00.pdb
 198 190 0 0 0
SMALL
GASTEIGER

@<TRIPOS>ATOM
      1  N         31.6680  -10.0890    5.8720 N.3    12  VAL12      -0.1231
      2  CA        30.3720   -9.4060    5.8990 C.3    12  VAL12       0.1692
      3  C         29.3890  -10.1560    6.7940 C.2    12  VAL12       0.2592
      4  O         28.6570   -9.5430    7.5870 O.2    12  VAL12      -0.2718
      5  CB        29.7960   -9.2570    4.4800 C.3    12  VAL12       0.0266
      6  CG1       28.3410   -8.7860    4.5080 C.3    12  VAL12       0.0020
      7  CG2       30.6790   -8.3040    3.6680 C.3    12  VAL12       0.0020
      8  N         29.3720  -11.4820    6.7090 N.am   13  HIS13      -0.1976
      9  CA        28.4130  -12.2570    7.4520 C.3    13  HIS13       0.1656
     10  C         28.8290  -12.4260    8.9000 C.2    13  HIS13       0.2291
     11  O         27.9910  -12.4440    9.7960 O.2    13  HIS13      -0.2864
     12  CB        28.1940  -13.5760    6.7290 C.3    13  HIS13       0.0771
     13  CG        27.4040  -13.3820    5.4810 C.ar   13  HIS13       0.0820
     14  ND1       26.0520  -13.1370    5.5160 N.ar   13  HIS13      -0.2267
     15  CD2       27.7770  -13.2770    4.1870 C.ar   13  HIS13       0.1154
     16  CE1       25.6120  -12.9440    4.2870 C.ar   13  HIS13       0.1986
     17  NE2       26.6390  -13.0140    3.4620 N.ar   13  HIS13      -0.2212
     18  N         27.6710   -9.2140   10.6180 N.3    16  MET16      -0.1230
     19  CA        26.2390   -9.2520   10.9180 C.3    16  MET16       0.1702
     20  C         25.9180  -10.1230   12.1280 C.2    16  MET16       0.2592
     21  O         25.1940   -9.7060   13.0270 O.2    16  MET16      -0.2718
     22  CB        25.4430   -9.7230    9.6890 C.3    16  MET16       0.0401
     23  CG        25.1910   -8.5820    8.7130 C.3    16  MET16       0.0596
     24  SD        24.2410   -9.1140    7.2520 S.3    16  MET16      -0.1393
     25  CE        25.4740  -10.0690    6.3990 C.3    16  MET16       0.0692
     26  N         26.4570  -11.3320   12.1600 N.am   17  ILE17      -0.1980
     27  CA        26.0740  -12.2840   13.1920 C.3    17  ILE17       0.1595
     28  C         26.6840  -11.8640   14.5160 C.2    17  ILE17       0.2287
     29  O         26.0600  -12.0550   15.5710 O.2    17  ILE17      -0.2864
     30  CB        26.4890  -13.7350   12.8360 C.3    17  ILE17       0.0276
     31  CG1       25.8750  -14.1660   11.4900 C.3    17  ILE17       0.0022
     32  CG2       26.0590  -14.7100   13.9620 C.3    17  ILE17       0.0022
     33  CD1       24.3600  -14.0840   11.3970 C.3    17  ILE17       0.0001
     34  N         21.7400   -6.3750   16.6000 N.3    22  ARG22      -0.1245
     35  CA        20.9930   -6.7820   15.4300 C.3    22  ARG22       0.1563
     36  C         20.4450   -8.1810   15.5220 C.2    22  ARG22       0.2260
     37  O         19.2750   -8.4230   15.2910 O.2    22  ARG22      -0.2867
     38  CB        21.8950   -6.7090   14.1840 C.3    22  ARG22       0.0307
     39  CG        21.1850   -7.0550   12.8700 C.3    22  ARG22       0.0489
     40  CD        22.2040   -7.3940   11.7580 C.3    22  ARG22       0.2205
     41  NE        22.5140   -8.7900   11.9470 N.pl3  22  ARG22      -0.0865
     42  CZ        22.0660   -9.7910   11.2140 C.cat  22  ARG22       0.5346
     43  NH1       21.3910   -9.5850   10.0800 N.pl3  22  ARG22       0.1354
     44  NH2       22.3700  -11.0090   11.5920 N.pl3  22  ARG22       0.1354
     45  N         11.9690  -15.5830    3.6720 N.3    44  ASP44      -0.1239
     46  CA        13.1410  -14.8260    4.1630 C.3    44  ASP44       0.1674
     47  C         13.8420  -14.2390    2.9660 C.2    44  ASP44       0.2266
     48  O         14.4410  -14.9880    2.1670 O.2    44  ASP44      -0.2867
     49  CB        14.0830  -15.7380    4.9480 C.3    44  ASP44       0.1410
     50  CG        15.3010  -15.0090    5.5400 C.2    44  ASP44       0.3668
     51  OD1       15.5270  -13.7940    5.3260 O.co2  44  ASP44      -0.2456
     52  OD2       16.0700  -15.7040    6.2320 O.co2  44  ASP44      -0.2456
     53  N         16.6750  -12.4540    1.2670 N.3    46  GLY46      -0.1210
     54  CA        18.0820  -12.1700    1.4820 C.3    46  GLY46       0.1956
     55  C         18.5640  -12.9330    2.6700 C.2    46  GLY46       0.2612
     56  O         19.0330  -12.3410    3.6440 O.2    46  GLY46      -0.2717
     57  N         18.4580  -14.2530    2.6010 N.am   47  ALA47      -0.1965
     58  CA        18.6260  -15.1000    3.7730 C.3    47  ALA47       0.1728
     59  C         20.0760  -15.2270    4.2570 C.2    47  ALA47       0.2617
     60  O         20.3100  -15.6560    5.3810 O.2    47  ALA47      -0.2715
     61  CB        18.0690  -16.4520    3.4900 C.3    47  ALA47       0.0334
     62  N         21.0440  -14.8510    3.4290 N.am   48  GLY48      -0.1940
     63  CA        22.4340  -14.8750    3.8370 C.3    48  GLY48       0.2014
     64  C         22.8690  -16.2470    4.2990 C.2    48  GLY48       0.2639
     65  O         22.7260  -17.2130    3.5530 O.2    48  GLY48      -0.2714
     66  N         23.3810  -16.3450    5.5320 N.am   49  THR49      -0.1950
     67  CA        23.7820  -17.6290    6.1010 C.3    49  THR49       0.1897
     68  C         22.6030  -18.4690    6.6420 C.2    49  THR49       0.2313
     69  O         22.8080  -19.5890    7.0860 O.2    49  THR49      -0.2863
     70  CB        24.7830  -17.4540    7.2510 C.3    49  THR49       0.1794
     71  OG1       24.1410  -16.7100    8.2930 O.3    49  THR49      -0.2208
     72  CG2       26.0380  -16.7550    6.7960 C.3    49  THR49       0.0378
     73  N         20.3690  -17.6720    9.1740 N.3    51  ILE51      -0.1231
     74  CA        20.0570  -17.6880   10.6170 C.3    51  ILE51       0.1692
     75  C         18.6530  -17.1700   10.8940 C.2    51  ILE51       0.2591
     76  O         17.9550  -17.7290   11.7660 O.2    51  ILE51      -0.2718
     77  CB        21.1040  -16.9030   11.4430 C.3    51  ILE51       0.0266
     78  CG1       20.9620  -17.2830   12.9320 C.3    51  ILE51       0.0019
     79  CG2       21.0030  -15.4100   11.1510 C.3    51  ILE51       0.0020
     80  CD1       21.9910  -16.6630   13.8350 C.3    51  ILE51       0.0001
     81  N         18.1600  -16.1770   10.1650 N.am   52  LEU52      -0.1980
     82  CA        16.7950  -15.7080   10.4030 C.3    52  LEU52       0.1596
     83  C         15.7660  -16.7350    9.9930 C.2    52  LEU52       0.2287
     84  O         14.7220  -16.8190   10.5730 O.2    52  LEU52      -0.2864
     85  CB        16.4990  -14.4100    9.6580 C.3    52  LEU52       0.0297
     86  CG        17.4250  -13.2450    9.9530 C.3    52  LEU52       0.0022
     87  CD1       16.8280  -12.0040    9.2570 C.3    52  LEU52       0.0001
     88  CD2       17.5980  -13.0300   11.4510 C.3    52  LEU52       0.0001
     89  N         15.6110  -17.2060    0.4800 N.3    67  VAL67      -0.1231
     90  CA        16.0560  -16.8030   -0.8640 C.3    67  VAL67       0.1692
     91  C         17.2940  -15.9210   -0.7080 C.2    67  VAL67       0.2592
     92  O         17.2820  -14.9400    0.0430 O.2    67  VAL67      -0.2718
     93  CB        14.9440  -16.0750   -1.6180 C.3    67  VAL67       0.0266
     94  CG1       15.4310  -15.6500   -3.0170 C.3    67  VAL67       0.0020
     95  CG2       13.7190  -16.9950   -1.7110 C.3    67  VAL67       0.0020
     96  N         18.3600  -16.2840   -1.4120 N.am   68  GLU68      -0.1966
     97  CA        19.6290  -15.5960   -1.2790 C.3    68  GLU68       0.1733
     98  C         20.3300  -15.5410   -2.6110 C.2    68  GLU68       0.2616
     99  O         20.5490  -16.5660   -3.2320 O.2    68  GLU68      -0.2715
    100  CB        20.5100  -16.2930   -0.2300 C.3    68  GLU68       0.0429
    101  CG        21.9520  -15.7740   -0.1720 C.3    68  GLU68       0.1163
    102  CD        22.0260  -14.2630    0.0700 C.2    68  GLU68       0.3649
    103  OE1       21.3110  -13.7290    0.9580 O.co2  68  GLU68      -0.2457
    104  OE2       22.8190  -13.5840   -0.6150 O.co2  68  GLU68      -0.2457
    105  N         20.6700  -14.3370   -3.0680 N.am   69  ALA69      -0.1963
    106  CA        21.2940  -14.1800   -4.3660 C.3    69  ALA69       0.1728
    107  C         22.8330  -14.3850   -4.4360 C.2    69  ALA69       0.2616
    108  O         23.3830  -14.7030   -5.4940 O.2    69  ALA69      -0.2715
    109  CB        20.9610  -12.8090   -4.9130 C.3    69  ALA69       0.0334
    110  N         23.5270  -14.1620   -3.3270 N.am   70  SER70      -0.1950
    111  CA        24.9750  -14.2260   -3.3560 C.3    70  SER70       0.1924
    112  C         25.4340  -15.6670   -3.1860 C.2    70  SER70       0.2314
    113  O         24.6210  -16.5660   -2.9380 O.2    70  SER70      -0.2863
    114  CB        25.5610  -13.3280   -2.2750 C.3    70  SER70       0.2116
    115  OG        25.6470  -14.0160   -1.0550 O.3    70  SER70      -0.2180
    116  N         19.4430  -17.1050   -6.0200 N.3    94  GLY94      -0.1210
    117  CA        19.0690  -16.1480   -7.0610 C.3    94  GLY94       0.1940
    118  C         18.2960  -14.9990   -6.4470 C.2    94  GLY94       0.2454
    119  O         17.9400  -15.0660   -5.2660 O.2    94  GLY94      -0.2732
    120  N         18.0000  -13.9610   -7.2420 N.am   95  PRO95      -0.2717
    121  CA        17.2450  -12.8230   -6.6980 C.3    95  PRO95       0.1535
    122  C         15.7950  -13.1820   -6.3890 C.2    95  PRO95       0.2598
    123  O         15.1710  -13.9650   -7.1090 O.2    95  PRO95      -0.2715
    124  CB        17.2990  -11.7780   -7.8080 C.3    95  PRO95       0.0310
    125  CG        18.2100  -12.3100   -8.8860 C.3    95  PRO95       0.0237
    126  CD        18.3790  -13.7780   -8.6560 C.3    95  PRO95       0.0939
    127  N         15.2480  -12.5970   -5.3270 N.am   96  VAL96      -0.1964
    128  CA        13.8660  -12.8780   -4.9960 C.3    96  VAL96       0.1727
    129  C         12.9090  -12.4140   -6.1080 C.2    96  VAL96       0.2616
    130  O         11.7940  -12.9270   -6.2390 O.2    96  VAL96      -0.2715
    131  CB        13.5130  -12.2420   -3.6370 C.3    96  VAL96       0.0290
    132  CG1       13.3740  -10.7180   -3.7600 C.3    96  VAL96       0.0023
    133  CG2       12.2640  -12.9080   -3.0600 C.3    96  VAL96       0.0023
    134  N         13.3450  -11.4700   -6.9380 N.am   97  GLU97      -0.1977
    135  CA        12.5140  -10.9580   -8.0040 C.3    97  GLU97       0.1602
    136  C         12.1270  -12.0410   -9.0240 C.2    97  GLU97       0.2287
    137  O         11.0740  -11.9510   -9.6630 O.2    97  GLU97      -0.2864
    138  CB        13.2270   -9.8050   -8.7030 C.3    97  GLU97       0.0415
    139  CG        13.2180   -8.5090   -7.9010 C.3    97  GLU97       0.1163
    140  CD        14.3370   -8.4000   -6.8790 C.2    97  GLU97       0.3649
    141  OE1       15.0560   -9.3950   -6.6210 O.co2  97  GLU97      -0.2457
    142  OE2       14.4950   -7.2930   -6.3150 O.co2  97  GLU97      -0.2457
    143  N         16.2320   -8.8410    6.7830 N.3   111  GLU111     -0.1231
    144  CA        17.1730   -7.8450    7.2730 C.3   111  GLU111      0.1699
    145  C         17.7370   -7.1650    6.0050 C.2   111  GLU111      0.2592
    146  O         18.6840   -7.6180    5.3830 O.2   111  GLU111     -0.2718
    147  CB        18.2190   -8.4750    8.1530 C.3   111  GLU111      0.0402
    148  CG        18.9460   -7.4820    9.0010 C.3   111  GLU111      0.1161
    149  CD        20.0430   -6.8290    8.2580 C.2   111  GLU111      0.3649
    150  OE1       19.7570   -5.7910    7.6170 O.co2 111  GLU111     -0.2457
    151  OE2       21.1760   -7.3740    8.3070 O.co2 111  GLU111     -0.2457
    152  N         17.0820   -6.0920    5.6470 N.am  112  TRP112     -0.1962
    153  CA        17.2770   -5.4080    4.3640 C.3   112  TRP112      0.1771
    154  C         17.9850   -4.0810    4.4930 C.2   112  TRP112      0.2619
    155  O         18.3520   -3.4680    3.5080 O.2   112  TRP112     -0.2715
    156  CB        15.9370   -5.1880    3.6930 C.3   112  TRP112      0.0590
    157  CG        14.9100   -4.5110    4.5830 C.ar  112  TRP112      0.0006
    158  CD1       13.9740   -5.1260    5.3620 C.ar  112  TRP112      0.0946
    159  CD2       14.7430   -3.1010    4.8040 C.ar  112  TRP112      0.0152
    160  NE1       13.2360   -4.2030    6.0450 N.ar  112  TRP112     -0.2442
    161  CE2       13.6760   -2.9490    5.7100 C.ar  112  TRP112      0.0810
    162  CE3       15.3790   -1.9540    4.3050 C.ar  112  TRP112      0.0012
    163  CZ2       13.2360   -1.6970    6.1520 C.ar  112  TRP112      0.0191
    164  CZ3       14.8960   -0.7020    4.7230 C.ar  112  TRP112      0.0001
    165  CH2       13.8640   -0.5940    5.6340 C.ar  112  TRP112      0.0015
    166  N         18.1720   -3.6120    5.7070 N.am  113  MET113     -0.1977
    167  CA        18.6590   -2.2560    5.9280 C.3   113  MET113      0.1605
    168  C         20.1210   -2.1060    5.6010 C.2   113  MET113      0.2287
    169  O         20.9670   -2.9350    5.9320 O.2   113  MET113     -0.2864
    170  CB        18.4220   -1.8530    7.4010 C.3   113  MET113      0.0413
    171  CG        16.9520   -1.8760    7.8390 C.3   113  MET113      0.0598
    172  SD        16.3560   -3.5380    8.3460 S.3   113  MET113     -0.1393
    173  CE        17.2470   -3.7720    9.8530 C.3   113  MET113      0.0692
    174  N         18.1510   -3.8420    0.5520 N.3   122  MET122     -0.1245
    175  CA        17.2730   -4.6980   -0.1740 C.3   122  MET122      0.1570
    176  C         15.7840   -4.2220   -0.1620 C.2   122  MET122      0.2261
    177  O         14.9170   -4.9990   -0.5490 O.2   122  MET122     -0.2867
    178  CB        17.3100   -6.1300    0.3810 C.3   122  MET122      0.0387
    179  CG        18.5940   -6.6860    1.0970 C.3   122  MET122      0.0595
    180  SD        18.1540   -8.2460    1.8290 S.3   122  MET122     -0.1393
    181  CE        17.3580   -8.9800    0.4340 C.3   122  MET122      0.0692
    182  N         13.5530   -4.9280   -3.0800 N.3   125  SER125     -0.1217
    183  CA        13.3230   -6.3610   -3.2460 C.3   125  SER125      0.1889
    184  C         12.2860   -6.9230   -2.2940 C.2   125  SER125      0.2288
    185  O         11.4700   -7.7450   -2.6960 O.2   125  SER125     -0.2866
    186  CB        14.6220   -7.1370   -3.0670 C.3   125  SER125      0.2089
    187  OG        15.5760   -6.7330   -4.0240 O.3   125  SER125     -0.2183
    188  N         20.5750    1.9850   -5.8640 N.3   304  ARG304     -0.1245
    189  CA        20.9350    1.4710   -4.5410 C.3   304  ARG304      0.1563
    190  C         22.1650    2.1590   -3.9520 C.2   304  ARG304      0.2260
    191  O         22.5900    1.8260   -2.8550 O.2   304  ARG304     -0.2867
    192  CB        21.1470   -0.0470   -4.6180 C.3   304  ARG304      0.0307
    193  CG        20.0070   -0.8600   -3.9740 C.3   304  ARG304      0.0489
    194  CD        19.9700   -2.3030   -4.4660 C.3   304  ARG304      0.2205
    195  NE        21.2970   -2.9230   -4.4390 N.pl3 304  ARG304     -0.0865
    196  CZ        21.6550   -3.9560   -3.6750 C.cat 304  ARG304      0.5346
    197  NH1       20.7890   -4.5430   -2.8530 N.pl3 304  ARG304      0.1354
    198  NH2       22.9000   -4.4140   -3.7470 N.pl3 304  ARG304      0.1354
@<TRIPOS>BOND
     1   137   136    2
     2   136   135    1
     3   125   126    1
     4   125   124    1
     5   138   135    1
     6   138   139    1
     7   126   120    1
     8   135   134    1
     9   139   140    1
    10   124   121    1
    11   120   121    1
    12   120   118   am
    13   123   122    2
    14   117   118    1
    15   117   116    1
    16   134   129   am
    17   140   141   ar
    18   140   142   ar
    19   121   122    1
    20   118   119    2
    21   122   127   am
    22   130   129    2
    23   129   128    1
    24   188   189    1
    25   108   107    2
    26   127   128    1
    27   128   131    1
    28   109   106    1
    29   192   189    1
    30   192   193    1
    31   189   190    1
    32   194   195    1
    33   194   193    1
    34   195   196    2
    35   107   106    1
    36   107   110   am
    37   106   105    1
    38   187   186    1
    39   190   191    2
    40   132   131    1
    41   198   196    1
    42   196   197    1
    43   131   133    1
    44   111   110    1
    45   111   112    1
    46   111   114    1
    47   183   182    1
    48   183   186    1
    49   183   184    1
    50    99    98    2
    51   112   113    2
    52   105    98   am
    53    94    93    1
    54   185   184    2
    55    98    97    1
    56   114   115    1
    57    95    93    1
    58    93    90    1
    59    96    97    1
    60    96    91   am
    61    97   100    1
    62    90    91    1
    63    90    89    1
    64    91    92    2
    65   104   102   ar
    66   177   176    2
    67   100   101    1
    68   175   176    1
    69   175   178    1
    70   175   174    1
    71   101   102    1
    72   102   103   ar
    73   178   179    1
    74   181   180    1
    75   179   180    1
    76    53    54    1
    77    54    55    1
    78    48    47    2
    79    57    55   am
    80    57    58    1
    81    55    56    2
    82    47    46    1
    83    62    63    1
    84    62    59   am
    85    17    15   ar
    86    17    16   ar
    87    61    58    1
    88   155   154    2
    89    65    64    2
    90     7     5    1
    91    45    46    1
    92   156   153    1
    93   156   157    1
    94    58    59    1
    95    63    64    1
    96    46    49    1
    97    15    13   ar
    98    59    60    2
    99    16    14   ar
   100    64    66   am
   101   162   164   ar
   102   162   159   ar
   103   153   154    1
   104   153   152    1
   105     5     6    1
   106     5     2    1
   107   154   166   am
   108   157   159   ar
   109   157   158   ar
   110   164   165   ar
   111   159   161   ar
   112    49    50    1
   113    51    50   ar
   114   158   160   ar
   115   146   145    2
   116    13    14   ar
   117    13    12    1
   118    66    67    1
   119    50    52   ar
   120   168   167    1
   121   168   169    2
   122   165   163   ar
   123   152   145   am
   124   166   167    1
   125   161   160   ar
   126   161   163   ar
   127     1     2    1
   128     2     3    1
   129   167   170    1
   130   145   144    1
   131    67    68    1
   132    67    70    1
   133    25    24    1
   134    68    69    2
   135     8     3   am
   136     8     9    1
   137    12     9    1
   138   143   144    1
   139     3     4    2
   140    72    70    1
   141    70    71    1
   142    24    23    1
   143   144   147    1
   144   170   171    1
   145     9    10    1
   146   150   149   ar
   147   171   172    1
   148   147   148    1
   149   149   151   ar
   150   149   148    1
   151   172   173    1
   152    23    22    1
   153    10    11    2
   154    73    74    1
   155    87    86    1
   156    85    86    1
   157    85    82    1
   158    22    19    1
   159    86    88    1
   160    83    82    1
   161    83    84    2
   162    43    42    1
   163    81    82    1
   164    81    75   am
   165    74    75    1
   166    74    77    1
   167    18    19    1
   168    75    76    2
   169    19    20    1
   170    79    77    1
   171    42    44    1
   172    42    41    2
   173    33    31    1
   174    77    78    1
   175    31    30    1
   176    40    41    1
   177    40    39    1
   178    20    26   am
   179    20    21    2
   180    26    27    1
   181    30    27    1
   182    30    32    1
   183    39    38    1
   184    78    80    1
   185    27    28    1
   186    38    35    1
   187    28    29    2
   188    37    36    2
   189    35    36    1
   190    35    34    1
