@<TRIPOS>MOLECULE
tmp/4c0bB00.pdb
 224 216 0 0 0
SMALL
GASTEIGER

@<TRIPOS>ATOM
      1  N        -18.6410  -28.9650  -12.2480 N.3    17  ASP17      -0.1239
      2  CA       -17.2730  -29.4150  -12.3410 C.3    17  ASP17       0.1674
      3  C        -16.9340  -29.7430  -13.7910 C.2    17  ASP17       0.2266
      4  O        -17.7290  -30.3600  -14.5010 O.2    17  ASP17      -0.2867
      5  CB       -17.1080  -30.7410  -11.5870 C.3    17  ASP17       0.1410
      6  CG       -17.2440  -30.7400  -10.0880 C.2    17  ASP17       0.3668
      7  OD1      -16.4640  -30.0000   -9.4130 O.co2  17  ASP17      -0.2456
      8  OD2      -18.0180  -31.5820   -9.5710 O.co2  17  ASP17      -0.2456
      9  N        -14.7610  -32.2840  -15.1840 N.3    19  GLN19      -0.1231
     10  CA       -14.1160  -33.5020  -14.7140 C.3    19  GLN19       0.1698
     11  C        -13.0690  -33.9340  -15.7230 C.2    19  GLN19       0.2592
     12  O        -13.3790  -34.1850  -16.8960 O.2    19  GLN19      -0.2718
     13  CB       -15.1600  -34.5880  -14.3900 C.3    19  GLN19       0.0381
     14  CG       -16.1900  -34.1110  -13.3470 C.3    19  GLN19       0.0905
     15  CD       -17.1570  -35.1510  -12.8350 C.2    19  GLN19       0.2608
     16  OE1      -17.0610  -36.3450  -13.1340 O.2    19  GLN19      -0.2717
     17  NE2      -18.1050  -34.7130  -12.0160 N.am   19  GLN19      -0.0878
     18  N        -11.7990  -33.9240  -15.2720 N.am   20  ILE20      -0.1980
     19  CA       -10.6130  -34.2340  -16.0730 C.3    20  ILE20       0.1595
     20  C         -9.9470  -35.5150  -15.5910 C.2    20  ILE20       0.2287
     21  O         -9.7290  -35.6830  -14.3950 O.2    20  ILE20      -0.2864
     22  CB        -9.6390  -33.0240  -16.0530 C.3    20  ILE20       0.0276
     23  CG1      -10.2740  -31.7840  -16.6840 C.3    20  ILE20       0.0022
     24  CG2       -8.3050  -33.3500  -16.7270 C.3    20  ILE20       0.0022
     25  CD1       -9.8800  -30.5550  -16.0720 C.3    20  ILE20       0.0001
     26  N         -9.6140  -27.9850   -5.9170 N.3    40  PHE40      -0.1241
     27  CA        -9.7240  -28.2820   -4.4910 C.3    40  PHE40       0.1605
     28  C         -9.4790  -27.0670   -3.6110 C.2    40  PHE40       0.2264
     29  O         -8.5480  -27.0540   -2.7960 O.2    40  PHE40      -0.2867
     30  CB        -8.8920  -29.4820   -4.0760 C.3    40  PHE40       0.0534
     31  CG        -8.9930  -30.7000   -4.9570 C.ar   40  PHE40      -0.0203
     32  CD1      -10.0430  -31.6020   -4.8090 C.ar   40  PHE40      -0.0042
     33  CD2       -7.9980  -30.9870   -5.8860 C.ar   40  PHE40      -0.0042
     34  CE1      -10.1220  -32.7400   -5.6130 C.ar   40  PHE40      -0.0003
     35  CE2       -8.0690  -32.1330   -6.6800 C.ar   40  PHE40      -0.0003
     36  CZ        -9.1250  -33.0060   -6.5320 C.ar   40  PHE40      -0.0000
     37  N         -3.0290  -36.8620  -14.1640 N.3    55  TRP55      -0.1227
     38  CA        -3.8680  -36.8890  -12.9740 C.3    55  TRP55       0.1737
     39  C         -5.3360  -36.5900  -13.2240 C.2    55  TRP55       0.2595
     40  O         -5.6950  -35.9870  -14.2420 O.2    55  TRP55      -0.2718
     41  CB        -3.2580  -36.2390  -11.7220 C.3    55  TRP55       0.0564
     42  CG        -3.3530  -34.7450  -11.5980 C.ar   55  TRP55       0.0003
     43  CD1       -2.7220  -33.8110  -12.3770 C.ar   55  TRP55       0.0946
     44  CD2       -3.9290  -34.0260  -10.4940 C.ar   55  TRP55       0.0152
     45  NE1       -2.9440  -32.5470  -11.8740 N.ar   55  TRP55      -0.2442
     46  CE2       -3.6870  -32.6480  -10.7190 C.ar   55  TRP55       0.0810
     47  CE3       -4.6310  -34.4110   -9.3400 C.ar   55  TRP55       0.0012
     48  CZ2       -4.1380  -31.6530   -9.8370 C.ar   55  TRP55       0.0191
     49  CZ3       -5.0520  -33.4260   -8.4580 C.ar   55  TRP55       0.0001
     50  CH2       -4.8080  -32.0660   -8.7120 C.ar   55  TRP55       0.0015
     51  N         -6.1830  -37.1520  -12.3450 N.am   56  LYS56      -0.1966
     52  CA        -7.6400  -37.0980  -12.3420 C.3    56  LYS56       0.1728
     53  C         -8.0480  -36.0300  -11.3120 C.2    56  LYS56       0.2616
     54  O         -7.5960  -36.0910  -10.1650 O.2    56  LYS56      -0.2715
     55  CB        -8.1620  -38.4850  -11.9200 C.3    56  LYS56       0.0311
     56  CG        -9.5680  -38.8510  -12.3750 C.3    56  LYS56       0.0038
     57  CD       -10.0300  -40.1700  -11.7400 C.3    56  LYS56       0.0206
     58  CE        -9.3470  -41.4040  -12.2850 C.3    56  LYS56       0.1093
     59  NZ        -9.2340  -42.4630  -11.2470 N.3    56  LYS56      -0.1314
     60  N         -8.8660  -35.0350  -11.7210 N.am   57  PHE57      -0.1960
     61  CA        -9.2900  -33.9270  -10.8420 C.3    57  PHE57       0.1756
     62  C        -10.4430  -33.0880  -11.4460 C.2    57  PHE57       0.2461
     63  O        -10.5400  -33.0010  -12.6820 O.2    57  PHE57      -0.2730
     64  CB        -8.0960  -32.9830  -10.5580 C.3    57  PHE57       0.0574
     65  CG        -7.5740  -32.2770  -11.7940 C.ar   57  PHE57      -0.0200
     66  CD1       -6.7330  -32.9340  -12.6920 C.ar   57  PHE57      -0.0042
     67  CD2       -7.9110  -30.9560  -12.0550 C.ar   57  PHE57      -0.0042
     68  CE1       -6.2790  -32.2950  -13.8450 C.ar   57  PHE57      -0.0003
     69  CE2       -7.4600  -30.3210  -13.2130 C.ar   57  PHE57      -0.0003
     70  CZ        -6.6540  -30.9960  -14.1010 C.ar   57  PHE57      -0.0000
     71  N        -11.2100  -32.3440  -10.5940 N.am   58  PRO58      -0.2727
     72  CA       -12.2530  -31.4500  -11.1220 C.3    58  PRO58       0.1402
     73  C        -11.8810  -29.9560  -11.0940 C.2    58  PRO58       0.2269
     74  O        -11.2990  -29.4790  -10.1210 O.2    58  PRO58      -0.2865
     75  CB       -13.3960  -31.6750  -10.1320 C.3    58  PRO58       0.0296
     76  CG       -12.6760  -31.9710   -8.7970 C.3    58  PRO58       0.0237
     77  CD       -11.2510  -32.3630   -9.1150 C.3    58  PRO58       0.0939
     78  N        -22.3450  -30.0490   -9.6410 N.3    84  ASN84      -0.1240
     79  CA       -21.9710  -30.5360   -8.3240 C.3    84  ASN84       0.1653
     80  C        -23.0240  -30.0480   -7.3290 C.2    84  ASN84       0.2266
     81  O        -23.3500  -28.8630   -7.3310 O.2    84  ASN84      -0.2867
     82  CB       -20.6000  -30.0050   -7.9360 C.3    84  ASN84       0.1155
     83  CG       -20.0460  -30.7010   -6.7370 C.2    84  ASN84       0.2627
     84  OD1      -20.6010  -30.6570   -5.6340 O.2    84  ASN84      -0.2716
     85  ND2      -18.9900  -31.4300   -6.9430 N.am   84  ASN84      -0.0877
     86  N        -20.8420  -29.4490   -2.6370 N.3    87  MET87      -0.1245
     87  CA       -19.9920  -28.3750   -2.1190 C.3    87  MET87       0.1570
     88  C        -20.5590  -27.7240   -0.8600 C.2    87  MET87       0.2261
     89  O        -19.7830  -27.3660    0.0190 O.2    87  MET87      -0.2867
     90  CB       -19.7520  -27.3110   -3.2030 C.3    87  MET87       0.0387
     91  CG       -18.9110  -27.7850   -4.3690 C.3    87  MET87       0.0595
     92  SD       -17.2220  -28.2540   -3.9030 S.3    87  MET87      -0.1393
     93  CE       -17.4660  -30.0790   -3.8700 C.3    87  MET87       0.0692
     94  N        -12.5710  -46.4080    0.8790 N.3   116  SER116     -0.1202
     95  CA       -11.7970  -46.2470   -0.3590 C.3   116  SER116      0.2020
     96  C        -12.5470  -45.3420   -1.3680 C.2   116  SER116      0.2619
     97  O        -13.6700  -45.6650   -1.7940 O.2   116  SER116     -0.2717
     98  CB       -11.4860  -47.6090   -0.9890 C.3   116  SER116      0.2103
     99  OG       -11.4290  -48.6810   -0.0550 O.3   116  SER116     -0.2182
    100  N        -11.9110  -44.1950   -1.7180 N.am  117  GLN117     -0.1965
    101  CA       -12.3930  -43.1490   -2.6360 C.3   117  GLN117      0.1733
    102  C        -13.7520  -42.5720   -2.2590 C.2   117  GLN117      0.2617
    103  O        -14.6720  -42.5070   -3.0970 O.2   117  GLN117     -0.2715
    104  CB       -12.2500  -43.5170   -4.1290 C.3   117  GLN117      0.0408
    105  CG       -10.8070  -43.7150   -4.5910 C.3   117  GLN117      0.0908
    106  CD       -10.3570  -45.1510   -4.4260 C.2   117  GLN117      0.2608
    107  OE1      -10.8790  -46.0780   -5.0590 O.2   117  GLN117     -0.2717
    108  NE2       -9.3770  -45.3720   -3.5700 N.am  117  GLN117     -0.0878
    109  N        -13.8720  -42.1830   -0.9630 N.am  118  THR118     -0.1937
    110  CA       -15.0740  -41.5470   -0.4040 C.3   118  THR118      0.2028
    111  C        -14.9840  -40.0170   -0.5990 C.2   118  THR118      0.2643
    112  O        -16.0300  -39.3290   -0.5800 O.2   118  THR118     -0.2714
    113  CB       -15.3650  -41.9740    1.0630 C.3   118  THR118      0.1808
    114  OG1      -14.1760  -41.9220    1.8530 O.3   118  THR118     -0.2208
    115  CG2      -16.0150  -43.3490    1.1610 C.3   118  THR118      0.0379
    116  N        -13.7330  -39.5320   -0.8070 N.am  119  GLY119     -0.1939
    117  CA       -13.3890  -38.1290   -1.0260 C.3   119  GLY119      0.2014
    118  C        -12.5950  -37.4970    0.0920 C.2   119  GLY119      0.2639
    119  O        -12.5410  -36.2680    0.1900 O.2   119  GLY119     -0.2714
    120  N        -11.9520  -38.3370    0.9320 N.am  120  LYS120     -0.1963
    121  CA       -11.1440  -37.9310    2.0890 C.3   120  LYS120      0.1728
    122  C        -10.0510  -36.9210    1.7660 C.2   120  LYS120      0.2617
    123  O         -9.9720  -35.8800    2.4240 O.2   120  LYS120     -0.2715
    124  CB       -10.5410  -39.1550    2.8060 C.3   120  LYS120      0.0311
    125  CG       -11.5540  -40.0850    3.4540 C.3   120  LYS120      0.0038
    126  CD       -10.8590  -41.1910    4.2170 C.3   120  LYS120      0.0206
    127  CE       -10.3430  -42.2690    3.3160 C.3   120  LYS120      0.1093
    128  NZ        -9.1300  -42.8570    3.8980 N.3   120  LYS120     -0.1314
    129  N         -9.2010  -37.2350    0.7780 N.am  121  THR121     -0.1937
    130  CA        -8.0840  -36.3600    0.4110 C.3   121  THR121      0.2028
    131  C         -8.5590  -35.0790   -0.2820 C.2   121  THR121      0.2642
    132  O         -7.9500  -34.0180   -0.0840 O.2   121  THR121     -0.2714
    133  CB        -6.9520  -37.1250   -0.2930 C.3   121  THR121      0.1808
    134  OG1       -6.8420  -38.4530    0.2460 O.3   121  THR121     -0.2208
    135  CG2       -5.6320  -36.4120   -0.1910 C.3   121  THR121      0.0379
    136  N         -9.6780  -35.1740   -1.0310 N.am  122  SER122     -0.1949
    137  CA       -10.3150  -34.0370   -1.7070 C.3   122  SER122      0.1924
    138  C        -10.9030  -33.0370   -0.7010 C.2   122  SER122      0.2314
    139  O        -10.7880  -31.8310   -0.9170 O.2   122  SER122     -0.2863
    140  CB       -11.3930  -34.5290   -2.6630 C.3   122  SER122      0.2116
    141  OG       -10.8270  -35.4510   -3.5810 O.3   122  SER122     -0.2180
    142  N         -1.6120  -41.6140    5.4840 N.3   145  ASP145     -0.1239
    143  CA        -1.6890  -42.6820    4.4900 C.3   145  ASP145      0.1674
    144  C         -0.3400  -42.6620    3.7610 C.2   145  ASP145      0.2266
    145  O         -0.0800  -41.7370    2.9740 O.2   145  ASP145     -0.2867
    146  CB        -2.8800  -42.4940    3.5170 C.3   145  ASP145      0.1410
    147  CG        -3.0670  -43.5700    2.4490 C.2   145  ASP145      0.3668
    148  OD1       -2.4980  -44.6770    2.6050 O.co2 145  ASP145     -0.2456
    149  OD2       -3.8420  -43.3300    1.4910 O.co2 145  ASP145     -0.2456
    150  N          0.0020  -42.3880   -0.2210 N.3   148  GLN148     -0.1245
    151  CA        -0.3810  -41.1050   -0.7890 C.3   148  GLN148      0.1566
    152  C          0.7540  -40.0840   -0.6670 C.2   148  GLN148      0.2260
    153  O          1.0070  -39.6020    0.4310 O.2   148  GLN148     -0.2867
    154  CB        -1.6670  -40.6180   -0.0830 C.3   148  GLN148      0.0367
    155  CG        -2.5010  -39.5860   -0.8330 C.3   148  GLN148      0.0905
    156  CD        -2.9010  -40.0310   -2.2110 C.2   148  GLN148      0.2608
    157  OE1       -3.5450  -41.0730   -2.4010 O.2   148  GLN148     -0.2717
    158  NE2       -2.5020  -39.2500   -3.1990 N.am  148  GLN148     -0.0878
    159  N         -6.5550  -39.9300    7.0860 N.3   236  THR236     -0.1218
    160  CA        -6.2080  -41.2870    7.5040 C.3   236  THR236      0.1862
    161  C         -6.2290  -42.2890    6.3320 C.2   236  THR236      0.2287
    162  O         -6.9000  -42.0230    5.3250 O.2   236  THR236     -0.2866
    163  CB        -7.2080  -41.7270    8.6120 C.3   236  THR236      0.1770
    164  OG1       -8.5440  -41.7350    8.0930 O.3   236  THR236     -0.2211
    165  CG2       -7.1400  -40.8540    9.8480 C.3   236  THR236      0.0375
    166  N         -7.5370  -45.6160    4.1450 N.3   238  SER238     -0.1217
    167  CA        -8.8670  -46.1970    3.9230 C.3   238  SER238      0.1889
    168  C         -9.1840  -47.1710    5.0690 C.2   238  SER238      0.2288
    169  O         -8.3520  -48.0030    5.4340 O.2   238  SER238     -0.2866
    170  CB        -8.9510  -46.8700    2.5550 C.3   238  SER238      0.2089
    171  OG        -9.6270  -48.1180    2.5630 O.3   238  SER238     -0.2183
    172  N        -20.0590  -35.6680   -4.4690 N.3   295  ASP295     -0.1225
    173  CA       -20.2750  -35.7150   -5.9210 C.3   295  ASP295      0.1805
    174  C        -18.9450  -35.5800   -6.6470 C.2   295  ASP295      0.2598
    175  O        -18.0890  -34.7900   -6.2470 O.2   295  ASP295     -0.2718
    176  CB       -21.2610  -34.6190   -6.4040 C.3   295  ASP295      0.1424
    177  CG       -22.7440  -34.9710   -6.3860 C.2   295  ASP295      0.3668
    178  OD1      -23.1050  -36.0280   -5.8260 O.co2 295  ASP295     -0.2456
    179  OD2      -23.5510  -34.1780   -6.9190 O.co2 295  ASP295     -0.2456
    180  N        -18.7900  -36.3970   -7.6840 N.am  296  GLY296     -0.1942
    181  CA       -17.6160  -36.4220   -8.5390 C.3   296  GLY296      0.2014
    182  C        -16.4560  -37.2880   -8.0890 C.2   296  GLY296      0.2639
    183  O        -15.6100  -37.6240   -8.9140 O.2   296  GLY296     -0.2714
    184  N        -16.3760  -37.6450   -6.7990 N.am  297  VAL297     -0.1963
    185  CA       -15.2660  -38.4640   -6.2900 C.3   297  VAL297      0.1727
    186  C        -15.2370  -39.8300   -6.9950 C.2   297  VAL297      0.2616
    187  O        -16.1260  -40.6600   -6.7820 O.2   297  VAL297     -0.2715
    188  CB       -15.2440  -38.5570   -4.7420 C.3   297  VAL297      0.0290
    189  CG1      -14.1140  -39.4560   -4.2730 C.3   297  VAL297      0.0023
    190  CG2      -15.1230  -37.1740   -4.1150 C.3   297  VAL297      0.0023
    191  N        -14.2360  -40.0200   -7.8800 N.am  298  SER298     -0.1950
    192  CA       -14.0750  -41.2300   -8.7040 C.3   298  SER298      0.1924
    193  C        -13.1080  -42.2600   -8.1300 C.2   298  SER298      0.2314
    194  O        -12.1700  -41.9000   -7.4200 O.2   298  SER298     -0.2863
    195  CB       -13.7130  -40.8740  -10.1470 C.3   298  SER298      0.2116
    196  OG       -12.6990  -39.8860  -10.2090 O.3   298  SER298     -0.2180
    197  N        -10.1700  -45.1220   -7.7930 N.3   300  VAL300     -0.1245
    198  CA        -8.7540  -45.0660   -8.1340 C.3   300  VAL300      0.1561
    199  C         -8.1270  -46.4600   -8.0650 C.2   300  VAL300      0.2260
    200  O         -8.1800  -47.1140   -7.0140 O.2   300  VAL300     -0.2867
    201  CB        -8.0420  -43.9930   -7.2660 C.3   300  VAL300      0.0252
    202  CG1       -6.5620  -44.2940   -7.0570 C.3   300  VAL300      0.0019
    203  CG2       -8.2390  -42.6080   -7.8700 C.3   300  VAL300      0.0019
    204  N         -2.8750  -46.1990  -11.2380 N.3   304  TYR304     -0.1227
    205  CA        -2.8830  -44.7330  -11.0870 C.3   304  TYR304      0.1736
    206  C         -2.1290  -44.3440   -9.8080 C.2   304  TYR304      0.2595
    207  O         -1.4120  -43.3380   -9.8000 O.2   304  TYR304     -0.2718
    208  CB        -4.3300  -44.1960  -11.0550 C.3   304  TYR304      0.0548
    209  CG        -4.4760  -42.7170  -10.7410 C.ar  304  TYR304     -0.0200
    210  CD1       -4.1370  -41.7460  -11.6780 C.ar  304  TYR304     -0.0009
    211  CD2       -5.0400  -42.2950   -9.5460 C.ar  304  TYR304     -0.0009
    212  CE1       -4.3090  -40.3900  -11.4120 C.ar  304  TYR304      0.0417
    213  CE2       -5.2350  -40.9450   -9.2760 C.ar  304  TYR304      0.0417
    214  CZ        -4.8600  -39.9930  -10.2080 C.ar  304  TYR304      0.1957
    215  OH        -5.0220  -38.6550   -9.9230 O.3   304  TYR304     -0.2866
    216  N         -2.3010  -45.1490   -8.7310 N.am  305  LYS305     -0.1980
    217  CA        -1.6360  -44.9690   -7.4480 C.3   305  LYS305      0.1596
    218  C         -0.1160  -45.0580   -7.6750 C.2   305  LYS305      0.2287
    219  O          0.6170  -44.1820   -7.2140 O.2   305  LYS305     -0.2864
    220  CB        -2.1230  -46.0200   -6.4390 C.3   305  LYS305      0.0298
    221  CG        -2.5480  -45.4190   -5.0990 C.3   305  LYS305      0.0038
    222  CD        -3.9830  -45.7940   -4.7010 C.3   305  LYS305      0.0206
    223  CE        -4.0450  -46.5170   -3.3830 C.3   305  LYS305      0.1093
    224  NZ        -5.3980  -47.0580   -3.1130 N.3   305  LYS305     -0.1314
@<TRIPOS>BOND
     1    12    11    2
     2    24    22    1
     3    23    25    1
     4    23    22    1
     5    19    22    1
     6    19    20    1
     7    19    18    1
     8    11    18   am
     9    11    10    1
    10    20    21    2
    11     9    10    1
    12    10    13    1
    13     4     3    2
    14    13    14    1
    15    40    39    2
    16    37    38    1
    17    70    68   ar
    18    70    69   ar
    19    68    66   ar
    20     3     2    1
    21    14    15    1
    22    39    38    1
    23    39    51   am
    24    69    67   ar
    25    16    15    2
    26    38    41    1
    27    15    17   am
    28    66    65   ar
    29    63    62    2
    30    43    45   ar
    31    43    42   ar
    32    56    55    1
    33    56    57    1
    34    51    52    1
    35    52    55    1
    36    52    53    1
    37     2     1    1
    38     2     5    1
    39    58    57    1
    40    58    59    1
    41    67    65   ar
    42    45    46   ar
    43    65    64    1
    44    41    42    1
    45    60    53   am
    46    60    61    1
    47   210   212   ar
    48   210   209   ar
    49    42    44   ar
    50     5     6    1
    51    62    61    1
    52    62    71   am
    53   212   214   ar
    54    53    54    2
    55   204   205    1
    56    72    73    1
    57    72    71    1
    58    72    75    1
    59    73    74    2
    60   205   208    1
    61   205   206    1
    62   208   209    1
    63    61    64    1
    64   209   211   ar
    65    46    44   ar
    66    46    48   ar
    67    71    77    1
    68    44    47   ar
    69   196   195    1
    70   214   215    1
    71   214   213   ar
    72   195   192    1
    73    75    76    1
    74     6     8   ar
    75     6     7   ar
    76    48    50   ar
    77   206   207    2
    78   206   216   am
    79    78    79    1
    80   211   213   ar
    81    47    49   ar
    82    77    76    1
    83   183   182    2
    84   216   217    1
    85    50    49   ar
    86   192   193    1
    87   192   191    1
    88   181   182    1
    89   181   180    1
    90    79    82    1
    91    79    80    1
    92   198   199    1
    93   198   197    1
    94   198   201    1
    95   193   194    2
    96   182   184   am
    97   199   200    2
    98    82    83    1
    99   191   186   am
   100   203   201    1
   101   180   174   am
   102   218   217    1
   103   218   219    2
   104   217   220    1
   105    81    80    2
   106   201   202    1
   107   186   187    2
   108   186   185    1
   109    85    83   am
   110   179   177   ar
   111   184   185    1
   112    83    84    2
   113    35    36   ar
   114    35    33   ar
   115   174   175    2
   116   174   173    1
   117    36    34   ar
   118   220   221    1
   119   176   177    1
   120   176   173    1
   121   177   178   ar
   122   185   188    1
   123   173   172    1
   124    26    27    1
   125    33    31   ar
   126    34    32   ar
   127   221   222    1
   128   107   106    2
   129    31    32   ar
   130    31    30    1
   131   188   189    1
   132   188   190    1
   133   222   223    1
   134   105   106    1
   135   105   104    1
   136    27    30    1
   137    27    28    1
   138   106   108   am
   139    91    92    1
   140    91    90    1
   141   104   101    1
   142    92    93    1
   143    28    29    2
   144   141   140    1
   145   223   224    1
   146    90    87    1
   147   158   156   am
   148   103   102    2
   149   140   137    1
   150    86    87    1
   151   101   102    1
   152   101   100    1
   153   157   156    2
   154   102   109   am
   155   156   155    1
   156    87    88    1
   157    97    96    2
   158   100    96   am
   159   137   136    1
   160   137   138    1
   161    96    95    1
   162   136   131   am
   163   117   116    1
   164   117   118    1
   165    98    95    1
   166    98    99    1
   167   109   110    1
   168   139   138    2
   169    88    89    2
   170   155   154    1
   171   116   111   am
   172   151   152    1
   173   151   150    1
   174   151   154    1
   175   152   153    2
   176   111   112    2
   177   111   110    1
   178   110   113    1
   179    95    94    1
   180   133   135    1
   181   133   134    1
   182   133   130    1
   183   131   132    2
   184   131   130    1
   185   118   119    2
   186   118   120   am
   187   130   129    1
   188   129   122   am
   189   120   121    1
   190   113   115    1
   191   113   114    1
   192   149   147   ar
   193   122   121    1
   194   122   123    2
   195   121   124    1
   196   147   148   ar
   197   147   146    1
   198   170   171    1
   199   170   167    1
   200   124   125    1
   201   145   144    2
   202   127   128    1
   203   127   126    1
   204   125   126    1
   205   146   143    1
   206   144   143    1
   207   167   166    1
   208   167   168    1
   209   143   142    1
   210   168   169    2
   211   162   161    2
   212   161   160    1
   213   159   160    1
   214   160   163    1
   215   164   163    1
   216   163   165    1
