@<TRIPOS>MOLECULE
tmp/4c0jA00.pdb
 147 139 0 0 0
SMALL
GASTEIGER

@<TRIPOS>ATOM
      1  N          1.1090   30.0880   -1.8290 N.3    13  ILE13      -0.1245
      2  CA        -0.0500   30.9380   -2.0770 C.3    13  ILE13       0.1561
      3  C         -1.3480   30.1320   -2.0680 C.2    13  ILE13       0.2260
      4  O         -2.3750   30.5980   -1.5730 O.2    13  ILE13      -0.2867
      5  CB         0.0960   31.7120   -3.4070 C.3    13  ILE13       0.0252
      6  CG1        1.3010   32.6520   -3.3390 C.3    13  ILE13       0.0019
      7  CG2       -1.1630   32.5040   -3.7160 C.3    13  ILE13       0.0019
      8  CD1        1.4620   33.5330   -4.5590 C.3    13  ILE13       0.0001
      9  N         -4.4340   30.7300    0.4170 N.3    17  CYS17      -0.1235
     10  CA        -5.7400   30.9800   -0.1820 C.3    17  CYS17       0.1677
     11  C         -6.7320   29.8620    0.1280 C.2    17  CYS17       0.2270
     12  O         -7.9300   29.9980   -0.1190 O.2    17  CYS17      -0.2867
     13  CB        -5.6130   31.1810   -1.6940 C.3    17  CYS17       0.0956
     14  SG        -4.7520   32.6970   -2.1660 S.3    17  CYS17      -0.0801
     15  N         -9.6810   25.5190   -3.7260 N.3    25  LEU25      -0.1245
     16  CA        -9.9730   26.9440   -3.8030 C.3    25  LEU25       0.1561
     17  C        -11.3880   27.1580   -4.3200 C.2    25  LEU25       0.2260
     18  O        -11.6070   27.2760   -5.5260 O.2    25  LEU25      -0.2867
     19  CB        -8.9720   27.6580   -4.7130 C.3    25  LEU25       0.0270
     20  CG        -7.5080   27.6530   -4.2760 C.3    25  LEU25       0.0019
     21  CD1       -6.6630   28.4870   -5.2270 C.3    25  LEU25       0.0001
     22  CD2       -7.3720   28.1570   -2.8520 C.3    25  LEU25       0.0001
     23  N        -11.5400   32.5220   -4.2020 N.3    30  LEU30      -0.1245
     24  CA       -11.0900   32.9010   -5.5380 C.3    30  LEU30       0.1561
     25  C        -11.4890   34.3340   -5.8840 C.2    30  LEU30       0.2260
     26  O        -10.7250   35.0640   -6.5140 O.2    30  LEU30      -0.2867
     27  CB       -11.6300   31.9290   -6.5890 C.3    30  LEU30       0.0270
     28  CG       -10.9680   30.5510   -6.6430 C.3    30  LEU30       0.0019
     29  CD1      -11.5670   29.7150   -7.7610 C.3    30  LEU30       0.0001
     30  CD2       -9.4630   30.6880   -6.8160 C.3    30  LEU30       0.0001
     31  N         -9.5570   36.8500   -2.9640 N.3    33  PHE33      -0.1227
     32  CA        -8.1510   37.1090   -3.2530 C.3    33  PHE33       0.1736
     33  C         -7.9490   37.7050   -4.6440 C.2    33  PHE33       0.2595
     34  O         -6.8540   38.1570   -4.9810 O.2    33  PHE33      -0.2718
     35  CB        -7.3200   35.8360   -3.0730 C.3    33  PHE33       0.0547
     36  CG        -7.2900   35.3320   -1.6560 C.ar   33  PHE33      -0.0202
     37  CD1       -6.6080   36.0320   -0.6760 C.ar   33  PHE33      -0.0042
     38  CD2       -7.9440   34.1640   -1.3030 C.ar   33  PHE33      -0.0042
     39  CE1       -6.5780   35.5770    0.6280 C.ar   33  PHE33      -0.0003
     40  CE2       -7.9190   33.7050   -0.0010 C.ar   33  PHE33      -0.0003
     41  CZ        -7.2340   34.4110    0.9660 C.ar   33  PHE33      -0.0000
     42  N         -9.0070   37.7010   -5.4490 N.am   34  GLN34      -0.1979
     43  CA        -8.9870   38.3830   -6.7350 C.3    34  GLN34       0.1601
     44  C         -8.9180   39.8830   -6.4870 C.2    34  GLN34       0.2287
     45  O         -8.1930   40.6060   -7.1710 O.2    34  GLN34      -0.2864
     46  CB       -10.2390   38.0420   -7.5460 C.3    34  GLN34       0.0394
     47  CG       -10.3010   38.7000   -8.9170 C.3    34  GLN34       0.0908
     48  CD        -9.3660   38.0570   -9.9240 C.2    34  GLN34       0.2608
     49  OE1       -8.8100   36.9870   -9.6780 O.2    34  GLN34      -0.2717
     50  NE2       -9.1920   38.7090  -11.0680 N.am   34  GLN34      -0.0878
     51  N         -5.4660   41.0900   -5.2200 N.3    37  CYS37      -0.1221
     52  CA        -4.3990   41.1870   -6.2110 C.3    37  CYS37       0.1808
     53  C         -4.7160   42.1530   -7.3510 C.2    37  CYS37       0.2601
     54  O         -3.8220   42.8250   -7.8640 O.2    37  CYS37      -0.2717
     55  CB        -4.0760   39.8020   -6.7780 C.3    37  CYS37       0.0970
     56  SG        -3.5880   38.5810   -5.5370 S.3    37  CYS37      -0.0800
     57  N         -5.9840   42.2250   -7.7450 N.am   38  PHE38      -0.1976
     58  CA        -6.3620   43.0050   -8.9230 C.3    38  PHE38       0.1639
     59  C         -7.3850   44.1070   -8.6420 C.2    38  PHE38       0.2290
     60  O         -7.7720   44.8400   -9.5530 O.2    38  PHE38      -0.2864
     61  CB        -6.8820   42.0810  -10.0270 C.3    38  PHE38       0.0560
     62  CG        -5.9500   40.9520  -10.3630 C.ar   38  PHE38      -0.0200
     63  CD1       -4.7590   41.1940  -11.0270 C.ar   38  PHE38      -0.0042
     64  CD2       -6.2680   39.6490  -10.0210 C.ar   38  PHE38      -0.0042
     65  CE1       -3.9010   40.1560  -11.3390 C.ar   38  PHE38      -0.0003
     66  CE2       -5.4150   38.6070  -10.3300 C.ar   38  PHE38      -0.0003
     67  CZ        -4.2290   38.8610  -10.9900 C.ar   38  PHE38      -0.0000
     68  N        -14.0900   38.8530   -9.2420 N.3    42  LEU42      -0.1245
     69  CA       -13.9370   37.8250  -10.2580 C.3    42  LEU42       0.1561
     70  C        -15.2380   37.6660  -11.0330 C.2    42  LEU42       0.2260
     71  O        -16.2750   37.3220  -10.4650 O.2    42  LEU42      -0.2867
     72  CB       -13.5310   36.4970   -9.6200 C.3    42  LEU42       0.0270
     73  CG       -13.2380   35.3440  -10.5790 C.3    42  LEU42       0.0019
     74  CD1      -11.9970   35.6320  -11.4060 C.3    42  LEU42       0.0001
     75  CD2      -13.0830   34.0450   -9.8120 C.3    42  LEU42       0.0001
     76  N        -12.0120   29.5930  -16.9910 N.3    50  VAL50      -0.1245
     77  CA       -10.8070   29.1310  -16.3120 C.3    50  VAL50       0.1561
     78  C        -10.9360   27.6540  -15.9480 C.2    50  VAL50       0.2260
     79  O        -10.0070   26.8680  -16.1450 O.2    50  VAL50      -0.2867
     80  CB       -10.5230   29.9690  -15.0430 C.3    50  VAL50       0.0252
     81  CG1       -9.6940   29.1790  -14.0380 C.3    50  VAL50       0.0019
     82  CG2       -9.8320   31.2740  -15.4110 C.3    50  VAL50       0.0019
     83  N         -4.2920   24.4680  -10.2010 N.3    72  PHE72      -0.1241
     84  CA        -3.8750   25.8240   -9.8800 C.3    72  PHE72       0.1605
     85  C         -2.4480   26.0790  -10.3580 C.2    72  PHE72       0.2264
     86  O         -2.1530   27.1330  -10.9200 O.2    72  PHE72      -0.2867
     87  CB        -3.9980   26.0770   -8.3750 C.3    72  PHE72       0.0534
     88  CG        -3.3650   27.3580   -7.9240 C.ar   72  PHE72      -0.0203
     89  CD1       -3.9950   28.5710   -8.1420 C.ar   72  PHE72      -0.0042
     90  CD2       -2.1410   27.3490   -7.2770 C.ar   72  PHE72      -0.0042
     91  CE1       -3.4130   29.7510   -7.7290 C.ar   72  PHE72      -0.0003
     92  CE2       -1.5540   28.5250   -6.8620 C.ar   72  PHE72      -0.0003
     93  CZ        -2.1910   29.7280   -7.0880 C.ar   72  PHE72      -0.0000
     94  N         -2.5540   26.2600  -14.1490 N.3    75  LEU75      -0.1231
     95  CA        -3.1640   27.4920  -14.6350 C.3    75  LEU75       0.1693
     96  C         -2.1540   28.6320  -14.7440 C.2    75  LEU75       0.2592
     97  O         -2.1650   29.3890  -15.7130 O.2    75  LEU75      -0.2718
     98  CB        -4.3310   27.9040  -13.7360 C.3    75  LEU75       0.0284
     99  CG        -5.0890   29.1610  -14.1630 C.3    75  LEU75       0.0019
    100  CD1       -5.6760   28.9830  -15.5530 C.3    75  LEU75       0.0001
    101  CD2       -6.1750   29.5020  -13.1580 C.3    75  LEU75       0.0001
    102  N         -1.2810   28.7470  -13.7480 N.am   76  HIS76      -0.1976
    103  CA        -0.2430   29.7720  -13.7610 C.3    76  HIS76       0.1656
    104  C          0.9380   29.3530  -14.6300 C.2    76  HIS76       0.2291
    105  O          1.6630   30.1980  -15.1550 O.2    76  HIS76      -0.2864
    106  CB         0.2250   30.0930  -12.3410 C.3    76  HIS76       0.0771
    107  CG        -0.7810   30.8490  -11.5300 C.ar   76  HIS76       0.0820
    108  ND1       -0.9010   32.2210  -11.5860 N.ar   76  HIS76      -0.2267
    109  CD2       -1.7150   30.4250  -10.6470 C.ar   76  HIS76       0.1154
    110  CE1       -1.8660   32.6090  -10.7710 C.ar   76  HIS76       0.1986
    111  NE2       -2.3750   31.5390  -10.1890 N.ar   76  HIS76      -0.2212
    112  N         -0.2580   30.7110  -17.8390 N.3    79  PHE79      -0.1241
    113  CA        -0.2130   32.1680  -17.9330 C.3    79  PHE79       0.1605
    114  C          1.1340   32.7060  -18.4120 C.2    79  PHE79       0.2264
    115  O          1.1850   33.6330  -19.2200 O.2    79  PHE79      -0.2867
    116  CB        -0.5580   32.7930  -16.5810 C.3    79  PHE79       0.0534
    117  CG        -2.0280   32.8160  -16.2730 C.ar   79  PHE79      -0.0203
    118  CD1       -2.9470   33.2060  -17.2330 C.ar   79  PHE79      -0.0042
    119  CD2       -2.4900   32.4570  -15.0170 C.ar   79  PHE79      -0.0042
    120  CE1       -4.2990   33.2330  -16.9460 C.ar   79  PHE79      -0.0003
    121  CE2       -3.8400   32.4820  -14.7250 C.ar   79  PHE79      -0.0003
    122  CZ        -4.7460   32.8700  -15.6920 C.ar   79  PHE79      -0.0000
    123  N          0.0410   38.7360  -14.9780 N.3    87  THR87      -0.1218
    124  CA        -1.0990   38.2740  -14.1950 C.3    87  THR87       0.1862
    125  C         -0.6140   37.3780  -13.0600 C.2    87  THR87       0.2287
    126  O         -1.0610   37.5050  -11.9200 O.2    87  THR87      -0.2866
    127  CB        -2.1270   37.5270  -15.0760 C.3    87  THR87       0.1770
    128  OG1       -3.0610   38.4680  -15.6190 O.3    87  THR87      -0.2211
    129  CG2       -2.8900   36.4870  -14.2680 C.3    87  THR87       0.0375
    130  N         -0.0070   38.4350   -8.6630 N.3    91  VAL91      -0.1245
    131  CA        -0.3700   37.5590   -7.5550 C.3    91  VAL91       0.1561
    132  C          0.8200   37.3290   -6.6290 C.2    91  VAL91       0.2260
    133  O          0.7070   37.4740   -5.4120 O.2    91  VAL91      -0.2867
    134  CB        -0.8930   36.2020   -8.0600 C.3    91  VAL91       0.0252
    135  CG1       -1.1040   35.2430   -6.8960 C.3    91  VAL91       0.0019
    136  CG2       -2.1800   36.3910   -8.8450 C.3    91  VAL91       0.0019
    137  N          1.6750   38.6510   -2.4840 N.3    95  PHE95      -0.1241
    138  CA         2.0640   37.7510   -1.4030 C.3    95  PHE95       0.1605
    139  C          3.5310   37.9360   -1.0130 C.2    95  PHE95       0.2264
    140  O          4.1420   37.0520   -0.4120 O.2    95  PHE95      -0.2867
    141  CB         1.7670   36.2940   -1.7710 C.3    95  PHE95       0.0534
    142  CG         0.3000   35.9550   -1.7630 C.ar   95  PHE95      -0.0203
    143  CD1       -0.5250   36.3560   -2.8020 C.ar   95  PHE95      -0.0042
    144  CD2       -0.2540   35.2320   -0.7190 C.ar   95  PHE95      -0.0042
    145  CE1       -1.8720   36.0460   -2.7980 C.ar   95  PHE95      -0.0003
    146  CE2       -1.6020   34.9180   -0.7110 C.ar   95  PHE95      -0.0003
    147  CZ        -2.4110   35.3260   -1.7520 C.ar   95  PHE95      -0.0000
@<TRIPOS>BOND
     1   115   114    2
     2   114   113    1
     3   113   112    1
     4   113   116    1
     5   118   120   ar
     6   118   117   ar
     7    76    77    1
     8   120   122   ar
     9   116   117    1
    10    77    78    1
    11    77    80    1
    12   117   119   ar
    13    79    78    2
    14    97    96    2
    15   122   121   ar
    16   128   127    1
    17   100    99    1
    18    82    80    1
    19   105   104    2
    20   127   129    1
    21   127   124    1
    22    80    81    1
    23   119   121   ar
    24   123   124    1
    25    96    95    1
    26    96   102   am
    27    95    94    1
    28    95    98    1
    29   104   103    1
    30   124   125    1
    31    99    98    1
    32    99   101    1
    33   103   102    1
    34   103   106    1
    35   125   126    2
    36   106   107    1
    37   108   107   ar
    38   108   110   ar
    39   107   109   ar
    40    74    73    1
    41    65    63   ar
    42    65    67   ar
    43    50    48   am
    44    70    71    2
    45    70    69    1
    46    63    62   ar
    47    67    66   ar
    48    86    85    2
    49   110   111   ar
    50   109   111   ar
    51    73    75    1
    52    73    72    1
    53    62    61    1
    54    62    64   ar
    55    85    84    1
    56    66    64   ar
    57    69    72    1
    58    69    68    1
    59    83    84    1
    60    61    58    1
    61    48    49    2
    62    48    47    1
    63    84    87    1
    64    60    59    2
    65    58    59    1
    66    58    57    1
    67    47    46    1
    68   136   134    1
    69   130   131    1
    70    87    88    1
    71    89    88   ar
    72    89    91   ar
    73   134   131    1
    74   134   135    1
    75    88    90   ar
    76    54    53    2
    77    29    28    1
    78    57    53   am
    79    91    93   ar
    80   131   132    1
    81    46    43    1
    82    53    52    1
    83    90    92   ar
    84    45    44    2
    85    93    92   ar
    86    30    28    1
    87    55    52    1
    88    55    56    1
    89    43    44    1
    90    43    42    1
    91    28    27    1
    92   132   133    2
    93    27    24    1
    94    26    25    2
    95    52    51    1
    96    25    24    1
    97    24    23    1
    98    18    17    2
    99    42    33   am
   100    21    20    1
   101    34    33    2
   102    19    20    1
   103    19    16    1
   104    33    32    1
   105     8     6    1
   106    17    16    1
   107    20    22    1
   108    16    15    1
   109     7     5    1
   110     5     6    1
   111     5     2    1
   112    32    35    1
   113    32    31    1
   114    35    36    1
   115   143   145   ar
   116   143   142   ar
   117   145   147   ar
   118   137   138    1
   119    14    13    1
   120     2     3    1
   121     2     1    1
   122     3     4    2
   123   141   142    1
   124   141   138    1
   125   142   144   ar
   126   147   146   ar
   127    13    10    1
   128    36    38   ar
   129    36    37   ar
   130   138   139    1
   131    38    40   ar
   132   139   140    2
   133   144   146   ar
   134    37    39   ar
   135    10    11    1
   136    10     9    1
   137    12    11    2
   138    40    41   ar
   139    39    41   ar
