@<TRIPOS>MOLECULE
tmp/4c0lA00.pdb
 157 152 0 0 0
SMALL
GASTEIGER

@<TRIPOS>ATOM
      1  N         19.7950   25.1550   42.7380 N.3   250  LYS250     -0.1231
      2  CA        19.4920   24.0040   41.8980 C.3   250  LYS250      0.1693
      3  C         18.8880   22.8830   42.7350 C.2   250  LYS250      0.2593
      4  O         19.4060   22.5430   43.7980 O.2   250  LYS250     -0.2718
      5  CB        20.7550   23.5080   41.1900 C.3   250  LYS250      0.0285
      6  CG        20.5350   22.2850   40.3150 C.3   250  LYS250      0.0035
      7  CD        21.8310   21.8270   39.6660 C.3   250  LYS250      0.0206
      8  CE        21.6080   20.6010   38.7930 C.3   250  LYS250      0.1093
      9  NZ        22.8720   20.1250   38.1620 N.3   250  LYS250     -0.1314
     10  N         17.7880   22.3140   42.2530 N.am  251  GLY251     -0.1942
     11  CA        17.1250   21.2300   42.9540 C.3   251  GLY251      0.2014
     12  C         16.0750   21.7200   43.9310 C.2   251  GLY251      0.2640
     13  O         15.5240   20.9380   44.7050 O.2   251  GLY251     -0.2714
     14  N         15.7930   23.0190   43.8920 N.am  252  SER252     -0.1935
     15  CA        14.8020   23.6120   44.7820 C.3   252  SER252      0.2055
     16  C         13.3780   23.3620   44.2880 C.2   252  SER252      0.2644
     17  O         12.4100   23.7760   44.9240 O.2   252  SER252     -0.2714
     18  CB        15.0520   25.1120   44.9490 C.3   252  SER252      0.2130
     19  OG        15.0090   25.7810   43.7020 O.3   252  SER252     -0.2179
     20  N         13.2600   22.6860   43.1500 N.am  253  GLY253     -0.1939
     21  CA        11.9650   22.2990   42.6190 C.3   253  GLY253      0.2014
     22  C         11.2190   23.4140   41.9120 C.2   253  GLY253      0.2639
     23  O          9.9910   23.4830   41.9760 O.2   253  GLY253     -0.2714
     24  N         11.9560   24.2870   41.2340 N.am  254  LYS254     -0.1963
     25  CA        11.3410   25.3880   40.4990 C.3   254  LYS254      0.1728
     26  C         11.2150   25.0820   39.0100 C.2   254  LYS254      0.2617
     27  O         10.3660   25.6520   38.3240 O.2   254  LYS254     -0.2715
     28  CB        12.1180   26.6880   40.7130 C.3   254  LYS254      0.0311
     29  CG        13.6170   26.5400   40.5890 C.3   254  LYS254      0.0038
     30  CD        14.3070   27.8880   40.5750 C.3   254  LYS254      0.0206
     31  CE        15.7810   27.7320   40.8840 C.3   254  LYS254      0.1093
     32  NZ        16.3380   26.4830   40.3000 N.3   254  LYS254     -0.1314
     33  N         12.0640   24.1880   38.5120 N.am  255  THR255     -0.1937
     34  CA        11.9630   23.7380   37.1290 C.3   255  THR255      0.2028
     35  C         10.6380   23.0120   36.9320 C.2   255  THR255      0.2642
     36  O          9.9210   23.2590   35.9640 O.2   255  THR255     -0.2714
     37  CB        13.1300   22.8080   36.7370 C.3   255  THR255      0.1808
     38  OG1       14.3570   23.5500   36.7280 O.3   255  THR255     -0.2208
     39  CG2       12.9000   22.2120   35.3560 C.3   255  THR255      0.0379
     40  N         10.3120   22.1260   37.8690 N.am  256  GLY256     -0.1954
     41  CA         9.0500   21.4120   37.8410 C.3   256  GLY256      0.1869
     42  C          7.8800   22.3210   38.1660 C.2   256  GLY256      0.2309
     43  O          6.7420   22.0480   37.7840 O.2   256  GLY256     -0.2863
     44  N          4.7930   15.3480   38.1400 N.3   269  LEU269     -0.1231
     45  CA         6.0850   15.9450   37.8120 C.3   269  LEU269      0.1693
     46  C          7.1630   15.6640   38.8550 C.2   269  LEU269      0.2592
     47  O          8.3240   16.0290   38.6650 O.2   269  LEU269     -0.2718
     48  CB         5.9390   17.4540   37.6100 C.3   269  LEU269      0.0284
     49  CG         5.1230   17.8950   36.3960 C.3   269  LEU269      0.0019
     50  CD1        5.0090   19.4070   36.3580 C.3   269  LEU269      0.0001
     51  CD2        5.7500   17.3700   35.1130 C.3   269  LEU269      0.0001
     52  N          6.7790   15.0180   39.9510 N.am  270  ILE270     -0.1966
     53  CA         7.7100   14.7420   41.0420 C.3   270  ILE270      0.1727
     54  C          8.8540   13.8250   40.6100 C.2   270  ILE270      0.2617
     55  O         10.0070   14.2490   40.5430 O.2   270  ILE270     -0.2715
     56  CB         6.9950   14.1220   42.2580 C.3   270  ILE270      0.0290
     57  CG1        5.8990   15.0580   42.7690 C.3   270  ILE270      0.0022
     58  CG2        7.9930   13.8270   43.3680 C.3   270  ILE270      0.0023
     59  CD1        6.4220   16.3700   43.3120 C.3   270  ILE270      0.0001
     60  N          8.5300   12.5720   40.3100 N.am  271  GLY271     -0.1940
     61  CA         9.5400   11.5950   39.9450 C.3   271  GLY271      0.2014
     62  C         10.0370   11.7260   38.5180 C.2   271  GLY271      0.2638
     63  O         11.0230   11.0950   38.1370 O.2   271  GLY271     -0.2714
     64  N          9.3570   12.5500   37.7270 N.am  272  LYS272     -0.1977
     65  CA         9.6970   12.7150   36.3180 C.3   272  LYS272      0.1596
     66  C         10.9150   13.6120   36.1120 C.2   272  LYS272      0.2287
     67  O         10.9960   14.7050   36.6730 O.2   272  LYS272     -0.2864
     68  CB         8.5020   13.2740   35.5410 C.3   272  LYS272      0.0298
     69  CG         8.7980   13.5670   34.0790 C.3   272  LYS272      0.0038
     70  CD         7.5820   14.1370   33.3700 C.3   272  LYS272      0.0206
     71  CE         7.8980   14.4570   31.9170 C.3   272  LYS272      0.1093
     72  NZ         8.3620   13.2530   31.1730 N.3   272  LYS272     -0.1314
     73  N         13.3990   15.9080   33.5880 N.3   274  PHE274     -0.1241
     74  CA        13.2260   16.7700   32.4260 C.3   274  PHE274      0.1605
     75  C         14.4180   16.6530   31.4830 C.2   274  PHE274      0.2264
     76  O         15.4460   17.3030   31.6770 O.2   274  PHE274     -0.2867
     77  CB        13.0210   18.2210   32.8640 C.3   274  PHE274      0.0534
     78  CG        11.8910   18.4040   33.8370 C.ar  274  PHE274     -0.0203
     79  CD1       10.5820   18.4830   33.3920 C.ar  274  PHE274     -0.0042
     80  CD2       12.1380   18.4910   35.1970 C.ar  274  PHE274     -0.0042
     81  CE1        9.5400   18.6490   34.2850 C.ar  274  PHE274     -0.0003
     82  CE2       11.0990   18.6560   36.0960 C.ar  274  PHE274     -0.0003
     83  CZ         9.7990   18.7340   35.6380 C.ar  274  PHE274     -0.0000
     84  N         18.4210   28.5990   37.3000 N.3   300  ASP300     -0.1239
     85  CA        19.1050   27.9230   38.3980 C.3   300  ASP300      0.1674
     86  C         20.3670   28.6690   38.8230 C.2   300  ASP300      0.2266
     87  O         20.9950   29.3570   38.0180 O.2   300  ASP300     -0.2867
     88  CB        19.4500   26.4800   38.0140 C.3   300  ASP300      0.1410
     89  CG        18.2170   25.6370   37.7450 C.2   300  ASP300      0.3668
     90  OD1       17.1330   25.9920   38.2510 O.co2 300  ASP300     -0.2456
     91  OD2       18.3300   24.6180   37.0300 O.co2 300  ASP300     -0.2456
     92  N          9.3170   26.0670   48.3640 N.3   353  THR353     -0.1203
     93  CA         8.7960   24.8710   47.7140 C.3   353  THR353      0.1994
     94  C          8.8780   23.6470   48.6170 C.2   353  THR353      0.2617
     95  O          9.4510   23.7060   49.7060 O.2   353  THR353     -0.2717
     96  CB         9.5430   24.5720   46.4030 C.3   353  THR353      0.1784
     97  OG1       10.9220   24.3040   46.6860 O.3   353  THR353     -0.2211
     98  CG2        9.4410   25.7530   45.4550 C.3   353  THR353      0.0376
     99  N          8.3010   22.5440   48.1470 N.am  354  LYS354     -0.1979
    100  CA         8.2830   21.2800   48.8800 C.3   354  LYS354      0.1596
    101  C          7.6960   21.4260   50.2820 C.2   354  LYS354      0.2287
    102  O          8.2710   20.9400   51.2560 O.2   354  LYS354     -0.2864
    103  CB         9.6880   20.6750   48.9610 C.3   354  LYS354      0.0298
    104  CG        10.3440   20.4270   47.6160 C.3   354  LYS354      0.0038
    105  CD        11.7020   19.7670   47.7890 C.3   354  LYS354      0.0206
    106  CE        12.4090   19.5910   46.4580 C.3   354  LYS354      0.1093
    107  NZ        13.7180   18.9000   46.6130 N.3   354  LYS354     -0.1314
    108  N          5.1000   20.0370   51.1810 N.3   356  ASP356     -0.1225
    109  CA         4.5260   18.7330   51.4890 C.3   356  ASP356      0.1805
    110  C          5.4610   17.9660   52.4180 C.2   356  ASP356      0.2597
    111  O          5.0250   17.1200   53.1980 O.2   356  ASP356     -0.2718
    112  CB         4.2800   17.9330   50.2080 C.3   356  ASP356      0.1424
    113  CG         5.5570   17.6580   49.4390 C.2   356  ASP356      0.3668
    114  OD1        6.4460   18.5340   49.4250 O.co2 356  ASP356     -0.2456
    115  OD2        5.6720   16.5640   48.8490 O.co2 356  ASP356     -0.2456
    116  N          6.7510   18.2710   52.3230 N.am  357  MET357     -0.1979
    117  CA         7.7480   17.6850   53.2080 C.3   357  MET357      0.1605
    118  C          7.8460   18.5050   54.4910 C.2   357  MET357      0.2287
    119  O          7.2840   19.5970   54.5800 O.2   357  MET357     -0.2864
    120  CB         9.1110   17.6230   52.5150 C.3   357  MET357      0.0413
    121  CG         9.1240   16.7900   51.2430 C.3   357  MET357      0.0598
    122  SD         8.6860   15.0650   51.5350 S.3   357  MET357     -0.1393
    123  CE         8.8440   14.3850   49.8850 C.3   357  MET357      0.0692
    124  N          4.7460   26.2880   48.5230 N.3   383  PHE383     -0.1227
    125  CA         4.3370   25.6560   47.2730 C.3   383  PHE383      0.1736
    126  C          4.6210   24.1570   47.2570 C.2   383  PHE383      0.2596
    127  O          5.6740   23.7070   47.7070 O.2   383  PHE383     -0.2718
    128  CB         5.0260   26.3350   46.0840 C.3   383  PHE383      0.0547
    129  CG         4.6500   25.7540   44.7500 C.ar  383  PHE383     -0.0202
    130  CD1        3.4760   26.1340   44.1200 C.ar  383  PHE383     -0.0042
    131  CD2        5.4690   24.8270   44.1250 C.ar  383  PHE383     -0.0042
    132  CE1        3.1270   25.6020   42.8930 C.ar  383  PHE383     -0.0003
    133  CE2        5.1250   24.2910   42.9000 C.ar  383  PHE383     -0.0003
    134  CZ         3.9520   24.6790   42.2830 C.ar  383  PHE383     -0.0000
    135  N          3.6700   23.3930   46.7280 N.am  384  SER384     -0.1938
    136  CA         3.8360   21.9540   46.5590 C.3   384  SER384      0.2055
    137  C          3.1960   21.4910   45.2560 C.2   384  SER384      0.2643
    138  O          2.1730   22.0280   44.8310 O.2   384  SER384     -0.2714
    139  CB         3.2240   21.1960   47.7370 C.3   384  SER384      0.2130
    140  OG         3.3420   19.7960   47.5570 O.3   384  SER384     -0.2179
    141  N          3.8040   20.4930   44.6240 N.am  385  LEU385     -0.1963
    142  CA         3.2700   19.9390   43.3860 C.3   385  LEU385      0.1728
    143  C          2.1930   18.8950   43.6660 C.2   385  LEU385      0.2616
    144  O          1.4740   18.4750   42.7610 O.2   385  LEU385     -0.2715
    145  CB         4.3890   19.3300   42.5390 C.3   385  LEU385      0.0311
    146  CG         5.3760   20.3130   41.9070 C.3   385  LEU385      0.0022
    147  CD1        6.4360   19.5700   41.1120 C.3   385  LEU385      0.0001
    148  CD2        4.6430   21.3100   41.0270 C.3   385  LEU385      0.0001
    149  N          2.0890   18.4790   44.9250 N.am  386  LYS386     -0.1977
    150  CA         1.0850   17.4990   45.3240 C.3   386  LYS386      0.1596
    151  C         -0.2540   18.1700   45.6130 C.2   386  LYS386      0.2287
    152  O         -1.3030   17.5280   45.5680 O.2   386  LYS386     -0.2864
    153  CB         1.5540   16.7150   46.5520 C.3   386  LYS386      0.0298
    154  CG         2.8240   15.9070   46.3320 C.3   386  LYS386      0.0038
    155  CD         3.0700   14.9500   47.4890 C.3   386  LYS386      0.0206
    156  CE         4.2800   14.0640   47.2350 C.3   386  LYS386      0.1093
    157  NZ         5.5420   14.8510   47.1600 N.3   386  LYS386     -0.1314
@<TRIPOS>BOND
     1    72    71    1
     2    75    76    2
     3    75    74    1
     4    71    70    1
     5    74    77    1
     6    74    73    1
     7    77    78    1
     8    70    69    1
     9    79    78   ar
    10    79    81   ar
    11    78    80   ar
    12    69    68    1
    13    81    83   ar
    14    51    49    1
    15    80    82   ar
    16    39    37    1
    17    68    65    1
    18    83    82   ar
    19    36    35    2
    20    66    65    1
    21    66    67    2
    22    65    64    1
    23    50    49    1
    24    49    48    1
    25    38    37    1
    26    37    34    1
    27    35    34    1
    28    35    40   am
    29    91    89   ar
    30    34    33    1
    31    84    85    1
    32    48    45    1
    33    64    62   am
    34    89    88    1
    35    89    90   ar
    36    43    42    2
    37    45    44    1
    38    45    46    1
    39    41    40    1
    40    41    42    1
    41    88    85    1
    42    87    86    2
    43    63    62    2
    44     9     8    1
    45    27    26    2
    46    85    86    1
    47    33    26   am
    48    62    61    1
    49    47    46    2
    50     8     7    1
    51    46    52   am
    52    26    25    1
    53     7     6    1
    54    61    60    1
    55    52    53    1
    56    32    31    1
    57    60    54   am
    58     6     5    1
    59    25    28    1
    60    25    24    1
    61    55    54    2
    62    30    29    1
    63    30    31    1
    64    29    28    1
    65    54    53    1
    66   148   146    1
    67    53    56    1
    68   147   146    1
    69     5     2    1
    70    24    22   am
    71     2     3    1
    72     2     1    1
    73   146   145    1
    74    22    23    2
    75    22    21    1
    76    10     3   am
    77    10    11    1
    78    56    57    1
    79    56    58    1
    80   134   132   ar
    81   134   133   ar
    82   145   142    1
    83    21    20    1
    84     3     4    2
    85   144   143    2
    86    57    59    1
    87   132   130   ar
    88   133   131   ar
    89    11    12    1
    90    20    16   am
    91   142   143    1
    92   142   141    1
    93   143   149   am
    94    19    18    1
    95    14    12   am
    96    14    15    1
    97    12    13    2
    98   130   129   ar
    99   131   129   ar
   100    16    15    1
   101    16    17    2
   102   141   137   am
   103   129   128    1
   104    15    18    1
   105   138   137    2
   106   149   150    1
   107   137   136    1
   108   150   151    1
   109   150   153    1
   110    98    96    1
   111   152   151    2
   112   128   125    1
   113   154   153    1
   114   154   155    1
   115    96    97    1
   116    96    93    1
   117   106   107    1
   118   106   105    1
   119   136   135    1
   120   136   139    1
   121   135   126   am
   122   157   156    1
   123   156   155    1
   124   126   125    1
   125   126   127    2
   126   125   124    1
   127   140   139    1
   128   104   105    1
   129   104   103    1
   130    93    92    1
   131    93    94    1
   132    99    94   am
   133    99   100    1
   134    94    95    2
   135   115   113   ar
   136   100   103    1
   137   100   101    1
   138   114   113   ar
   139   113   112    1
   140   123   122    1
   141   112   109    1
   142   101   102    2
   143   108   109    1
   144   121   122    1
   145   121   120    1
   146   109   110    1
   147   116   110   am
   148   116   117    1
   149   110   111    2
   150   120   117    1
   151   117   118    1
   152   118   119    2
