@<TRIPOS>MOLECULE
tmp/4c0nA00.pdb
 249 243 0 0 0
SMALL
GASTEIGER

@<TRIPOS>ATOM
      1  N         97.7190  119.0050   43.8110 N.3    43  TYR43      -0.1241
      2  CA        98.0840  117.6160   43.9940 C.3    43  TYR43       0.1605
      3  C         99.5700  117.4260   44.3260 C.2    43  TYR43       0.2264
      4  O         99.9200  116.4690   44.9660 O.2    43  TYR43      -0.2867
      5  CB        97.6540  116.7290   42.7960 C.3    43  TYR43       0.0534
      6  CG        96.2750  116.1370   43.0380 C.ar   43  TYR43      -0.0201
      7  CD1       96.0760  115.2200   44.0480 C.ar   43  TYR43      -0.0009
      8  CD2       95.1830  116.4900   42.2670 C.ar   43  TYR43      -0.0009
      9  CE1       94.8430  114.6700   44.2830 C.ar   43  TYR43       0.0417
     10  CE2       93.9270  115.9370   42.5220 C.ar   43  TYR43       0.0417
     11  CZ        93.7600  115.0530   43.5310 C.ar   43  TYR43       0.1957
     12  OH        92.5360  114.4340   43.7870 O.3    43  TYR43      -0.2866
     13  N         96.5850  111.5260   56.0670 N.3    54  PHE54      -0.1241
     14  CA        96.0210  112.1950   54.8690 C.3    54  PHE54       0.1605
     15  C         96.6660  111.7360   53.5530 C.2    54  PHE54       0.2264
     16  O         95.9690  111.3660   52.6170 O.2    54  PHE54      -0.2867
     17  CB        96.1440  113.7110   54.9470 C.3    54  PHE54       0.0534
     18  CG        95.3350  114.4380   53.8860 C.ar   54  PHE54      -0.0203
     19  CD1       93.9670  114.5440   53.9950 C.ar   54  PHE54      -0.0042
     20  CD2       95.9570  114.9950   52.7790 C.ar   54  PHE54      -0.0042
     21  CE1       93.2220  115.2070   52.9950 C.ar   54  PHE54      -0.0003
     22  CE2       95.2370  115.6310   51.7820 C.ar   54  PHE54      -0.0003
     23  CZ        93.8720  115.7660   51.9100 C.ar   54  PHE54      -0.0000
     24  N         95.5440  108.3330   52.1820 N.3    57  ILE57      -0.1231
     25  CA        94.2380  108.2660   51.5190 C.3    57  ILE57       0.1692
     26  C         94.3990  108.1560   49.9700 C.2    57  ILE57       0.2592
     27  O         93.6200  107.4930   49.3150 O.2    57  ILE57      -0.2718
     28  CB        93.3710  109.5000   51.8850 C.3    57  ILE57       0.0266
     29  CG1       93.0950  109.5250   53.4050 C.3    57  ILE57       0.0019
     30  CG2       92.0260  109.4470   51.1490 C.3    57  ILE57       0.0020
     31  CD1       92.4510  110.8120   53.8850 C.3    57  ILE57       0.0001
     32  N         95.4090  108.8120   49.4250 N.am   58  PHE58      -0.1976
     33  CA        95.6730  108.8800   47.9800 C.3    58  PHE58       0.1639
     34  C         96.6660  107.8100   47.4400 C.2    58  PHE58       0.2290
     35  O         97.0800  107.8870   46.2730 O.2    58  PHE58      -0.2864
     36  CB        96.2450  110.2580   47.6960 C.3    58  PHE58       0.0560
     37  CG        95.2530  111.3740   47.9750 C.ar   58  PHE58      -0.0200
     38  CD1       95.1170  111.9040   49.2530 C.ar   58  PHE58      -0.0042
     39  CD2       94.4160  111.8380   46.9630 C.ar   58  PHE58      -0.0042
     40  CE1       94.1710  112.8910   49.5220 C.ar   58  PHE58      -0.0003
     41  CE2       93.4840  112.8430   47.2220 C.ar   58  PHE58      -0.0003
     42  CZ        93.3560  113.3660   48.4960 C.ar   58  PHE58      -0.0000
     43  N         96.1160  105.8040   44.2150 N.3    61  SER61      -0.1202
     44  CA        95.8460  106.6880   43.1020 C.3    61  SER61       0.2020
     45  C         97.1480  107.2040   42.5090 C.2    61  SER61       0.2618
     46  O         98.0360  107.6070   43.2440 O.2    61  SER61      -0.2717
     47  CB        95.0090  107.8700   43.6240 C.3    61  SER61       0.2103
     48  OG        94.1560  107.4580   44.6930 O.3    61  SER61      -0.2182
     49  N         97.2420  107.2360   41.1960 N.am   62  ASN62      -0.1974
     50  CA        98.3650  107.8440   40.5390 C.3    62  ASN62       0.1688
     51  C         98.1750  109.3590   40.5310 C.2    62  ASN62       0.2292
     52  O         97.1030  109.8390   40.1780 O.2    62  ASN62      -0.2864
     53  CB        98.4450  107.2880   39.1220 C.3    62  ASN62       0.1181
     54  CG        99.4130  108.0310   38.2630 C.2    62  ASN62       0.2629
     55  OD1       99.0680  109.0300   37.6670 O.2    62  ASN62      -0.2716
     56  ND2      100.6390  107.5340   38.1700 N.am   62  ASN62      -0.0877
     57  N         97.0520  110.9570   37.0900 N.3    65  ASP65      -0.1225
     58  CA        95.6510  110.5990   36.7870 C.3    65  ASP65       0.1805
     59  C         94.6910  111.4170   37.6560 C.2    65  ASP65       0.2597
     60  O         93.6730  111.8860   37.1830 O.2    65  ASP65      -0.2718
     61  CB        95.3740  109.1270   37.0650 C.3    65  ASP65       0.1424
     62  CG        96.1310  108.1970   36.1090 C.2    65  ASP65       0.3668
     63  OD1       96.5800  108.6990   35.0560 O.co2  65  ASP65      -0.2456
     64  OD2       96.2550  107.0050   36.4480 O.co2  65  ASP65      -0.2456
     65  N         95.0640  111.5900   38.9190 N.am   66  ALA66      -0.1979
     66  CA        94.2390  112.4030   39.8530 C.3    66  ALA66       0.1597
     67  C         94.1740  113.8430   39.4100 C.2    66  ALA66       0.2287
     68  O         93.0880  114.4390   39.4220 O.2    66  ALA66      -0.2864
     69  CB        94.7590  112.2710   41.2920 C.3    66  ALA66       0.0319
     70  N         91.7200  113.9550   36.4690 N.3    69  ASN69      -0.1225
     71  CA        90.3330  113.8210   36.9260 C.3    69  ASN69       0.1785
     72  C         89.8400  115.1180   37.5230 C.2    69  ASN69       0.2597
     73  O         88.7400  115.5760   37.2100 O.2    69  ASN69      -0.2718
     74  CB        90.1980  112.6730   37.9070 C.3    69  ASN69       0.1169
     75  CG        90.4940  111.3140   37.2850 C.2    69  ASN69       0.2627
     76  OD1       90.3210  111.0950   36.0890 O.2    69  ASN69      -0.2716
     77  ND2       90.9050  110.3870   38.1210 N.am   69  ASN69      -0.0877
     78  N         90.6660  115.7700   38.3480 N.am   70  GLN70      -0.1979
     79  CA        90.2020  116.9790   39.0190 C.3    70  GLN70       0.1601
     80  C         89.9560  118.1340   38.0740 C.2    70  GLN70       0.2287
     81  O         88.8760  118.7360   38.0670 O.2    70  GLN70      -0.2864
     82  CB        91.1640  117.3860   40.1490 C.3    70  GLN70       0.0394
     83  CG        90.6190  118.6070   40.9140 C.3    70  GLN70       0.0908
     84  CD        91.5890  119.0980   41.9680 C.2    70  GLN70       0.2608
     85  OE1       92.3990  119.9770   41.7050 O.2    70  GLN70      -0.2717
     86  NE2       91.4600  118.5620   43.1690 N.am   70  GLN70      -0.0878
     87  N         86.9970  117.6310   35.7710 N.3    73  PHE73      -0.1227
     88  CA        85.7640  117.8730   36.4790 C.3    73  PHE73       0.1736
     89  C         85.5050  119.3780   36.6900 C.2    73  PHE73       0.2595
     90  O         84.4000  119.8600   36.4100 O.2    73  PHE73      -0.2718
     91  CB        85.7030  117.1240   37.8260 C.3    73  PHE73       0.0547
     92  CG        84.5230  117.5270   38.6460 C.ar   73  PHE73      -0.0202
     93  CD1       83.2450  117.2380   38.2190 C.ar   73  PHE73      -0.0042
     94  CD2       84.6810  118.2290   39.8330 C.ar   73  PHE73      -0.0042
     95  CE1       82.1390  117.6490   38.9560 C.ar   73  PHE73      -0.0003
     96  CE2       83.5680  118.6420   40.5650 C.ar   73  PHE73      -0.0003
     97  CZ        82.3180  118.3510   40.1210 C.ar   73  PHE73      -0.0000
     98  N         86.4860  120.1060   37.2100 N.am   74  PHE74      -0.1976
     99  CA        86.3360  121.5420   37.3740 C.3    74  PHE74       0.1639
    100  C         85.9690  122.2490   36.0610 C.2    74  PHE74       0.2290
    101  O         85.0420  123.0610   36.0320 O.2    74  PHE74      -0.2864
    102  CB        87.5650  122.1910   37.9900 C.3    74  PHE74       0.0560
    103  CG        87.8740  121.7620   39.4280 C.ar   74  PHE74      -0.0200
    104  CD1       87.0100  121.0240   40.2030 C.ar   74  PHE74      -0.0042
    105  CD2       89.0870  122.1350   39.9880 C.ar   74  PHE74      -0.0042
    106  CE1       87.3510  120.6500   41.5150 C.ar   74  PHE74      -0.0003
    107  CE2       89.4190  121.7740   41.2910 C.ar   74  PHE74      -0.0003
    108  CZ        88.5870  121.0220   42.0320 C.ar   74  PHE74      -0.0000
    109  N         85.3160  115.5100   31.4150 N.3    84  TYR84      -0.1241
    110  CA        85.2770  114.4880   32.4290 C.3    84  TYR84       0.1605
    111  C         84.2910  113.4070   32.0110 C.2    84  TYR84       0.2264
    112  O         84.6370  112.2260   32.0350 O.2    84  TYR84      -0.2867
    113  CB        84.9000  115.0530   33.8280 C.3    84  TYR84       0.0534
    114  CG        84.9070  113.9970   34.8830 C.ar   84  TYR84      -0.0201
    115  CD1       83.7940  113.1940   35.0880 C.ar   84  TYR84      -0.0009
    116  CD2       86.0340  113.7760   35.6660 C.ar   84  TYR84      -0.0009
    117  CE1       83.8140  112.1860   36.0160 C.ar   84  TYR84       0.0417
    118  CE2       86.0650  112.7620   36.5980 C.ar   84  TYR84       0.0417
    119  CZ        84.9190  111.9790   36.7850 C.ar   84  TYR84       0.1957
    120  OH        84.9060  110.9540   37.6960 O.3    84  TYR84      -0.2866
    121  N         84.7530  109.3860   31.6350 N.3    88  LYS88      -0.1245
    122  CA        84.4440  108.6430   32.8380 C.3    88  LYS88       0.1561
    123  C         82.9480  108.5210   33.1960 C.2    88  LYS88       0.2260
    124  O         82.6050  107.7630   34.1010 O.2    88  LYS88      -0.2867
    125  CB        85.1770  109.2460   34.0500 C.3    88  LYS88       0.0271
    126  CG        86.6960  109.3140   33.8910 C.3    88  LYS88       0.0035
    127  CD        87.4560  109.4470   35.2150 C.3    88  LYS88       0.0206
    128  CE        87.5510  108.1460   35.9270 C.3    88  LYS88       0.1093
    129  NZ        88.4900  108.1470   37.0640 N.3    88  LYS88      -0.1314
    130  N         80.0400  112.5050   37.1890 N.3    91  PRO91      -0.2116
    131  CA        80.9280  112.7830   38.3330 C.3    91  PRO91       0.1372
    132  C         80.6380  111.9560   39.5940 C.2    91  PRO91       0.2244
    133  O         81.5590  111.4120   40.2140 O.2    91  PRO91      -0.2868
    134  CB        80.6830  114.2690   38.5650 C.3    91  PRO91       0.0268
    135  CG        80.3600  114.8060   37.2000 C.3    91  PRO91       0.0207
    136  CD        79.4450  113.7430   36.6420 C.3    91  PRO91       0.0892
    137  N         79.9580  112.3220   42.7660 N.3    93  LEU93      -0.1245
    138  CA        81.0450  112.5460   43.7150 C.3    93  LEU93       0.1561
    139  C         80.9310  111.7170   44.9820 C.2    93  LEU93       0.2260
    140  O         81.9490  111.2460   45.4920 O.2    93  LEU93      -0.2867
    141  CB        81.1440  114.0440   44.0550 C.3    93  LEU93       0.0270
    142  CG        81.4090  114.9850   42.9090 C.3    93  LEU93       0.0019
    143  CD1       81.3610  116.4500   43.4100 C.3    93  LEU93       0.0001
    144  CD2       82.7220  114.6830   42.2370 C.3    93  LEU93       0.0001
    145  N         81.9500  108.0650   44.0650 N.3    96  ARG96      -0.1231
    146  CA        83.3510  107.9350   43.7470 C.3    96  ARG96       0.1694
    147  C         84.2980  108.1210   44.9640 C.2    96  ARG96       0.2592
    148  O         85.4440  107.6920   44.9260 O.2    96  ARG96      -0.2718
    149  CB        83.7370  108.8330   42.5750 C.3    96  ARG96       0.0321
    150  CG        82.9580  108.5080   41.2850 C.3    96  ARG96       0.0489
    151  CD        83.5640  109.1790   40.0710 C.3    96  ARG96       0.2205
    152  NE        82.7500  108.9860   38.8750 N.pl3  96  ARG96      -0.0865
    153  CZ        82.8820  107.9540   38.0120 C.cat  96  ARG96       0.5346
    154  NH1       83.8290  107.0240   38.1710 N.pl3  96  ARG96       0.1354
    155  NH2       82.0810  107.8780   36.9650 N.pl3  96  ARG96       0.1354
    156  N         83.8020  108.7660   46.0110 N.am   97  HIS97      -0.1976
    157  CA        84.5900  108.9710   47.2350 C.3    97  HIS97       0.1656
    158  C         84.3030  107.8720   48.2740 C.2    97  HIS97       0.2291
    159  O         84.9380  107.8330   49.3160 O.2    97  HIS97      -0.2864
    160  CB        84.3420  110.3590   47.8450 C.3    97  HIS97       0.0771
    161  CG        85.0400  111.4450   47.1220 C.ar   97  HIS97       0.0820
    162  ND1       84.4990  112.0530   46.0120 N.ar   97  HIS97      -0.2267
    163  CD2       86.2570  111.9820   47.2950 C.ar   97  HIS97       0.1154
    164  CE1       85.3400  112.9590   45.5650 C.ar   97  HIS97       0.1986
    165  NE2       86.4300  112.9270   46.3090 N.ar   97  HIS97      -0.2212
    166  N         87.0750  106.0980   50.4180 N.3   100  PHE100     -0.1241
    167  CA        88.0210  106.9230   51.1720 C.3   100  PHE100      0.1605
    168  C         87.3820  107.3950   52.4740 C.2   100  PHE100      0.2264
    169  O         86.1820  107.5630   52.5340 O.2   100  PHE100     -0.2867
    170  CB        88.4560  108.1120   50.3490 C.3   100  PHE100      0.0534
    171  CG        88.8890  107.7450   48.9580 C.ar  100  PHE100     -0.0203
    172  CD1       89.9050  106.7950   48.7640 C.ar  100  PHE100     -0.0042
    173  CD2       88.2690  108.2970   47.8510 C.ar  100  PHE100     -0.0042
    174  CE1       90.2910  106.4240   47.4860 C.ar  100  PHE100     -0.0003
    175  CE2       88.6660  107.9320   46.5710 C.ar  100  PHE100     -0.0003
    176  CZ        89.6630  106.9870   46.3930 C.ar  100  PHE100     -0.0000
    177  N         86.4810  110.0630   54.2280 N.3   102  VAL102     -0.1245
    178  CA        86.2540  111.5080   54.0300 C.3   102  VAL102      0.1561
    179  C         85.6220  112.0590   55.3140 C.2   102  VAL102      0.2260
    180  O         84.3930  112.2040   55.4440 O.2   102  VAL102     -0.2867
    181  CB        85.3570  111.8110   52.8130 C.3   102  VAL102      0.0252
    182  CG1       85.2270  113.3290   52.6220 C.3   102  VAL102      0.0019
    183  CG2       85.9990  111.2190   51.5550 C.3   102  VAL102      0.0019
    184  N         89.6540  115.5000   57.4000 N.3   106  ALA106     -0.1231
    185  CA        90.2030  115.3570   56.0310 C.3   106  ALA106      0.1694
    186  C         89.7230  116.5020   55.1100 C.2   106  ALA106      0.2591
    187  O         90.4970  117.0350   54.3220 O.2   106  ALA106     -0.2718
    188  CB        89.8080  113.9740   55.4720 C.3   106  ALA106      0.0304
    189  N         88.4490  116.8820   55.2330 N.am  107  ALA107     -0.1980
    190  CA        87.9210  118.0420   54.4830 C.3   107  ALA107      0.1597
    191  C         88.7150  119.2910   54.7320 C.2   107  ALA107      0.2287
    192  O         89.1100  119.9850   53.8130 O.2   107  ALA107     -0.2864
    193  CB        86.4340  118.2550   54.7830 C.3   107  ALA107      0.0319
    194  N         92.2380  118.8760   52.9780 N.3   110  TRP110     -0.1241
    195  CA        92.0170  119.1090   51.5290 C.3   110  TRP110      0.1605
    196  C         91.8910  120.5860   51.2240 C.2   110  TRP110      0.2264
    197  O         92.5490  121.1390   50.3350 O.2   110  TRP110     -0.2867
    198  CB        90.7670  118.3030   51.1090 C.3   110  TRP110      0.0550
    199  CG        90.5230  118.1480   49.5900 C.ar  110  TRP110      0.0003
    200  CD1       90.6130  116.9590   48.8820 C.ar  110  TRP110      0.0946
    201  CD2       90.0100  119.1250   48.6550 C.ar  110  TRP110      0.0152
    202  NE1       90.2870  117.1740   47.5400 N.ar  110  TRP110     -0.2442
    203  CE2       89.8750  118.4740   47.3830 C.ar  110  TRP110      0.0810
    204  CE3       89.7070  120.4870   48.7390 C.ar  110  TRP110      0.0012
    205  CZ2       89.4190  119.1560   46.2350 C.ar  110  TRP110      0.0191
    206  CZ3       89.2340  121.1470   47.6240 C.ar  110  TRP110      0.0001
    207  CH2       89.1200  120.4630   46.3530 C.ar  110  TRP110      0.0015
    208  N         82.4560  127.1250   46.6390 N.3   135  PHE135     -0.1227
    209  CA        82.0880  125.8670   45.9630 C.3   135  PHE135      0.1736
    210  C         82.8680  124.6910   46.5330 C.2   135  PHE135      0.2595
    211  O         82.2990  123.6560   46.8590 O.2   135  PHE135     -0.2718
    212  CB        82.3070  126.0280   44.4540 C.3   135  PHE135      0.0547
    213  CG        82.1900  124.7440   43.6700 C.ar  135  PHE135     -0.0202
    214  CD1       80.9450  124.2130   43.3750 C.ar  135  PHE135     -0.0042
    215  CD2       83.3160  124.0840   43.2180 C.ar  135  PHE135     -0.0042
    216  CE1       80.8310  123.0330   42.6260 C.ar  135  PHE135     -0.0003
    217  CE2       83.2000  122.8950   42.5020 C.ar  135  PHE135     -0.0003
    218  CZ        81.9660  122.3890   42.1950 C.ar  135  PHE135     -0.0000
    219  N         84.1780  124.8410   46.6880 N.am  136  PHE136     -0.1976
    220  CA        84.9740  123.7330   47.1870 C.3   136  PHE136      0.1639
    221  C         84.5920  123.3970   48.6120 C.2   136  PHE136      0.2290
    222  O         84.5820  122.2350   48.9750 O.2   136  PHE136     -0.2864
    223  CB        86.4750  124.0380   47.1760 C.3   136  PHE136      0.0560
    224  CG        87.0630  124.2650   45.8240 C.ar  136  PHE136     -0.0200
    225  CD1       86.6090  123.5620   44.7140 C.ar  136  PHE136     -0.0042
    226  CD2       88.1010  125.1770   45.6660 C.ar  136  PHE136     -0.0042
    227  CE1       87.1850  123.8080   43.4630 C.ar  136  PHE136     -0.0003
    228  CE2       88.6600  125.4350   44.4350 C.ar  136  PHE136     -0.0003
    229  CZ        88.2210  124.7360   43.3290 C.ar  136  PHE136     -0.0000
    230  N         81.2590  121.7380   48.9180 N.3   139  THR139     -0.1203
    231  CA        81.4080  120.3640   48.3690 C.3   139  THR139      0.1994
    232  C         82.1480  119.3830   49.2960 C.2   139  THR139      0.2617
    233  O         81.7100  118.2670   49.5010 O.2   139  THR139     -0.2717
    234  CB        82.0110  120.3880   46.9540 C.3   139  THR139      0.1784
    235  OG1       81.2270  121.2400   46.1080 O.3   139  THR139     -0.2211
    236  CG2       82.1080  119.0070   46.4050 C.3   139  THR139      0.0376
    237  N         83.2250  119.8380   49.9160 N.am  140  ALA140     -0.1979
    238  CA        84.0140  119.0080   50.8130 C.3   140  ALA140      0.1597
    239  C         83.1330  118.5060   51.9210 C.2   140  ALA140      0.2287
    240  O         83.1710  117.3110   52.2430 O.2   140  ALA140     -0.2864
    241  CB        85.2370  119.7880   51.3200 C.3   140  ALA140      0.0319
    242  N         80.6000  115.9080   50.8650 N.3   143  LEU143     -0.1245
    243  CA        81.2580  114.5880   50.8550 C.3   143  LEU143      0.1561
    244  C         81.4070  113.9940   52.2530 C.2   143  LEU143      0.2260
    245  O         81.2240  112.7740   52.4630 O.2   143  LEU143     -0.2867
    246  CB        82.5640  114.6640   50.1220 C.3   143  LEU143      0.0270
    247  CG        82.5050  115.0610   48.6190 C.3   143  LEU143      0.0019
    248  CD1       83.8660  115.1840   47.9930 C.3   143  LEU143      0.0001
    249  CD2       81.6430  114.0460   47.8750 C.3   143  LEU143      0.0001
@<TRIPOS>BOND
     1   109   110    1
     2   121   122    1
     3   111   112    2
     4   111   110    1
     5   110   113    1
     6   122   123    1
     7   122   125    1
     8   123   124    2
     9   113   114    1
    10   126   125    1
    11   126   127    1
    12   114   115   ar
    13   114   116   ar
    14    63    62   ar
    15   115   117   ar
    16   127   128    1
    17   116   118   ar
    18    87    88    1
    19   128   129    1
    20   117   119   ar
    21   101   100    2
    22   100    99    1
    23    76    75    2
    24    62    64   ar
    25    62    61    1
    26    90    89    2
    27    70    71    1
    28    88    89    1
    29    88    91    1
    30   118   119   ar
    31   136   130    1
    32   136   135    1
    33    89    98   am
    34   119   120    1
    35    58    61    1
    36    58    57    1
    37    58    59    1
    38    71    72    1
    39    71    74    1
    40   155   153    1
    41    60    59    2
    42   130   131    1
    43   135   134    1
    44    73    72    2
    45    98    99    1
    46    75    74    1
    47    75    77   am
    48    99   102    1
    49    72    78   am
    50    59    65   am
    51    55    54    2
    52    91    92    1
    53   102   103    1
    54   153   154    1
    55   153   152    2
    56    81    80    2
    57    80    79    1
    58    56    54   am
    59    93    92   ar
    60    93    95   ar
    61    54    53    1
    62   131   134    1
    63   131   132    1
    64    78    79    1
    65    92    94   ar
    66   152   151    1
    67    65    66    1
    68    95    97   ar
    69    79    82    1
    70    53    50    1
    71    67    68    2
    72    67    66    1
    73   103   105   ar
    74   103   104   ar
    75   132   133    2
    76    94    96   ar
    77    66    69    1
    78   105   107   ar
    79   151   150    1
    80    97    96   ar
    81    82    83    1
    82    52    51    2
    83   104   106   ar
    84    51    50    1
    85    50    49    1
    86    83    84    1
    87    49    45   am
    88   150   149    1
    89   107   108   ar
    90   106   108   ar
    91    85    84    2
    92    84    86   am
    93   218   217   ar
    94   218   216   ar
    95   144   142    1
    96     8    10   ar
    97     8     6   ar
    98   217   215   ar
    99    45    44    1
   100    45    46    2
   101    10    11   ar
   102   149   146    1
   103   216   214   ar
   104   137   138    1
   105     5     6    1
   106     5     2    1
   107   142   143    1
   108   142   141    1
   109     6     7   ar
   110    44    47    1
   111    44    43    1
   112   215   213   ar
   113   229   227   ar
   114   229   228   ar
   115   214   213   ar
   116   227   225   ar
   117    11    12    1
   118    11     9   ar
   119    47    48    1
   120   213   212    1
   121   138   141    1
   122   138   139    1
   123   146   145    1
   124   146   147    1
   125     1     2    1
   126     2     3    1
   127     7     9   ar
   128     3     4    2
   129   228   226   ar
   130   212   209    1
   131   225   224   ar
   132   148   147    2
   133   147   156   am
   134   139   140    2
   135   164   162   ar
   136   164   165   ar
   137   226   224   ar
   138   224   223    1
   139   209   210    1
   140   209   208    1
   141   156   157    1
   142   162   161   ar
   143   235   234    1
   144   205   207   ar
   145   205   203   ar
   146    35    34    2
   147   165   163   ar
   148   207   206   ar
   149   176   175   ar
   150   176   174   ar
   151   236   234    1
   152   210   219   am
   153   210   211    2
   154   175   173   ar
   155   219   220    1
   156   234   231    1
   157    39    41   ar
   158    39    37   ar
   159   161   163   ar
   160   161   160    1
   161   223   220    1
   162   220   221    1
   163    41    42   ar
   164   157   160    1
   165   157   158    1
   166   203   202   ar
   167   203   201   ar
   168    34    33    1
   169   174   172   ar
   170   202   200   ar
   171   206   204   ar
   172    36    37    1
   173    36    33    1
   174   173   171   ar
   175   249   247    1
   176    37    38   ar
   177    33    32    1
   178   248   247    1
   179   158   159    2
   180   231   230    1
   181   231   232    1
   182    42    40   ar
   183   221   222    2
   184   247   246    1
   185   201   204   ar
   186   201   199   ar
   187   172   171   ar
   188   200   199   ar
   189   171   170    1
   190    38    40   ar
   191   232   233    2
   192   232   237   am
   193    27    26    2
   194    32    26   am
   195   199   198    1
   196   237   238    1
   197    26    25    1
   198   246   243    1
   199   197   196    2
   200   170   167    1
   201   166   167    1
   202   238   241    1
   203   238   239    1
   204   243   242    1
   205   243   244    1
   206   198   195    1
   207    30    28    1
   208   167   168    1
   209   196   195    1
   210    25    28    1
   211    25    24    1
   212   195   194    1
   213   183   181    1
   214    22    23   ar
   215    22    20   ar
   216    28    29    1
   217    23    21   ar
   218   239   240    2
   219   244   245    2
   220   168   169    2
   221    16    15    2
   222   182   181    1
   223    20    18   ar
   224   181   178    1
   225    21    19   ar
   226    29    31    1
   227    15    14    1
   228   192   191    2
   229    18    19   ar
   230    18    17    1
   231   178   177    1
   232   178   179    1
   233   187   186    2
   234   190   191    1
   235   190   193    1
   236   190   189    1
   237    14    17    1
   238    14    13    1
   239   186   189   am
   240   186   185    1
   241   179   180    2
   242   188   185    1
   243   185   184    1
