@<TRIPOS>MOLECULE
tmp/4c0sA00.pdb
 124 119 0 0 0
SMALL
GASTEIGER

@<TRIPOS>ATOM
      1  N        -19.4240   59.3820  178.0620 N.3    13  VAL13      -0.1231
      2  CA       -19.0590   60.7660  178.3000 C.3    13  VAL13       0.1692
      3  C        -20.1020   61.3400  179.2240 C.2    13  VAL13       0.2592
      4  O        -21.3000   61.1960  178.9980 O.2    13  VAL13      -0.2718
      5  CB       -18.9450   61.6090  176.9590 C.3    13  VAL13       0.0266
      6  CG1      -20.2360   61.5420  176.1360 C.3    13  VAL13       0.0020
      7  CG2      -18.6590   63.0710  177.2530 C.3    13  VAL13       0.0020
      8  N        -19.6390   61.9480  180.2930 N.am   14  ASP14      -0.1960
      9  CA       -20.5210   62.6420  181.2410 C.3    14  ASP14       0.1840
     10  C        -21.3060   61.7630  182.2540 C.2    14  ASP14       0.2623
     11  O        -22.1390   62.2870  183.0230 O.2    14  ASP14      -0.2715
     12  CB       -21.4360   63.6250  180.5190 C.3    14  ASP14       0.1450
     13  CG       -20.9140   65.0720  180.5890 C.2    14  ASP14       0.3671
     14  OD1      -19.6510   65.2760  180.7060 O.co2  14  ASP14      -0.2456
     15  OD2      -21.7690   66.0070  180.5710 O.co2  14  ASP14      -0.2456
     16  N        -21.0060   60.4590  182.3060 N.am   15  SER15      -0.1936
     17  CA       -21.6320   59.6150  183.3050 C.3    15  SER15       0.2055
     18  C        -21.2140   60.0210  184.7010 C.2    15  SER15       0.2644
     19  O        -21.9560   59.9000  185.6130 O.2    15  SER15      -0.2714
     20  CB       -21.3210   58.1470  183.0790 C.3    15  SER15       0.2130
     21  OG       -20.0000   57.9520  182.6330 O.3    15  SER15      -0.2179
     22  N        -20.0240   60.5590  184.8430 N.am   16  GLY16      -0.1939
     23  CA       -19.5590   61.0770  186.1490 C.3    16  GLY16       0.2014
     24  C        -18.2140   60.4660  186.5300 C.2    16  GLY16       0.2639
     25  O        -17.9160   60.3260  187.6860 O.2    16  GLY16      -0.2714
     26  N        -17.4140   60.0820  185.5360 N.am   17  LYS17      -0.1963
     27  CA       -16.1910   59.3890  185.7990 C.3    17  LYS17       0.1728
     28  C        -15.2470   60.3060  186.5320 C.2    17  LYS17       0.2617
     29  O        -14.5530   59.9090  187.4420 O.2    17  LYS17      -0.2715
     30  CB       -15.5690   58.9330  184.5150 C.3    17  LYS17       0.0311
     31  CG       -16.4390   58.0020  183.7010 C.3    17  LYS17       0.0038
     32  CD       -15.6410   57.4000  182.5240 C.3    17  LYS17       0.0206
     33  CE       -15.3490   58.4490  181.4350 C.3    17  LYS17       0.1093
     34  NZ       -16.5210   59.3680  181.1720 N.3    17  LYS17      -0.1314
     35  N        -15.2300   61.5470  186.1260 N.am   18  SER18      -0.1936
     36  CA       -14.3890   62.5170  186.7590 C.3    18  SER18       0.2055
     37  C        -14.7750   62.7160  188.2220 C.2    18  SER18       0.2643
     38  O        -13.9220   62.6250  189.1090 O.2    18  SER18      -0.2714
     39  CB       -14.4600   63.8480  186.0110 C.3    18  SER18       0.2130
     40  OG       -13.4720   63.8620  185.0150 O.3    18  SER18      -0.2179
     41  N        -16.0470   63.0450  188.4450 N.am   19  THR19      -0.1950
     42  CA       -16.5370   63.4100  189.7490 C.3    19  THR19       0.1897
     43  C        -16.3840   62.2750  190.7540 C.2    19  THR19       0.2313
     44  O        -15.9060   62.4750  191.8710 O.2    19  THR19      -0.2863
     45  CB       -17.9730   63.7900  189.6420 C.3    19  THR19       0.1794
     46  OG1      -18.0940   64.7980  188.6140 O.3    19  THR19      -0.2208
     47  CG2      -18.4650   64.3320  190.9530 C.3    19  THR19       0.0378
     48  N        -13.1320   67.3250  189.8460 N.3    53  ALA53      -0.1245
     49  CA       -12.8940   66.9180  188.4730 C.3    53  ALA53       0.1562
     50  C        -11.3930   66.8800  188.1540 C.2    53  ALA53       0.2260
     51  O        -10.9030   65.9200  187.5230 O.2    53  ALA53      -0.2867
     52  CB       -13.6180   67.8480  187.5280 C.3    53  ALA53       0.0290
     53  N         -9.1450   63.4860  187.7760 N.3    56  LEU56      -0.1245
     54  CA        -9.0380   62.7200  186.5300 C.3    56  LEU56       0.1561
     55  C         -8.3680   63.5650  185.4250 C.2    56  LEU56       0.2260
     56  O         -7.3220   63.1910  184.9180 O.2    56  LEU56      -0.2867
     57  CB       -10.4120   62.2240  186.0410 C.3    56  LEU56       0.0270
     58  CG       -10.8000   60.7460  186.1250 C.3    56  LEU56       0.0019
     59  CD1      -11.8500   60.4080  185.0900 C.3    56  LEU56       0.0001
     60  CD2       -9.6360   59.7840  186.0200 C.3    56  LEU56       0.0001
     61  N         -5.3810   62.0340  183.4130 N.3    60  LYS60      -0.1245
     62  CA        -5.5060   61.7540  181.9870 C.3    60  LYS60       0.1561
     63  C         -4.3880   62.4360  181.2820 C.2    60  LYS60       0.2260
     64  O         -3.7390   61.8480  180.4220 O.2    60  LYS60      -0.2867
     65  CB        -6.8300   62.2790  181.4170 C.3    60  LYS60       0.0271
     66  CG        -8.0290   61.4420  181.7840 C.3    60  LYS60       0.0035
     67  CD        -9.1320   61.5770  180.7630 C.3    60  LYS60       0.0206
     68  CE        -9.8030   62.9150  180.8280 C.3    60  LYS60       0.1093
     69  NZ       -11.2130   62.7360  180.3840 N.3    60  LYS60      -0.1314
     70  N        -24.2640   55.4370  188.9640 N.3   149  ASN149     -0.1225
     71  CA       -24.0070   56.7900  189.4620 C.3   149  ASN149      0.1785
     72  C        -25.1780   57.7170  189.3320 C.2   149  ASN149      0.2597
     73  O        -26.1460   57.3950  188.6980 O.2   149  ASN149     -0.2718
     74  CB       -22.8150   57.4050  188.7530 C.3   149  ASN149      0.1169
     75  CG       -22.3230   58.6360  189.4530 C.2   149  ASN149      0.2627
     76  OD1      -22.5690   58.7950  190.6460 O.2   149  ASN149     -0.2716
     77  ND2      -21.6570   59.5450  188.7210 N.am  149  ASN149     -0.0877
     78  N        -25.0700   58.8930  189.9370 N.am  150  LYS150     -0.1980
     79  CA       -26.1030   59.8960  189.8720 C.3   150  LYS150      0.1596
     80  C        -27.4180   59.5360  190.5280 C.2   150  LYS150      0.2287
     81  O        -28.4310   60.2140  190.2890 O.2   150  LYS150     -0.2864
     82  CB       -26.3600   60.3170  188.4330 C.3   150  LYS150      0.0298
     83  CG       -25.0950   60.6900  187.6890 C.3   150  LYS150      0.0038
     84  CD       -25.2100   62.0500  187.0330 C.3   150  LYS150      0.0206
     85  CE       -24.2390   62.1190  185.8470 C.3   150  LYS150      0.1093
     86  NZ       -24.3330   63.4090  185.1190 N.3   150  LYS150     -0.1314
     87  N        -28.8130   60.4230  193.0480 N.3   152  ASP152     -0.1225
     88  CA       -29.5260   61.5690  193.6520 C.3   152  ASP152      0.1805
     89  C        -30.5140   62.2610  192.7130 C.2   152  ASP152      0.2598
     90  O        -31.3730   63.0710  193.1490 O.2   152  ASP152     -0.2718
     91  CB       -28.5350   62.6090  194.1470 C.3   152  ASP152      0.1424
     92  CG       -27.6090   63.0900  193.0490 C.2   152  ASP152      0.3668
     93  OD1      -26.7360   62.2950  192.6220 O.co2 152  ASP152     -0.2456
     94  OD2      -27.7850   64.2510  192.5800 O.co2 152  ASP152     -0.2456
     95  N        -30.3470   62.0140  191.4260 N.am  153  SER153     -0.1952
     96  CA       -31.0260   62.8090  190.4030 C.3   153  SER153      0.1924
     97  C        -32.0450   61.9490  189.5860 C.2   153  SER153      0.2314
     98  O        -32.5360   62.3770  188.5420 O.2   153  SER153     -0.2863
     99  CB       -29.9880   63.4440  189.4770 C.3   153  SER153      0.2116
    100  OG       -29.4700   62.4270  188.6270 O.3   153  SER153     -0.2180
    101  N        -23.7800   58.2140  194.4810 N.3   189  SER189     -0.1202
    102  CA       -23.7720   59.5180  193.8970 C.3   189  SER189      0.2020
    103  C        -22.3590   60.0370  194.0850 C.2   189  SER189      0.2619
    104  O        -22.0020   60.4780  195.1650 O.2   189  SER189     -0.2717
    105  CB       -24.7510   60.4460  194.6000 C.3   189  SER189      0.2103
    106  OG       -24.3430   61.8420  194.5140 O.3   189  SER189     -0.2182
    107  N        -21.5430   59.9560  193.0280 N.am  190  GLY190     -0.1942
    108  CA       -20.1890   60.5200  193.0490 C.3   190  GLY190      0.2014
    109  C        -20.1750   61.9820  193.4780 C.2   190  GLY190      0.2638
    110  O        -19.1780   62.4900  193.9590 O.2   190  GLY190     -0.2714
    111  N        -21.2640   62.6790  193.2860 N.am  191  TRP191     -0.1973
    112  CA       -21.2170   64.0740  193.5700 C.3   191  TRP191      0.1640
    113  C        -21.4100   64.3000  195.0400 C.2   191  TRP191      0.2290
    114  O        -20.6580   65.0200  195.6660 O.2   191  TRP191     -0.2864
    115  CB       -22.2490   64.8300  192.7290 C.3   191  TRP191      0.0576
    116  CG       -22.4400   66.2610  193.1540 C.ar  191  TRP191      0.0006
    117  CD1      -23.4900   66.7860  193.8970 C.ar  191  TRP191      0.0946
    118  CD2      -21.5530   67.4050  192.8820 C.ar  191  TRP191      0.0152
    119  NE1      -23.3120   68.1440  194.1070 N.ar  191  TRP191     -0.2442
    120  CE2      -22.1780   68.5730  193.5190 C.ar  191  TRP191      0.0810
    121  CE3      -20.3560   67.5780  192.1730 C.ar  191  TRP191      0.0012
    122  CZ2      -21.6190   69.8450  193.4440 C.ar  191  TRP191      0.0191
    123  CZ3      -19.7860   68.8690  192.1230 C.ar  191  TRP191      0.0001
    124  CH2      -20.4050   69.9730  192.7420 C.ar  191  TRP191      0.0015
@<TRIPOS>BOND
     1     6     5    1
     2     5     7    1
     3     5     2    1
     4     1     2    1
     5     2     3    1
     6     4     3    2
     7     3     8   am
     8     8     9    1
     9    69    68    1
    10    64    63    2
    11    12    13    1
    12    12     9    1
    13    15    13   ar
    14    13    14   ar
    15    67    68    1
    16    67    66    1
    17    34    33    1
    18     9    10    1
    19    63    62    1
    20    65    66    1
    21    65    62    1
    22    33    32    1
    23    62    61    1
    24    10    16   am
    25    10    11    2
    26    16    17    1
    27    32    31    1
    28    21    20    1
    29    20    17    1
    30    17    18    1
    31    31    30    1
    32    30    27    1
    33    18    22   am
    34    18    19    2
    35    22    23    1
    36    56    55    2
    37    40    39    1
    38    59    58    1
    39    86    85    1
    40    55    54    1
    41    26    27    1
    42    26    24   am
    43    27    28    1
    44    85    84    1
    45    39    36    1
    46    60    58    1
    47    57    58    1
    48    57    54    1
    49    35    28   am
    50    35    36    1
    51    23    24    1
    52    54    53    1
    53    24    25    2
    54    28    29    2
    55    36    37    1
    56    84    83    1
    57    51    50    2
    58    52    49    1
    59    83    82    1
    60    50    49    1
    61    37    41   am
    62    37    38    2
    63    82    79    1
    64    41    42    1
    65    49    48    1
    66    98    97    2
    67    46    45    1
    68   100    99    1
    69    73    72    2
    70    77    75   am
    71    74    75    1
    72    74    71    1
    73    70    71    1
    74    72    71    1
    75    72    78   am
    76    75    76    2
    77    99    96    1
    78    97    96    1
    79    45    42    1
    80    45    47    1
    81    42    43    1
    82    79    78    1
    83    79    80    1
    84    81    80    2
    85    96    95    1
    86    43    44    2
    87    95    89   am
    88   123   121   ar
    89   123   124   ar
    90   121   118   ar
    91    94    92   ar
    92    93    92   ar
    93    89    90    2
    94    89    88    1
    95   115   116    1
    96   115   112    1
    97   124   122   ar
    98   118   116   ar
    99   118   120   ar
   100   107   108    1
   101   107   103   am
   102    87    88    1
   103   108   109    1
   104    92    91    1
   105   116   117   ar
   106   111   109   am
   107   111   112    1
   108   122   120   ar
   109   109   110    2
   110   120   119   ar
   111   112   113    1
   112    88    91    1
   113   102   103    1
   114   102   101    1
   115   102   105    1
   116   117   119   ar
   117   103   104    2
   118   106   105    1
   119   113   114    2
