@<TRIPOS>MOLECULE
tmp/4c0wA00.pdb
 147 144 0 0 0
SMALL
GASTEIGER

@<TRIPOS>ATOM
      1  N         23.6500   -0.6350   16.9620 N.3     9  SER9       -0.1202
      2  CA        23.4150   -2.0760   16.9270 C.3     9  SER9        0.2020
      3  C         23.5700   -2.6410   15.5230 C.2     9  SER9        0.2619
      4  O         23.1770   -2.0230   14.5210 O.2     9  SER9       -0.2717
      5  CB        21.9910   -2.3730   17.4080 C.3     9  SER9        0.2103
      6  OG        21.7140   -3.7600   17.2170 O.3     9  SER9       -0.2182
      7  N         24.0740   -3.8670   15.4610 N.am   10  ILE10      -0.1965
      8  CA        24.1940   -4.5970   14.2040 C.3    10  ILE10       0.1727
      9  C         23.0590   -5.6130   14.0220 C.2    10  ILE10       0.2616
     10  O         23.0740   -6.3740   13.0590 O.2    10  ILE10      -0.2715
     11  CB        25.5570   -5.3060   14.0850 C.3    10  ILE10       0.0290
     12  CG1       25.7520   -6.3350   15.2100 C.3    10  ILE10       0.0022
     13  CG2       26.6790   -4.2480   14.1550 C.3    10  ILE10       0.0023
     14  CD1       27.0620   -7.1140   15.0520 C.3    10  ILE10       0.0001
     15  N         22.0820   -5.5920   14.9240 N.am   11  LEU11      -0.1977
     16  CA        21.0330   -6.6260   14.9650 C.3    11  LEU11       0.1596
     17  C         19.6920   -6.1930   14.3600 C.2    11  LEU11       0.2287
     18  O         18.7140   -6.9650   14.4030 O.2    11  LEU11      -0.2864
     19  CB        20.8100   -7.1060   16.4070 C.3    11  LEU11       0.0297
     20  CG        22.0540   -7.7700   17.0370 C.3    11  LEU11       0.0022
     21  CD1       21.7450   -8.2910   18.4240 C.3    11  LEU11       0.0001
     22  CD2       22.6250   -8.8860   16.1340 C.3    11  LEU11       0.0001
     23  N         15.8720   -6.9780   15.3030 N.3    14  ASN14      -0.1225
     24  CA        16.0140   -7.7390   16.5300 C.3    14  ASN14       0.1785
     25  C         16.7510   -6.9990   17.6510 C.2    14  ASN14       0.2598
     26  O         16.9110   -7.5250   18.7420 O.2    14  ASN14      -0.2718
     27  CB        16.7180   -9.0600   16.2400 C.3    14  ASN14       0.1169
     28  CG        15.8550   -9.9970   15.4380 C.2    14  ASN14       0.2627
     29  OD1       14.6480  -10.0680   15.6600 O.2    14  ASN14      -0.2716
     30  ND2       16.4540  -10.7010   14.4920 N.am   14  ASN14      -0.0877
     31  N         17.1340   -5.7430   17.3960 N.am   15  SER15      -0.1938
     32  CA        17.9180   -4.9480   18.3410 C.3    15  SER15       0.2055
     33  C         17.0930   -4.3800   19.4820 C.2    15  SER15       0.2643
     34  O         16.1060   -3.6980   19.2260 O.2    15  SER15      -0.2714
     35  CB        18.5490   -3.7700   17.5830 C.3    15  SER15       0.2130
     36  OG        19.0510   -2.7940   18.4810 O.3    15  SER15      -0.2179
     37  N         17.5400   -4.6020   20.7130 N.am   16  ALA16      -0.1963
     38  CA        16.9430   -3.9880   21.8950 C.3    16  ALA16       0.1728
     39  C         17.2220   -2.4840   21.9070 C.2    16  ALA16       0.2616
     40  O         16.3400   -1.6870   22.2290 O.2    16  ALA16      -0.2715
     41  CB        17.4740   -4.6320   23.1820 C.3    16  ALA16       0.0334
     42  N         18.4700   -2.0930   21.6290 N.am   17  SER17      -0.1950
     43  CA        18.7950   -0.6700   21.7160 C.3    17  SER17       0.1924
     44  C         18.1390    0.1620   20.6250 C.2    17  SER17       0.2314
     45  O         17.8320    1.3350   20.8600 O.2    17  SER17      -0.2863
     46  CB        20.3270   -0.4160   21.7660 C.3    17  SER17       0.2116
     47  OG        20.9730   -0.7590   20.5440 O.3    17  SER17      -0.2180
     48  N         24.7900   -0.8990   22.5700 N.3    94  PRO94      -0.2102
     49  CA        24.9560   -2.3140   22.9200 C.3    94  PRO94       0.1504
     50  C         26.2890   -2.5960   23.5750 C.2    94  PRO94       0.2576
     51  O         27.2520   -1.8560   23.4150 O.2    94  PRO94      -0.2718
     52  CB        24.9600   -3.0020   21.5590 C.3    94  PRO94       0.0282
     53  CG        24.3160   -2.0280   20.5950 C.3    94  PRO94       0.0208
     54  CD        24.7180   -0.6920   21.1160 C.3    94  PRO94       0.0893
     55  N         26.3320   -3.7200   24.2820 N.am   95  MET95      -0.1966
     56  CA        27.5790   -4.2920   24.7610 C.3    95  MET95       0.1736
     57  C         27.9530   -5.4540   23.8360 C.2    95  MET95       0.2616
     58  O         27.2440   -6.4500   23.7910 O.2    95  MET95      -0.2715
     59  CB        27.3910   -4.7910   26.2000 C.3    95  MET95       0.0427
     60  CG        28.6650   -5.1080   26.9320 C.3    95  MET95       0.0599
     61  SD        28.3260   -5.4260   28.6840 S.3    95  MET95      -0.1393
     62  CE        29.9370   -5.9780   29.2220 C.3    95  MET95       0.0692
     63  N         29.0290   -5.3030   23.0690 N.am   96  TYR96      -0.1960
     64  CA        29.5680   -6.3850   22.2410 C.3    96  TYR96       0.1771
     65  C         31.0090   -6.6240   22.6770 C.2    96  TYR96       0.2620
     66  O         31.8560   -5.7160   22.6600 O.2    96  TYR96      -0.2715
     67  CB        29.5810   -6.0670   20.7350 C.3    96  TYR96       0.0574
     68  CG        28.2340   -5.7780   20.0870 C.ar   96  TYR96      -0.0198
     69  CD1       27.0520   -6.3670   20.5360 C.ar   96  TYR96      -0.0009
     70  CD2       28.1610   -4.9540   18.9760 C.ar   96  TYR96      -0.0009
     71  CE1       25.8270   -6.1170   19.9100 C.ar   96  TYR96       0.0417
     72  CE2       26.9330   -4.6750   18.3600 C.ar   96  TYR96       0.0417
     73  CZ        25.7770   -5.2470   18.8340 C.ar   96  TYR96       0.1957
     74  OH        24.5750   -4.9690   18.2240 O.3    96  TYR96      -0.2866
     75  N         31.2580   -7.8640   23.0700 N.am   97  ASN97      -0.1958
     76  CA        32.5750   -8.2670   23.5670 C.3    97  ASN97       0.1819
     77  C         33.1420   -7.3030   24.5970 C.2    97  ASN97       0.2621
     78  O         34.2480   -6.7890   24.4920 O.2    97  ASN97      -0.2715
     79  CB        33.5020   -8.5170   22.3900 C.3    97  ASN97       0.1195
     80  CG        33.0260   -9.6860   21.5560 C.2    97  ASN97       0.2630
     81  OD1       32.7460  -10.7580   22.0910 O.2    97  ASN97      -0.2716
     82  ND2       32.8510   -9.4730   20.2670 N.am   97  ASN97      -0.0877
     83  N         32.3030   -7.0580   25.6020 N.am   98  PHE98      -0.1974
     84  CA        32.6460   -6.3580   26.8360 C.3    98  PHE98       0.1639
     85  C         32.8910   -4.8770   26.6920 C.2    98  PHE98       0.2290
     86  O         33.3790   -4.2150   27.6100 O.2    98  PHE98      -0.2864
     87  CB        33.7710   -7.0560   27.5990 C.3    98  PHE98       0.0560
     88  CG        33.4280   -8.4550   27.9850 C.ar   98  PHE98      -0.0200
     89  CD1       32.5750   -8.7080   29.0420 C.ar   98  PHE98      -0.0042
     90  CD2       33.9180   -9.5120   27.2540 C.ar   98  PHE98      -0.0042
     91  CE1       32.2440  -10.0100   29.3740 C.ar   98  PHE98      -0.0003
     92  CE2       33.5970  -10.8030   27.5720 C.ar   98  PHE98      -0.0003
     93  CZ        32.7560  -11.0550   28.6370 C.ar   98  PHE98      -0.0000
     94  N         22.2220   -1.6100   26.4330 N.3   139  THR139     -0.1203
     95  CA        21.6550   -2.9530   26.3470 C.3   139  THR139      0.1994
     96  C         22.7590   -4.0020   26.4320 C.2   139  THR139      0.2618
     97  O         23.8660   -3.8080   25.9350 O.2   139  THR139     -0.2717
     98  CB        20.8350   -3.1200   25.0640 C.3   139  THR139      0.1784
     99  OG1       21.6390   -2.7860   23.9120 O.3   139  THR139     -0.2211
    100  CG2       19.6390   -2.1740   25.1110 C.3   139  THR139      0.0376
    101  N         22.4660   -5.0970   27.1120 N.am  140  ALA140     -0.1965
    102  CA        23.4780   -6.1490   27.3070 C.3   140  ALA140      0.1728
    103  C         22.8320   -7.5050   27.5310 C.2   140  ALA140      0.2617
    104  O         21.7320   -7.6020   28.0670 O.2   140  ALA140     -0.2715
    105  CB        24.3660   -5.8170   28.4870 C.3   140  ALA140      0.0334
    106  N         23.5350   -8.5560   27.1330 N.am  141  GLY141     -0.1940
    107  CA        23.0600   -9.9120   27.3620 C.3   141  GLY141      0.2014
    108  C         23.0800  -10.3050   28.8300 C.2   141  GLY141      0.2639
    109  O         22.1770  -11.0310   29.2960 O.2   141  GLY141     -0.2714
    110  N         24.1240   -9.9150   29.5390 N.am  142  GLY142     -0.1954
    111  CA        24.2800  -10.2090   30.9550 C.3   142  GLY142      0.1869
    112  C         23.9970   -9.0230   31.8480 C.2   142  GLY142      0.2309
    113  O         23.5480   -7.9540   31.4000 O.2   142  GLY142     -0.2863
    114  N         26.0680   -6.9180   34.3160 N.3   144  HIS144     -0.1241
    115  CA        27.4130   -6.6510   34.8240 C.3   144  HIS144      0.1621
    116  C         27.6680   -5.1790   35.1620 C.2   144  HIS144      0.2264
    117  O         28.7860   -4.7900   35.4980 O.2   144  HIS144     -0.2867
    118  CB        28.4660   -7.2420   33.8580 C.3   144  HIS144      0.0745
    119  CG        28.4480   -8.7440   33.8170 C.ar  144  HIS144      0.0817
    120  ND1       27.9380   -9.4650   32.7540 N.ar  144  HIS144     -0.2268
    121  CD2       28.8320   -9.6570   34.7410 C.ar  144  HIS144      0.1154
    122  CE1       28.0290  -10.7580   33.0180 C.ar  144  HIS144      0.1986
    123  NE2       28.5670  -10.9020   34.2160 N.ar  144  HIS144     -0.2212
    124  N         19.4850   -9.6220   28.8790 N.3   177  LEU177     -0.1231
    125  CA        18.6200   -9.9640   27.7730 C.3   177  LEU177      0.1693
    126  C         18.8870  -11.3680   27.2220 C.2   177  LEU177      0.2591
    127  O         18.0700  -11.9090   26.4760 O.2   177  LEU177     -0.2718
    128  CB        18.7500   -8.9200   26.6450 C.3   177  LEU177      0.0284
    129  CG        18.5050   -7.4650   27.0630 C.3   177  LEU177      0.0019
    130  CD1       18.4300   -6.5410   25.8760 C.3   177  LEU177      0.0001
    131  CD2       17.2250   -7.3200   27.8980 C.3   177  LEU177      0.0001
    132  N         20.0230  -11.9520   27.5880 N.am  178  ALA178     -0.1980
    133  CA        20.3950  -13.2700   27.0700 C.3   178  ALA178      0.1597
    134  C         19.9430  -14.3990   27.9830 C.2   178  ALA178      0.2287
    135  O         20.1750  -15.5660   27.6840 O.2   178  ALA178     -0.2864
    136  CB        21.8890  -13.3490   26.8930 C.3   178  ALA178      0.0319
    137  N         14.2640  -11.1440   29.4560 N.3   184  ARG184     -0.1245
    138  CA        14.4280  -10.1360   28.4170 C.3   184  ARG184      0.1563
    139  C         13.1990   -9.2500   28.3750 C.2   184  ARG184      0.2260
    140  O         13.3090   -8.0340   28.3020 O.2   184  ARG184     -0.2867
    141  CB        14.6660  -10.7690   27.0310 C.3   184  ARG184      0.0307
    142  CG        14.8290   -9.7080   25.9080 C.3   184  ARG184      0.0489
    143  CD        15.0930  -10.2980   24.4960 C.3   184  ARG184      0.2205
    144  NE        14.9990   -9.2590   23.4520 N.pl3 184  ARG184     -0.0865
    145  CZ        16.0160   -8.7730   22.7460 C.cat 184  ARG184      0.5346
    146  NH1       17.2540   -9.2250   22.9250 N.pl3 184  ARG184      0.1354
    147  NH2       15.7860   -7.8270   21.8380 N.pl3 184  ARG184      0.1354
@<TRIPOS>BOND
     1    10     9    2
     2     9     8    1
     3     9    15   am
     4    11    13    1
     5    11     8    1
     6    11    12    1
     7     8     7    1
     8    17    18    2
     9    17    16    1
    10    30    28   am
    11     4     3    2
    12    15    16    1
    13    16    19    1
    14    14    12    1
    15    23    24    1
    16    28    29    2
    17    28    27    1
    18     7     3   am
    19     3     2    1
    20    22    20    1
    21    27    24    1
    22    19    20    1
    23    24    25    1
    24     2     1    1
    25     2     5    1
    26    20    21    1
    27     6     5    1
    28    31    25   am
    29    31    32    1
    30    35    32    1
    31    35    36    1
    32    25    26    2
    33    74    73    1
    34    32    33    1
    35    72    73   ar
    36    72    70   ar
    37    73    71   ar
    38    70    68   ar
    39    34    33    2
    40    33    37   am
    41    71    69   ar
    42    68    69   ar
    43    68    67    1
    44    82    80   am
    45    47    46    1
    46    53    54    1
    47    53    52    1
    48    44    45    2
    49    44    43    1
    50    37    38    1
    51    67    64    1
    52    54    48    1
    53    80    81    2
    54    80    79    1
    55    52    49    1
    56    42    43    1
    57    42    39   am
    58    43    46    1
    59   147   145    1
    60    38    39    1
    61    38    41    1
    62    39    40    2
    63    64    65    1
    64    64    63    1
    65    79    76    1
    66    48    49    1
    67    66    65    2
    68    65    75   am
    69   145   146    1
    70   145   144    2
    71    49    50    1
    72    63    57   am
    73    75    76    1
    74    51    50    2
    75   144   143    1
    76    76    77    1
    77    50    55   am
    78    58    57    2
    79    57    56    1
    80    99    98    1
    81    55    56    1
    82    78    77    2
    83   143   142    1
    84    77    83   am
    85    56    59    1
    86    98   100    1
    87    98    95    1
    88    83    84    1
    89   130   129    1
    90   142   141    1
    91    97    96    2
    92    59    60    1
    93    95    96    1
    94    95    94    1
    95    96   101   am
    96   127   126    2
    97   128   129    1
    98   128   125    1
    99    85    84    1
   100    85    86    2
   101    84    87    1
   102   136   133    1
   103    60    61    1
   104   141   138    1
   105   129   131    1
   106   133   132    1
   107   133   134    1
   108   101   102    1
   109   106   107    1
   110   106   103   am
   111   126   132   am
   112   126   125    1
   113    90    92   ar
   114    90    88   ar
   115   102   103    1
   116   102   105    1
   117   107   108    1
   118   103   104    2
   119    92    93   ar
   120    87    88    1
   121   135   134    2
   122   125   124    1
   123    88    89   ar
   124   140   139    2
   125   139   138    1
   126   138   137    1
   127    93    91   ar
   128    61    62    1
   129   108   109    2
   130   108   110   am
   131    89    91   ar
   132   110   111    1
   133   111   112    1
   134   113   112    2
   135   120   122   ar
   136   120   119   ar
   137   122   123   ar
   138   119   118    1
   139   119   121   ar
   140   118   115    1
   141   123   121   ar
   142   114   115    1
   143   115   116    1
   144   116   117    2
