@<TRIPOS>MOLECULE
tmp/4c0zL00.pdb
 93 95 0 0 0
SMALL
GASTEIGER

@<TRIPOS>ATOM
      1  N        -21.1470   -1.5080  114.5540 N.3    51  CYS51      -0.1221
      2  CA       -20.6820   -0.1290  114.5920 C.3    51  CYS51       0.1808
      3  C        -21.7930    0.9300  114.4370 C.2    51  CYS51       0.2601
      4  O        -22.9010    0.6600  113.9540 O.2    51  CYS51      -0.2717
      5  CB       -19.5760    0.0810  113.5600 C.3    51  CYS51       0.0970
      6  SG       -20.1550    0.0180  111.8380 S.3    51  CYS51      -0.0800
      7  N        -21.4660    2.1440  114.8650 N.am   52  PHE52      -0.1962
      8  CA       -22.2970    3.3270  114.6680 C.3    52  PHE52       0.1771
      9  C        -21.3990    4.5100  114.4330 C.2    52  PHE52       0.2620
     10  O        -20.1900    4.3690  114.6210 O.2    52  PHE52      -0.2715
     11  CB       -23.3540    3.5180  115.7440 C.3    52  PHE52       0.0574
     12  CG       -22.9480    3.7710  117.1700 C.ar   52  PHE52      -0.0200
     13  CD1      -22.6540    2.7090  118.0250 C.ar   52  PHE52      -0.0042
     14  CD2      -23.0430    5.0450  117.7130 C.ar   52  PHE52      -0.0042
     15  CE1      -22.3990    2.9250  119.3830 C.ar   52  PHE52      -0.0003
     16  CE2      -22.7930    5.2630  119.0710 C.ar   52  PHE52      -0.0003
     17  CZ       -22.4870    4.1990  119.9010 C.ar   52  PHE52      -0.0000
     18  N        -21.9550    5.6550  113.9720 N.am   53  ASN53      -0.1958
     19  CA       -21.2250    6.8690  113.5340 C.3    53  ASN53       0.1819
     20  C        -20.7040    6.6040  112.1080 C.2    53  ASN53       0.2621
     21  O        -19.5310    6.2810  111.9070 O.2    53  ASN53      -0.2715
     22  CB       -20.0600    7.3200  114.4690 C.3    53  ASN53       0.1195
     23  CG       -20.4250    7.4270  115.9250 C.2    53  ASN53       0.2630
     24  OD1      -19.9780    6.6450  116.7650 O.2    53  ASN53      -0.2716
     25  ND2      -21.2190    8.4000  116.2630 N.am   53  ASN53      -0.0877
     26  N        -21.5790    6.7290  111.1280 N.am   54  LEU54      -0.1963
     27  CA       -21.2280    6.4730  109.7250 C.3    54  LEU54       0.1728
     28  C        -20.1480    7.3950  109.2050 C.2    54  LEU54       0.2617
     29  O        -19.3710    6.9840  108.3690 O.2    54  LEU54      -0.2715
     30  CB       -22.4430    6.4680  108.7670 C.3    54  LEU54       0.0311
     31  CG       -23.5080    5.3680  108.9170 C.3    54  LEU54       0.0022
     32  CD1      -24.7330    5.7020  108.0730 C.3    54  LEU54       0.0001
     33  CD2      -22.9790    3.9490  108.5540 C.3    54  LEU54       0.0001
     34  N        -20.0440    8.5900  109.7320 N.am   55  THR55      -0.1937
     35  CA       -19.0320    9.5360  109.2320 C.3    55  THR55       0.2028
     36  C        -17.6130    9.2730  109.8110 C.2    55  THR55       0.2642
     37  O        -16.6680    9.9370  109.4040 O.2    55  THR55      -0.2714
     38  CB       -19.4870   10.9880  109.4150 C.3    55  THR55       0.1808
     39  OG1      -19.3810   11.3360  110.7890 O.3    55  THR55      -0.2208
     40  CG2      -20.9140   11.2410  108.8990 C.3    55  THR55       0.0379
     41  N        -17.4690    8.3230  110.7530 N.am   56  LYS56      -0.1963
     42  CA       -16.1700    8.0180  111.3550 C.3    56  LYS56       0.1728
     43  C        -15.5410    6.7950  110.7130 C.2    56  LYS56       0.2616
     44  O        -16.1720    6.1880  109.8640 O.2    56  LYS56      -0.2715
     45  CB       -16.2830    7.9000  112.8870 C.3    56  LYS56       0.0311
     46  CG       -16.5840    9.2460  113.5060 C.3    56  LYS56       0.0038
     47  CD       -16.7640    9.1610  114.9890 C.3    56  LYS56       0.0206
     48  CE       -16.9610   10.5400  115.5570 C.3    56  LYS56       0.1093
     49  NZ       -16.6280   10.5730  116.9950 N.3    56  LYS56      -0.1314
     50  N        -14.2950    6.4470  111.0890 N.am   57  HIS57      -0.1959
     51  CA       -13.5730    5.3340  110.4910 C.3    57  HIS57       0.1787
     52  C        -14.0160    3.9970  111.0030 C.2    57  HIS57       0.2620
     53  O        -14.2680    3.8560  112.1970 O.2    57  HIS57      -0.2715
     54  CB       -12.0550    5.4920  110.7160 C.3    57  HIS57       0.0785
     55  CG       -11.4090    6.4890  109.8040 C.ar   57  HIS57       0.0821
     56  ND1      -11.3270    7.8330  110.1420 N.ar   57  HIS57      -0.2267
     57  CD2      -10.8630    6.3100  108.5740 C.ar   57  HIS57       0.1154
     58  CE1      -10.7150    8.4200  109.1190 C.ar   57  HIS57       0.1986
     59  NE2      -10.4310    7.5450  108.1450 N.ar   57  HIS57      -0.2212
     60  N        -14.0290    2.9880  110.1130 N.am   58  PHE58      -0.1974
     61  CA       -14.2910    1.5980  110.5000 C.3    58  PHE58       0.1639
     62  C        -13.1570    1.1700  111.4310 C.2    58  PHE58       0.2290
     63  O        -12.0120    1.5930  111.1950 O.2    58  PHE58      -0.2864
     64  CB       -14.2190    0.6440  109.2870 C.3    58  PHE58       0.0560
     65  CG       -15.5110    0.4370  108.5290 C.ar   58  PHE58      -0.0200
     66  CD1      -16.5860   -0.2380  109.1150 C.ar   58  PHE58      -0.0042
     67  CD2      -15.6280    0.8420  107.2000 C.ar   58  PHE58      -0.0042
     68  CE1      -17.7850   -0.4300  108.4050 C.ar   58  PHE58      -0.0003
     69  CE2      -16.8160    0.6370  106.4900 C.ar   58  PHE58      -0.0003
     70  CZ       -17.8940    0.0260  107.1060 C.ar   58  PHE58      -0.0000
     71  N        -27.7070    0.3160  111.9630 N.3   131  TRP131     -0.1241
     72  CA       -27.4740    1.6490  111.3740 C.3   131  TRP131      0.1605
     73  C        -28.7360    2.4670  111.2130 C.2   131  TRP131      0.2264
     74  O        -28.7010    3.6660  111.4330 O.2   131  TRP131     -0.2867
     75  CB       -26.7010    1.5940  110.0420 C.3   131  TRP131      0.0550
     76  CG       -25.2340    1.2660  110.1820 C.ar  131  TRP131      0.0003
     77  CD1      -24.3610    1.7370  111.1350 C.ar  131  TRP131      0.0946
     78  CD2      -24.4430    0.5020  109.2560 C.ar  131  TRP131      0.0152
     79  NE1      -23.0930    1.2600  110.8940 N.ar  131  TRP131     -0.2442
     80  CE2      -23.1140    0.4990  109.7400 C.ar  131  TRP131      0.0810
     81  CE3      -24.7290   -0.1740  108.0560 C.ar  131  TRP131      0.0012
     82  CZ2      -22.0760   -0.1550  109.0600 C.ar  131  TRP131      0.0191
     83  CZ3      -23.7140   -0.8720  107.4190 C.ar  131  TRP131      0.0001
     84  CH2      -22.4010   -0.8380  107.9070 C.ar  131  TRP131      0.0015
     85  N        -15.2440    4.7490  114.7720 N.3   200  GLN200     -0.1245
     86  CA       -16.6190    4.4160  115.1300 C.3   200  GLN200      0.1566
     87  C        -16.7260    3.7880  116.5220 C.2   200  GLN200      0.2260
     88  O        -15.8650    2.9920  116.9390 O.2   200  GLN200     -0.2867
     89  CB       -17.2150    3.4460  114.1330 C.3   200  GLN200      0.0367
     90  CG       -17.3700    4.0850  112.7430 C.3   200  GLN200      0.0905
     91  CD       -17.7030    3.0890  111.6470 C.2   200  GLN200      0.2608
     92  OE1      -17.3420    1.9170  111.7900 O.2   200  GLN200     -0.2717
     93  NE2      -18.3310    3.5100  110.5630 N.am  200  GLN200     -0.0878
@<TRIPOS>BOND
     1    69    70   ar
     2    69    67   ar
     3    70    68   ar
     4    67    65   ar
     5    83    84   ar
     6    83    81   ar
     7    84    82   ar
     8    81    78   ar
     9    32    31    1
    10    59    57   ar
    11    59    58   ar
    12    29    28    2
    13    68    66   ar
    14    65    66   ar
    15    65    64    1
    16    33    31    1
    17    57    55   ar
    18    30    31    1
    19    30    27    1
    20    40    38    1
    21    82    80   ar
    22    58    56   ar
    23    28    27    1
    24    28    34   am
    25    35    38    1
    26    35    34    1
    27    35    36    1
    28    78    80   ar
    29    78    76   ar
    30    64    61    1
    31    37    36    2
    32    38    39    1
    33    27    26    1
    34    80    79   ar
    35    55    56   ar
    36    55    54    1
    37    36    41   am
    38    44    43    2
    39    75    76    1
    40    75    72    1
    41    60    61    1
    42    60    52   am
    43    76    77   ar
    44    51    54    1
    45    51    52    1
    46    51    50    1
    47    61    62    1
    48    93    91   am
    49    43    50   am
    50    43    42    1
    51    41    42    1
    52    79    77   ar
    53    52    53    2
    54    26    20   am
    55    63    62    2
    56    73    72    1
    57    73    74    2
    58    42    45    1
    59    72    71    1
    60    91    92    2
    61    91    90    1
    62     6     5    1
    63    21    20    2
    64    20    19    1
    65    90    89    1
    66    45    46    1
    67    46    47    1
    68    19    18    1
    69    19    22    1
    70     5     2    1
    71     4     3    2
    72    18     9   am
    73    89    86    1
    74     9    10    2
    75     9     8    1
    76     3     2    1
    77     3     7   am
    78    22    23    1
    79     1     2    1
    80     8     7    1
    81     8    11    1
    82    85    86    1
    83    47    48    1
    84    86    87    1
    85    48    49    1
    86    11    12    1
    87    23    25   am
    88    23    24    2
    89    87    88    2
    90    12    14   ar
    91    12    13   ar
    92    14    16   ar
    93    13    15   ar
    94    16    17   ar
    95    15    17   ar
