@<TRIPOS>MOLECULE
tmp/4c1eA00.pdb
 122 120 0 0 0
SMALL
GASTEIGER

@<TRIPOS>ATOM
      1  N         75.8750    5.9590   66.7430 N.3    31  PHE31      -0.1241
      2  CA        74.8550    6.1140   65.7140 C.3    31  PHE31       0.1605
      3  C         73.9200    4.9100   65.8380 C.2    31  PHE31       0.2264
      4  O         74.3910    3.7600   65.8680 O.2    31  PHE31      -0.2867
      5  CB        75.5050    6.1400   64.3130 C.3    31  PHE31       0.0534
      6  CG        74.5460    6.4460   63.2120 C.ar   31  PHE31      -0.0203
      7  CD1       73.8430    5.4300   62.5670 C.ar   31  PHE31      -0.0042
      8  CD2       74.3370    7.7420   62.8180 C.ar   31  PHE31      -0.0042
      9  CE1       72.9480    5.7300   61.5630 C.ar   31  PHE31      -0.0003
     10  CE2       73.4220    8.0420   61.8230 C.ar   31  PHE31      -0.0003
     11  CZ        72.7590    7.0410   61.1810 C.ar   31  PHE31      -0.0000
     12  N         79.9770    3.2590   65.0580 N.3    36  TYR36      -0.1241
     13  CA        80.4170    3.0910   63.6780 C.3    36  TYR36       0.1605
     14  C         81.7550    3.8100   63.4740 C.2    36  TYR36       0.2264
     15  O         81.9620    4.8400   64.0540 O.2    36  TYR36      -0.2867
     16  CB        79.3770    3.6920   62.7180 C.3    36  TYR36       0.0534
     17  CG        78.2170    2.7950   62.3320 C.ar   36  TYR36      -0.0201
     18  CD1       77.0780    2.7310   63.0960 C.ar   36  TYR36      -0.0009
     19  CD2       78.2590    2.0530   61.1870 C.ar   36  TYR36      -0.0009
     20  CE1       76.0170    1.9430   62.7310 C.ar   36  TYR36       0.0417
     21  CE2       77.2030    1.2560   60.8170 C.ar   36  TYR36       0.0417
     22  CZ        76.0950    1.1950   61.6010 C.ar   36  TYR36       0.1957
     23  OH        75.0740    0.3840   61.1950 O.3    36  TYR36      -0.2866
     24  N         83.9570   13.5670   61.7320 N.3    56  TRP56      -0.1241
     25  CA        82.5920   13.2870   62.1870 C.3    56  TRP56       0.1605
     26  C         82.3530   13.9410   63.5540 C.2    56  TRP56       0.2264
     27  O         82.1490   13.2920   64.5830 O.2    56  TRP56      -0.2867
     28  CB        82.2800   11.7920   62.1300 C.3    56  TRP56       0.0550
     29  CG        80.8320   11.4040   62.2440 C.ar   56  TRP56       0.0003
     30  CD1       79.7530   12.2100   62.3810 C.ar   56  TRP56       0.0946
     31  CD2       80.3310   10.0570   62.2510 C.ar   56  TRP56       0.0152
     32  NE1       78.5870   11.4290   62.4720 N.ar   56  TRP56      -0.2442
     33  CE2       78.9320   10.1140   62.3750 C.ar   56  TRP56       0.0810
     34  CE3       80.9410    8.8000   62.1400 C.ar   56  TRP56       0.0012
     35  CZ2       78.1580    8.9790   62.4480 C.ar   56  TRP56       0.0191
     36  CZ3       80.1610    7.6930   62.1690 C.ar   56  TRP56       0.0001
     37  CH2       78.7880    7.7820   62.3210 C.ar   56  TRP56       0.0015
     38  N         80.8350   15.0700   50.7910 N.3    83  HIS83      -0.1241
     39  CA        79.3960   15.2890   50.6690 C.3    83  HIS83       0.1621
     40  C         78.9060   16.0450   51.8930 C.2    83  HIS83       0.2264
     41  O         79.7130   16.3860   52.7620 O.2    83  HIS83      -0.2867
     42  CB        78.5450   14.0290   50.3470 C.3    83  HIS83       0.0745
     43  CG        78.4670   12.9870   51.4140 C.ar   83  HIS83       0.0817
     44  ND1       79.4740   12.0770   51.6060 N.ar   83  HIS83      -0.2268
     45  CD2       77.4570   12.6200   52.2440 C.ar   83  HIS83       0.1154
     46  CE1       79.1150   11.2210   52.5550 C.ar   83  HIS83       0.1986
     47  NE2       77.8910   11.5240   52.9620 N.ar   83  HIS83      -0.2212
     48  N         76.8860   15.3800   54.4960 N.3    85  HIS85      -0.1226
     49  CA        76.5510   14.7730   55.7640 C.3    85  HIS85       0.1752
     50  C         77.5330   15.1300   56.8770 C.2    85  HIS85       0.2596
     51  O         78.6710   15.5170   56.6250 O.2    85  HIS85      -0.2718
     52  CB        76.4030   13.2510   55.6140 C.3    85  HIS85       0.0759
     53  CG        75.1860   12.8340   54.8360 C.ar   85  HIS85       0.0818
     54  ND1       75.0420   11.5640   54.3010 N.ar   85  HIS85      -0.2268
     55  CD2       74.0230   13.4860   54.5650 C.ar   85  HIS85       0.1154
     56  CE1       73.8750   11.4830   53.6750 C.ar   85  HIS85       0.1986
     57  NE2       73.2420   12.6310   53.8240 N.ar   85  HIS85      -0.2212
     58  N         77.1030   14.9260   58.1160 N.am   86  ASP86      -0.1960
     59  CA        77.8790   15.3660   59.2780 C.3    86  ASP86       0.1840
     60  C         79.1910   14.6240   59.4800 C.2    86  ASP86       0.2622
     61  O         80.0750   15.1310   60.1630 O.2    86  ASP86      -0.2715
     62  CB        77.0830   15.2170   60.5810 C.3    86  ASP86       0.1450
     63  CG        75.9330   16.1820   60.6870 C.2    86  ASP86       0.3671
     64  OD1       76.0720   17.3290   60.2340 O.co2  86  ASP86      -0.2456
     65  OD2       74.8990   15.7820   61.2540 O.co2  86  ASP86      -0.2456
     66  N         79.3420   13.4310   58.8930 N.am   87  ASP87      -0.1971
     67  CA        80.6420   12.7280   58.9740 C.3    87  ASP87       0.1709
     68  C         81.6860   13.2980   57.9860 C.2    87  ASP87       0.2293
     69  O         82.8600   12.9010   57.9820 O.2    87  ASP87      -0.2864
     70  CB        80.4610   11.2160   58.7690 C.3    87  ASP87       0.1436
     71  CG        79.8590   10.8290   57.4140 C.2    87  ASP87       0.3671
     72  OD1       79.1620   11.6430   56.7650 O.co2  87  ASP87      -0.2456
     73  OD2       80.0870    9.6430   57.0100 O.co2  87  ASP87      -0.2456
     74  N         75.2640    7.5570   46.8570 N.3   148  HIS148     -0.1241
     75  CA        74.8990    7.6870   48.2720 C.3   148  HIS148      0.1621
     76  C         74.1820    9.0130   48.5540 C.2   148  HIS148      0.2264
     77  O         73.2740    9.1010   49.3690 O.2   148  HIS148     -0.2867
     78  CB        76.1590    7.5480   49.1130 C.3   148  HIS148      0.0745
     79  CG        75.9970    7.9470   50.5350 C.ar  148  HIS148      0.0817
     80  ND1       75.5550    7.0950   51.5270 N.ar  148  HIS148     -0.2268
     81  CD2       76.2980    9.1080   51.1510 C.ar  148  HIS148      0.1154
     82  CE1       75.5140    7.7520   52.6780 C.ar  148  HIS148      0.1986
     83  NE2       75.9620    8.9740   52.4760 N.ar  148  HIS148     -0.2212
     84  N         81.3230    7.7880   50.9850 N.3   167  CYS167     -0.1235
     85  CA        80.1980    6.9870   51.4260 C.3   167  CYS167      0.1677
     86  C         79.4040    6.3890   50.2500 C.2   167  CYS167      0.2270
     87  O         78.5080    5.6150   50.4510 O.2   167  CYS167     -0.2867
     88  CB        79.3770    7.8090   52.4170 C.3   167  CYS167      0.0956
     89  SG        80.3970    8.3260   53.8150 S.3   167  CYS167     -0.0801
     90  N         79.8540   -4.7710   55.0770 N.3   174  ARG174     -0.1245
     91  CA        78.4830   -4.2860   54.9610 C.3   174  ARG174      0.1563
     92  C         77.8010   -5.0560   53.8170 C.2   174  ARG174      0.2260
     93  O         78.1800   -4.9300   52.6440 O.2   174  ARG174     -0.2867
     94  CB        78.4240   -2.7810   54.7160 C.3   174  ARG174      0.0307
     95  CG        77.0400   -2.3700   54.2550 C.3   174  ARG174      0.0489
     96  CD        76.9040   -0.8860   54.2500 C.3   174  ARG174      0.2205
     97  NE        76.5060   -0.3950   55.5570 N.pl3 174  ARG174     -0.0865
     98  CZ        76.2350    0.8860   55.8120 C.cat 174  ARG174      0.5346
     99  NH1       76.3480    1.7900   54.8510 N.pl3 174  ARG174      0.1354
    100  NH2       75.8330    1.2500   57.0070 N.pl3 174  ARG174      0.1354
    101  N         72.9170    0.8040   53.9460 N.3   178  GLY178     -0.1210
    102  CA        72.7750    1.6330   55.1440 C.3   178  GLY178      0.1956
    103  C         71.8680    2.8330   54.9000 C.2   178  GLY178      0.2611
    104  O         70.7470    2.7050   54.4260 O.2   178  GLY178     -0.2717
    105  N         72.3610    4.0110   55.2390 N.am  179  ASN179     -0.1974
    106  CA        71.5980    5.2330   55.1140 C.3   179  ASN179      0.1688
    107  C         71.4350    5.5920   53.6710 C.2   179  ASN179      0.2292
    108  O         72.4030    6.0770   53.0180 O.2   179  ASN179     -0.2864
    109  CB        72.3030    6.3610   55.8520 C.3   179  ASN179      0.1181
    110  CG        71.6810    7.7160   55.5900 C.2   179  ASN179      0.2629
    111  OD1       70.5680    7.8080   55.0840 O.2   179  ASN179     -0.2716
    112  ND2       72.4080    8.7770   55.9350 N.am  179  ASN179     -0.0877
    113  N         83.1360    4.2100   55.3780 N.3   209  HIS209     -0.1241
    114  CA        83.0680    3.5670   56.6720 C.3   209  HIS209      0.1621
    115  C         83.6450    2.1560   56.5450 C.2   209  HIS209      0.2264
    116  O         83.1410    1.3300   55.7710 O.2   209  HIS209     -0.2867
    117  CB        81.6000    3.5240   57.1500 C.3   209  HIS209      0.0745
    118  CG        80.9560    4.8750   57.1830 C.ar  209  HIS209      0.0817
    119  ND1       81.1490    5.7480   58.2180 N.ar  209  HIS209     -0.2268
    120  CD2       80.2060    5.5350   56.2560 C.ar  209  HIS209      0.1154
    121  CE1       80.5210    6.8820   57.9580 C.ar  209  HIS209      0.1986
    122  NE2       79.9490    6.7850   56.7670 N.ar  209  HIS209     -0.2212
@<TRIPOS>BOND
     1    74    75    1
     2    75    76    1
     3    75    78    1
     4    76    77    2
     5    78    79    1
     6    86    87    2
     7    86    85    1
     8    42    39    1
     9    42    43    1
    10    79    81   ar
    11    79    80   ar
    12    39    38    1
    13    39    40    1
    14    84    85    1
    15    81    83   ar
    16    43    44   ar
    17    43    45   ar
    18    85    88    1
    19    80    82   ar
    20    44    46   ar
    21    40    41    2
    22    45    47   ar
    23    88    89    1
    24    83    82   ar
    25    46    47   ar
    26    93    92    2
    27   108   107    2
    28   107   106    1
    29    56    57   ar
    30    56    54   ar
    31    92    91    1
    32    57    55   ar
    33   101   102    1
    34    96    95    1
    35    96    97    1
    36    95    94    1
    37    54    53   ar
    38   104   103    2
    39    48    49    1
    40    55    53   ar
    41    94    91    1
    42    53    52    1
    43    99    98    1
    44   103   102    1
    45   103   105   am
    46    91    90    1
    47   111   110    2
    48   106   105    1
    49   106   109    1
    50   113   114    1
    51    97    98    2
    52   110   109    1
    53   110   112   am
    54    52    49    1
    55    49    50    1
    56   116   115    2
    57    98   100    1
    58   120   122   ar
    59   120   118   ar
    60   115   114    1
    61    51    50    2
    62   114   117    1
    63    72    71   ar
    64   122   121   ar
    65    50    58   am
    66    73    71   ar
    67   117   118    1
    68   118   119   ar
    69    71    70    1
    70   121   119   ar
    71    69    68    2
    72    68    67    1
    73    58    59    1
    74    70    67    1
    75    66    67    1
    76    66    60   am
    77    59    60    1
    78    59    62    1
    79    60    61    2
    80    64    63   ar
    81    62    63    1
    82    63    65   ar
    83    21    19   ar
    84    21    22   ar
    85    11     9   ar
    86    11    10   ar
    87    19    17   ar
    88    23    22    1
    89     9     7   ar
    90    22    20   ar
    91    24    25    1
    92    10     8   ar
    93    28    25    1
    94    28    29    1
    95    34    36   ar
    96    34    31   ar
    97    36    37   ar
    98    25    26    1
    99    29    31   ar
   100    29    30   ar
   101    31    33   ar
   102    37    35   ar
   103    17    16    1
   104    17    18   ar
   105    33    35   ar
   106    33    32   ar
   107    30    32   ar
   108     7     6   ar
   109    16    13    1
   110    20    18   ar
   111     8     6   ar
   112     6     5    1
   113    14    13    1
   114    14    15    2
   115    26    27    2
   116    13    12    1
   117     5     2    1
   118     2     3    1
   119     2     1    1
   120     3     4    2
