@<TRIPOS>MOLECULE
tmp/4c1gA00.pdb
 122 117 0 0 0
SMALL
GASTEIGER

@<TRIPOS>ATOM
      1  N         21.4330   -8.7310  -19.2050 N.3    23  VAL23      -0.1245
      2  CA        20.5580   -9.8880  -18.9440 C.3    23  VAL23       0.1561
      3  C         20.5650  -10.8480  -20.1250 C.2    23  VAL23       0.2260
      4  O         20.2400  -10.4680  -21.2520 O.2    23  VAL23      -0.2867
      5  CB        19.1430   -9.4320  -18.6090 C.3    23  VAL23       0.0252
      6  CG1       18.2470  -10.6640  -18.3460 C.3    23  VAL23       0.0019
      7  CG2       19.1740   -8.5230  -17.4000 C.3    23  VAL23       0.0019
      8  N         18.2490  -10.6880  -23.1330 N.3    26  TRP26      -0.1241
      9  CA        17.4920   -9.4560  -23.1520 C.3    26  TRP26       0.1605
     10  C         18.3170   -8.2230  -23.3500 C.2    26  TRP26       0.2264
     11  O         17.7750   -7.1500  -23.6600 O.2    26  TRP26      -0.2867
     12  CB        16.6200   -9.3530  -21.9030 C.3    26  TRP26       0.0550
     13  CG        15.5700  -10.4330  -21.8780 C.ar   26  TRP26       0.0003
     14  CD1       15.6980  -11.7310  -21.4010 C.ar   26  TRP26       0.0946
     15  CD2       14.2030  -10.3560  -22.4020 C.ar   26  TRP26       0.0152
     16  NE1       14.5360  -12.4320  -21.5750 N.ar   26  TRP26      -0.2442
     17  CE2       13.6010  -11.6660  -22.1700 C.ar   26  TRP26       0.0810
     18  CE3       13.4500   -9.3710  -23.0110 C.ar   26  TRP26       0.0012
     19  CZ2       12.3020  -11.9490  -22.5390 C.ar   26  TRP26       0.0191
     20  CZ3       12.1390   -9.6670  -23.3770 C.ar   26  TRP26       0.0001
     21  CH2       11.5810  -10.9250  -23.1460 C.ar   26  TRP26       0.0015
     22  N         19.5670   -4.0520  -19.3230 N.3    29  VAL29      -0.1245
     23  CA        18.2680   -3.7290  -18.7780 C.3    29  VAL29       0.1561
     24  C         18.4320   -2.7070  -17.6710 C.2    29  VAL29       0.2260
     25  O         19.1790   -2.9280  -16.7300 O.2    29  VAL29      -0.2867
     26  CB        17.6090   -4.9810  -18.1820 C.3    29  VAL29       0.0252
     27  CG1       16.2970   -4.6280  -17.5050 C.3    29  VAL29       0.0019
     28  CG2       17.3990   -6.0400  -19.2500 C.3    29  VAL29       0.0019
     29  N         20.3380   -4.7080   -8.5970 N.3    49  PHE49      -0.1241
     30  CA        20.6180   -6.0920   -8.9600 C.3    49  PHE49       0.1605
     31  C         21.6870   -6.6800   -8.0520 C.2    49  PHE49       0.2264
     32  O         21.6160   -7.8400   -7.6740 O.2    49  PHE49      -0.2867
     33  CB        21.2190   -6.1660  -10.3650 C.3    49  PHE49       0.0534
     34  CG        20.2660   -5.8760  -11.4870 C.ar   49  PHE49      -0.0203
     35  CD1       20.1200   -4.5920  -11.9720 C.ar   49  PHE49      -0.0042
     36  CD2       19.5780   -6.9010  -12.1100 C.ar   49  PHE49      -0.0042
     37  CE1       19.2780   -4.3290  -13.0280 C.ar   49  PHE49      -0.0003
     38  CE2       18.7290   -6.6430  -13.1660 C.ar   49  PHE49      -0.0003
     39  CZ        18.5790   -5.3550  -13.6250 C.ar   49  PHE49      -0.0000
     40  N          9.0820   -8.0720   -5.8620 N.3    75  HIS75      -0.1241
     41  CA         8.9030   -9.4450   -6.3200 C.3    75  HIS75       0.1621
     42  C         10.1900  -10.2130   -6.2260 C.2    75  HIS75       0.2264
     43  O         11.2240   -9.6370   -5.8640 O.2    75  HIS75      -0.2867
     44  CB         8.2870   -9.5090   -7.7160 C.3    75  HIS75       0.0745
     45  CG         9.2520   -9.2200   -8.8450 C.ar   75  HIS75       0.0817
     46  ND1       10.2290   -8.3100   -8.7510 N.ar   75  HIS75      -0.2268
     47  CD2        9.3260   -9.7400  -10.1340 C.ar   75  HIS75       0.1154
     48  CE1       10.9050   -8.2620   -9.9090 C.ar   75  HIS75       0.1986
     49  NE2       10.3480   -9.1340  -10.7520 N.ar   75  HIS75      -0.2212
     50  N         12.3080  -11.8560   -8.3680 N.3    77  HIS77      -0.1241
     51  CA        13.4260  -11.7770   -9.2800 C.3    77  HIS77       0.1621
     52  C         14.5480  -10.9560   -8.6970 C.2    77  HIS77       0.2264
     53  O         14.3350  -10.0460   -7.8960 O.2    77  HIS77      -0.2867
     54  CB        13.0150  -11.2250  -10.6380 C.3    77  HIS77       0.0745
     55  CG        12.1540  -12.1620  -11.4510 C.ar   77  HIS77       0.0817
     56  ND1       11.2700  -11.7240  -12.3530 N.ar   77  HIS77      -0.2268
     57  CD2       12.0700  -13.5490  -11.4650 C.ar   77  HIS77       0.1154
     58  CE1       10.6550  -12.7620  -12.9240 C.ar   77  HIS77       0.1986
     59  NE2       11.1420  -13.8830  -12.3790 N.ar   77  HIS77      -0.2212
     60  N         16.2540   -8.5680   -9.7440 N.3    79  ASP79      -0.1239
     61  CA        16.4220   -7.1300   -9.8880 C.3    79  ASP79       0.1674
     62  C         15.6450   -6.3270   -8.8490 C.2    79  ASP79       0.2266
     63  O         15.7540   -5.1120   -8.7850 O.2    79  ASP79      -0.2867
     64  CB        16.0880   -6.6800  -11.3060 C.3    79  ASP79       0.1410
     65  CG        14.6530   -6.9360  -11.6870 C.2    79  ASP79       0.3668
     66  OD1       13.9660   -7.7370  -11.0360 O.co2  79  ASP79      -0.2456
     67  OD2       14.2270   -6.3230  -12.6630 O.co2  79  ASP79      -0.2456
     68  N          3.0830  -10.5500  -13.6950 N.3   137  HIS137     -0.1241
     69  CA         4.4530  -10.7550  -14.1240 C.3   137  HIS137      0.1621
     70  C          5.0300  -11.9550  -13.4300 C.2   137  HIS137      0.2264
     71  O          5.7190  -12.7850  -14.0510 O.2   137  HIS137     -0.2867
     72  CB         5.2730   -9.5020  -13.8320 C.3   137  HIS137      0.0745
     73  CG         6.7620   -9.6910  -13.9700 C.ar  137  HIS137      0.0817
     74  ND1        7.3620   -9.8550  -15.1540 N.ar  137  HIS137     -0.2268
     75  CD2        7.7730   -9.7100  -13.0140 C.ar  137  HIS137      0.1154
     76  CE1        8.6850   -9.9920  -14.9700 C.ar  137  HIS137      0.1986
     77  NE2        8.9330   -9.8980  -13.6620 N.ar  137  HIS137     -0.2212
     78  N          7.7870   -4.3960  -11.7900 N.3   156  CYS156     -0.1235
     79  CA         7.8480   -5.1590  -12.9950 C.3   156  CYS156      0.1677
     80  C          6.4940   -5.6290  -13.5090 C.2   156  CYS156      0.2270
     81  O          6.4290   -6.3090  -14.5290 O.2   156  CYS156     -0.2867
     82  CB         8.7380   -6.3580  -12.7440 C.3   156  CYS156      0.0956
     83  SG        10.4150   -5.7690  -12.1440 S.3   156  CYS156     -0.0801
     84  N          3.8720   -2.8010  -17.5630 N.3   159  LYS159     -0.1245
     85  CA         4.4950   -3.1810  -18.8200 C.3   159  LYS159      0.1561
     86  C          3.7490   -2.5260  -19.9590 C.2   159  LYS159      0.2260
     87  O          2.9460   -3.1610  -20.6250 O.2   159  LYS159     -0.2867
     88  CB         4.4420   -4.6960  -18.9930 C.3   159  LYS159      0.0271
     89  CG         5.3750   -5.4690  -18.0810 C.3   159  LYS159      0.0035
     90  CD         6.8190   -5.2140  -18.4580 C.3   159  LYS159      0.0206
     91  CE         7.7690   -6.1010  -17.6760 C.3   159  LYS159      0.1093
     92  NZ         9.1560   -5.8760  -18.1550 N.3   159  LYS159     -0.1314
     93  N          4.8810   -7.3400  -22.5710 N.3   163  LEU163     -0.1231
     94  CA         4.9910   -7.9840  -21.2580 C.3   163  LEU163      0.1693
     95  C          6.3740   -8.4410  -20.8570 C.2   163  LEU163      0.2593
     96  O          6.6000   -8.7540  -19.7060 O.2   163  LEU163     -0.2718
     97  CB         4.0100   -9.1470  -21.1660 C.3   163  LEU163      0.0284
     98  CG         2.5450   -8.7100  -21.4470 C.3   163  LEU163      0.0019
     99  CD1        1.5960   -9.9120  -21.4720 C.3   163  LEU163      0.0001
    100  CD2        2.0210   -7.6700  -20.4120 C.3   163  LEU163      0.0001
    101  N          7.3030   -8.5080  -21.7960 N.am  164  GLY164     -0.1942
    102  CA         8.6250   -9.0400  -21.4550 C.3   164  GLY164      0.2014
    103  C          8.6490  -10.5510  -21.1680 C.2   164  GLY164      0.2638
    104  O          7.8830  -11.3290  -21.7410 O.2   164  GLY164     -0.2714
    105  N          9.5640  -10.9740  -20.2990 N.am  165  ASN165     -0.1972
    106  CA         9.7630  -12.3990  -20.0830 C.3   165  ASN165      0.1688
    107  C          8.6160  -12.9850  -19.3030 C.2   165  ASN165      0.2292
    108  O          8.3850  -12.5450  -18.2050 O.2   165  ASN165     -0.2864
    109  CB        11.0430  -12.6230  -19.2950 C.3   165  ASN165      0.1181
    110  CG        11.4270  -14.0590  -19.2040 C.2   165  ASN165      0.2629
    111  OD1       10.6100  -14.9570  -19.4360 O.2   165  ASN165     -0.2716
    112  ND2       12.7020  -14.3020  -18.8760 N.am  165  ASN165     -0.0877
    113  N         11.0750   -0.9160  -15.6550 N.3   195  HIS195     -0.1241
    114  CA        11.8860   -1.0560  -16.8510 C.3   195  HIS195      0.1621
    115  C         11.6190   -0.0220  -17.9880 C.2   195  HIS195      0.2264
    116  O         12.1290   -0.1430  -19.1060 O.2   195  HIS195     -0.2867
    117  CB        11.8300   -2.5010  -17.3590 C.3   195  HIS195      0.0745
    118  CG        12.2960   -3.5260  -16.3540 C.ar  195  HIS195      0.0817
    119  ND1       13.5780   -3.5250  -15.8330 N.ar  195  HIS195     -0.2268
    120  CD2       11.6560   -4.5730  -15.7740 C.ar  195  HIS195      0.1154
    121  CE1       13.7120   -4.5520  -15.0040 C.ar  195  HIS195      0.1986
    122  NE2       12.5570   -5.1880  -14.9270 N.ar  195  HIS195     -0.2212
@<TRIPOS>BOND
     1    11    10    2
     2    20    21   ar
     3    20    18   ar
     4    10     9    1
     5     9     8    1
     6     9    12    1
     7    21    19   ar
     8    18    15   ar
     9    93    94    1
    10    19    17   ar
    11    15    17   ar
    12    15    13   ar
    13    17    16   ar
    14    12    13    1
    15    13    14   ar
    16   101   102    1
    17   101    95   am
    18   104   103    2
    19    16    14   ar
    20    99    98    1
    21   102   103    1
    22    98    97    1
    23    98   100    1
    24    94    97    1
    25    94    95    1
    26     4     3    2
    27   103   105   am
    28    95    96    2
    29    87    86    2
    30   105   106    1
    31     3     2    1
    32   106   107    1
    33   106   109    1
    34    86    85    1
    35   111   110    2
    36    22    23    1
    37   107   108    2
    38   109   110    1
    39    28    26    1
    40     1     2    1
    41   110   112   am
    42   116   115    2
    43    88    85    1
    44    88    89    1
    45     2     5    1
    46    85    84    1
    47    23    26    1
    48    23    24    1
    49     5     6    1
    50     5     7    1
    51    90    89    1
    52    90    91    1
    53    26    27    1
    54    92    91    1
    55   115   114    1
    56    24    25    2
    57   117   114    1
    58   117   118    1
    59   114   113    1
    60   118   119   ar
    61   118   120   ar
    62   119   121   ar
    63   120   122   ar
    64    74    76   ar
    65    74    73   ar
    66   121   122   ar
    67    76    77   ar
    68    81    80    2
    69    69    72    1
    70    69    68    1
    71    69    70    1
    72    71    70    2
    73    73    72    1
    74    73    75   ar
    75    77    75   ar
    76    39    38   ar
    77    39    37   ar
    78    80    79    1
    79    38    36   ar
    80    37    35   ar
    81    79    82    1
    82    79    78    1
    83    58    59   ar
    84    58    56   ar
    85    82    83    1
    86    67    65   ar
    87    59    57   ar
    88    56    55   ar
    89    36    34   ar
    90    35    34   ar
    91    65    64    1
    92    65    66   ar
    93    34    33    1
    94    57    55   ar
    95    55    54    1
    96    64    61    1
    97    49    47   ar
    98    49    48   ar
    99    54    51    1
   100    33    30    1
   101    47    45   ar
   102    48    46   ar
   103    61    60    1
   104    61    62    1
   105    51    52    1
   106    51    50    1
   107    30    29    1
   108    30    31    1
   109    62    63    2
   110    45    46   ar
   111    45    44    1
   112    52    53    2
   113    31    32    2
   114    44    41    1
   115    41    42    1
   116    41    40    1
   117    42    43    2
