@<TRIPOS>MOLECULE
tmp/4c1hA00.pdb
 112 109 0 0 0
SMALL
GASTEIGER

@<TRIPOS>ATOM
      1  N         11.9760   22.9720   48.7800 N.3    29  PHE29      -0.1241
      2  CA        12.6390   23.3240   47.5300 C.3    29  PHE29       0.1605
      3  C         11.8240   24.3550   46.7630 C.2    29  PHE29       0.2264
      4  O         10.6960   24.0830   46.3470 O.2    29  PHE29      -0.2867
      5  CB        12.8480   22.0730   46.6760 C.3    29  PHE29       0.0534
      6  CG        13.6600   21.0130   47.3570 C.ar   29  PHE29      -0.0203
      7  CD1       13.0520   20.0730   48.1710 C.ar   29  PHE29      -0.0042
      8  CD2       15.0350   20.9680   47.1990 C.ar   29  PHE29      -0.0042
      9  CE1       13.7980   19.0990   48.8070 C.ar   29  PHE29      -0.0003
     10  CE2       15.7880   19.9970   47.8310 C.ar   29  PHE29      -0.0003
     11  CZ        15.1690   19.0620   48.6370 C.ar   29  PHE29      -0.0000
     12  N          8.3590   19.0100   49.9220 N.3    34  VAL34      -0.1245
     13  CA         8.4240   17.7540   49.1740 C.3    34  VAL34       0.1561
     14  C          8.6110   16.6000   50.1510 C.2    34  VAL34       0.2260
     15  O          9.6540   16.4950   50.7890 O.2    34  VAL34      -0.2867
     16  CB         9.5770   17.7650   48.1510 C.3    34  VAL34       0.0252
     17  CG1        9.5760   16.4780   47.3240 C.3    34  VAL34       0.0019
     18  CG2        9.4800   18.9990   47.2450 C.3    34  VAL34       0.0019
     19  N         16.5050   14.0160   53.6020 N.3    54  TRP54      -0.1241
     20  CA        17.0260   15.0140   52.6920 C.3    54  TRP54       0.1605
     21  C         18.3490   15.6130   53.1120 C.2    54  TRP54       0.2264
     22  O         19.1210   16.0350   52.2340 O.2    54  TRP54      -0.2867
     23  CB        16.0230   16.1460   52.5460 C.3    54  TRP54       0.0550
     24  CG        14.7010   15.7670   51.9900 C.ar   54  TRP54       0.0003
     25  CD1       13.5340   15.5440   52.6810 C.ar   54  TRP54       0.0946
     26  CD2       14.3860   15.6110   50.6040 C.ar   54  TRP54       0.0152
     27  NE1       12.5140   15.2570   51.7940 N.ar   54  TRP54      -0.2442
     28  CE2       13.0130   15.2890   50.5190 C.ar   54  TRP54       0.0810
     29  CE3       15.1320   15.7180   49.4270 C.ar   54  TRP54       0.0012
     30  CZ2       12.3700   15.0920   49.2970 C.ar   54  TRP54       0.0191
     31  CZ3       14.4980   15.5150   48.2290 C.ar   54  TRP54       0.0001
     32  CH2       13.1340   15.1960   48.1710 C.ar   54  TRP54       0.0015
     33  N         19.1400    4.2360   47.1990 N.3    81  HIS81      -0.1241
     34  CA        19.8850    4.7990   46.0580 C.3    81  HIS81       0.1621
     35  C         20.5790    6.0720   46.4810 C.2    81  HIS81       0.2264
     36  O         20.4700    6.4920   47.6730 O.2    81  HIS81      -0.2867
     37  CB        19.0570    4.9450   44.7680 C.3    81  HIS81       0.0745
     38  CG        17.9590    5.9940   44.8200 C.ar   81  HIS81       0.0817
     39  ND1       16.7580    5.7570   45.3750 N.ar   81  HIS81      -0.2268
     40  CD2       17.8850    7.2790   44.2650 C.ar   81  HIS81       0.1154
     41  CE1       15.9660    6.8460   45.2350 C.ar   81  HIS81       0.1986
     42  NE2       16.6430    7.7750   44.5430 N.ar   81  HIS81      -0.2212
     43  N         20.4100    9.3780   45.8670 N.3    83  HIS83      -0.1226
     44  CA        19.8120   10.6950   45.7260 C.3    83  HIS83       0.1752
     45  C         19.6820   11.2610   47.1290 C.2    83  HIS83       0.2596
     46  O         19.6390   10.5120   48.1070 O.2    83  HIS83      -0.2718
     47  CB        18.4360   10.6190   45.0490 C.3    83  HIS83       0.0759
     48  CG        18.4730   10.6280   43.5230 C.ar   83  HIS83       0.0818
     49  ND1       17.4080   10.2350   42.7740 N.ar   83  HIS83      -0.2268
     50  CD2       19.4580   11.0120   42.6320 C.ar   83  HIS83       0.1154
     51  CE1       17.7060   10.3690   41.4700 C.ar   83  HIS83       0.1986
     52  NE2       18.9540   10.8520   41.3720 N.ar   83  HIS83      -0.2212
     53  N         19.5780   12.5720   47.2450 N.am   84  ALA84      -0.1966
     54  CA        19.6130   13.2700   48.5330 C.3    84  ALA84       0.1728
     55  C         18.5170   12.8430   49.5160 C.2    84  ALA84       0.2616
     56  O         18.7410   12.8130   50.7180 O.2    84  ALA84      -0.2715
     57  CB        19.5430   14.7740   48.3070 C.3    84  ALA84       0.0334
     58  N         17.3170   12.5790   49.0230 N.am   85  ASP85      -0.1971
     59  CA        16.2540   12.1200   49.9000 C.3    85  ASP85       0.1709
     60  C         16.5860   10.8240   50.6360 C.2    85  ASP85       0.2293
     61  O         16.1120   10.5810   51.7510 O.2    85  ASP85      -0.2864
     62  CB        14.9040   12.0050   49.1660 C.3    85  ASP85       0.1436
     63  CG        14.9090   11.0530   47.9740 C.2    85  ASP85       0.3671
     64  OD1       15.9080   11.0120   47.2400 O.co2  85  ASP85      -0.2456
     65  OD2       13.8520   10.4040   47.7940 O.co2  85  ASP85      -0.2456
     66  N         14.2660    4.0490   38.1430 N.3   144  HIS144     -0.1241
     67  CA        14.3100    5.4190   38.5990 C.3   144  HIS144      0.1621
     68  C         15.7360    5.9640   38.6060 C.2   144  HIS144      0.2264
     69  O         15.9840    7.1040   38.2130 O.2   144  HIS144     -0.2867
     70  CB        13.6640    5.4980   39.9780 C.3   144  HIS144      0.0745
     71  CG        13.9770    6.7450   40.7210 C.ar  144  HIS144      0.0817
     72  ND1       13.4240    7.9650   40.4220 N.ar  144  HIS144     -0.2268
     73  CD2       14.8480    6.9690   41.7340 C.ar  144  HIS144      0.1154
     74  CE1       13.9180    8.8780   41.2450 C.ar  144  HIS144      0.1986
     75  NE2       14.7900    8.3020   42.0470 N.ar  144  HIS144     -0.2212
     76  N         12.0160    4.7770   45.3870 N.3   163  CYS163     -0.1235
     77  CA        11.6110    5.7450   44.3850 C.3   163  CYS163      0.1677
     78  C         11.4520    5.0660   43.0020 C.2   163  CYS163      0.2270
     79  O         10.9860    5.7070   42.0310 O.2   163  CYS163     -0.2867
     80  CB        12.5650    6.9480   44.4190 C.3   163  CYS163      0.0956
     81  SG        12.7600    7.5760   46.1290 S.3   163  CYS163     -0.0801
     82  N          6.1150    4.4420   42.0000 N.3   166  LYS166     -0.1245
     83  CA         5.3420    5.6720   42.1020 C.3   166  LYS166      0.1561
     84  C          4.0370    5.4700   42.8580 C.2   166  LYS166      0.2260
     85  O          3.3560    4.4490   42.6920 O.2   166  LYS166     -0.2867
     86  CB         5.0540    6.2290   40.7050 C.3   166  LYS166      0.0271
     87  CG         6.3180    6.6040   39.9250 C.3   166  LYS166      0.0035
     88  CD         7.0140    7.8410   40.5210 C.3   166  LYS166      0.0206
     89  CE         8.3300    8.2020   39.8610 C.3   166  LYS166      0.1093
     90  NZ         8.8890    9.4190   40.4870 N.3   166  LYS166     -0.1314
     91  N          8.3240   12.0600   37.0180 N.3   174  GLY174     -0.1210
     92  CA         9.1970   12.9950   37.7050 C.3   174  GLY174      0.1956
     93  C         10.4980   13.2190   36.9550 C.2   174  GLY174      0.2611
     94  O         10.6080   13.0020   35.7430 O.2   174  GLY174     -0.2717
     95  N         11.5320   13.6170   37.6840 N.am  175  ASN175     -0.1974
     96  CA        12.8100   13.8850   37.0600 C.3   175  ASN175      0.1688
     97  C         13.4300   12.5720   36.5840 C.2   175  ASN175      0.2292
     98  O         13.6870   11.6600   37.3870 O.2   175  ASN175     -0.2864
     99  CB        13.7240   14.6270   38.0340 C.3   175  ASN175      0.1181
    100  CG        15.0000   15.0990   37.3860 C.2   175  ASN175      0.2629
    101  OD1       15.7920   14.2890   36.9130 O.2   175  ASN175     -0.2716
    102  ND2       15.2070   16.4180   37.3570 N.am  175  ASN175     -0.0877
    103  N          7.8040    8.2970   47.6430 N.3   205  HIS205     -0.1241
    104  CA         7.0960    9.5830   47.7890 C.3   205  HIS205      0.1621
    105  C          5.6160    9.2690   47.6550 C.2   205  HIS205      0.2264
    106  O          5.2220    8.6070   46.7140 O.2   205  HIS205     -0.2867
    107  CB         7.5690   10.6050   46.7070 C.3   205  HIS205      0.0745
    108  CG         9.0640   10.7950   46.7010 C.ar  205  HIS205      0.0817
    109  ND1        9.7140   11.6540   47.5630 N.ar  205  HIS205     -0.2268
    110  CD2       10.0510   10.1730   46.0020 C.ar  205  HIS205      0.1154
    111  CE1       11.0230   11.5460   47.4050 C.ar  205  HIS205      0.1986
    112  NE2       11.2570   10.6590   46.4570 N.ar  205  HIS205     -0.2212
@<TRIPOS>BOND
     1    94    93    2
     2    97    96    1
     3    97    98    2
     4   101   100    2
     5    93    95   am
     6    93    92    1
     7    91    92    1
     8    96    95    1
     9    96    99    1
    10   102   100   am
    11   100    99    1
    12    66    67    1
    13    69    68    2
    14    67    68    1
    15    67    70    1
    16    89    90    1
    17    89    88    1
    18    87    88    1
    19    87    86    1
    20    70    71    1
    21    72    71   ar
    22    72    74   ar
    23    86    83    1
    24    71    73   ar
    25    74    75   ar
    26    52    51   ar
    27    52    50   ar
    28    51    49   ar
    29    73    75   ar
    30    82    83    1
    31    79    78    2
    32    83    84    1
    33    50    48   ar
    34    85    84    2
    35    49    48   ar
    36    78    77    1
    37    48    47    1
    38    40    42   ar
    39    40    38   ar
    40    77    80    1
    41    77    76    1
    42    80    81    1
    43    42    41   ar
    44    37    38    1
    45    37    34    1
    46    38    39   ar
    47    47    44    1
    48    41    39   ar
    49    44    43    1
    50    44    45    1
    51   110   112   ar
    52   110   108   ar
    53    34    35    1
    54    34    33    1
    55     4     3    2
    56   112   111   ar
    57    35    36    2
    58     5     6    1
    59     5     2    1
    60   108   107    1
    61   108   109   ar
    62   107   104    1
    63   106   105    2
    64     3     2    1
    65    45    53   am
    66    45    46    2
    67     8     6   ar
    68     8    10   ar
    69    64    63   ar
    70    53    54    1
    71    18    16    1
    72    17    16    1
    73     6     7   ar
    74   111   109   ar
    75     2     1    1
    76   103   104    1
    77   105   104    1
    78    65    63   ar
    79    10    11   ar
    80    63    62    1
    81    16    13    1
    82    32    31   ar
    83    32    30   ar
    84     7     9   ar
    85    31    29   ar
    86    57    54    1
    87    54    55    1
    88    11     9   ar
    89    58    55   am
    90    58    59    1
    91    62    59    1
    92    13    12    1
    93    13    14    1
    94    30    28   ar
    95    29    26   ar
    96    55    56    2
    97    59    60    1
    98    14    15    2
    99    28    26   ar
   100    28    27   ar
   101    26    24   ar
   102    60    61    2
   103    27    25   ar
   104    24    23    1
   105    24    25   ar
   106    22    21    2
   107    23    20    1
   108    20    21    1
   109    20    19    1
