@<TRIPOS>MOLECULE
tmp/4c1iC00.pdb
 194 185 0 0 0
SMALL
GASTEIGER

@<TRIPOS>ATOM
      1  N         -9.7920  -65.4750   32.3250 N.3    75  TYR75      -0.1227
      2  CA        -8.7060  -65.5000   31.3450 C.3    75  TYR75       0.1736
      3  C         -9.1220  -66.0560   29.9720 C.2    75  TYR75       0.2595
      4  O         -9.0980  -65.3380   28.9820 O.2    75  TYR75      -0.2718
      5  CB        -7.5150  -66.2770   31.8920 C.3    75  TYR75       0.0548
      6  CG        -6.3230  -66.2860   30.9700 C.ar   75  TYR75      -0.0200
      7  CD1       -5.6320  -65.1090   30.6740 C.ar   75  TYR75      -0.0009
      8  CD2       -5.8820  -67.4660   30.3900 C.ar   75  TYR75      -0.0009
      9  CE1       -4.5400  -65.1160   29.8240 C.ar   75  TYR75       0.0417
     10  CE2       -4.7910  -67.4840   29.5460 C.ar   75  TYR75       0.0417
     11  CZ        -4.1200  -66.3100   29.2650 C.ar   75  TYR75       0.1957
     12  OH        -3.0280  -66.3440   28.4230 O.3    75  TYR75      -0.2866
     13  N         -9.5110  -67.3260   29.9230 N.am   76  HIS76      -0.1975
     14  CA        -9.7940  -68.0050   28.6560 C.3    76  HIS76       0.1656
     15  C        -11.0870  -67.5130   27.9900 C.2    76  HIS76       0.2291
     16  O        -12.1030  -68.2070   27.9820 O.2    76  HIS76      -0.2864
     17  CB        -9.8330  -69.5240   28.8610 C.3    76  HIS76       0.0771
     18  CG        -8.5040  -70.1230   29.2120 C.ar   76  HIS76       0.0820
     19  ND1       -8.1760  -70.5160   30.4920 N.ar   76  HIS76      -0.2267
     20  CD2       -7.4300  -70.4170   28.4440 C.ar   76  HIS76       0.1154
     21  CE1       -6.9530  -71.0160   30.4990 C.ar   76  HIS76       0.1986
     22  NE2       -6.4770  -70.9650   29.2690 N.ar   76  HIS76      -0.2212
     23  N        -13.8430  -72.9710   26.3700 N.3   120  HIS120     -0.1241
     24  CA       -13.1060  -73.1710   27.6240 C.3   120  HIS120      0.1621
     25  C        -14.0080  -72.7350   28.7920 C.2   120  HIS120      0.2264
     26  O        -14.7110  -71.7260   28.6850 O.2   120  HIS120     -0.2867
     27  CB       -11.7990  -72.3600   27.6190 C.3   120  HIS120      0.0745
     28  CG       -10.7110  -72.9440   28.4670 C.ar  120  HIS120      0.0817
     29  ND1      -10.6590  -72.7830   29.8350 N.ar  120  HIS120     -0.2268
     30  CD2       -9.6210  -73.6750   28.1370 C.ar  120  HIS120      0.1154
     31  CE1       -9.5920  -73.3970   30.3130 C.ar  120  HIS120      0.1986
     32  NE2       -8.9420  -73.9440   29.3020 N.ar  120  HIS120     -0.2212
     33  N         -9.0580  -76.7330   33.7880 N.3   124  ASN124     -0.1240
     34  CA        -8.0720  -77.4480   32.9750 C.3   124  ASN124      0.1653
     35  C         -8.4160  -78.9400   32.7540 C.2   124  ASN124      0.2266
     36  O         -9.5170  -79.3760   33.0770 O.2   124  ASN124     -0.2867
     37  CB        -6.6860  -77.2870   33.6050 C.3   124  ASN124      0.1155
     38  CG        -6.5210  -78.1000   34.8720 C.2   124  ASN124      0.2627
     39  OD1       -7.5010  -78.5770   35.4550 O.2   124  ASN124     -0.2716
     40  ND2       -5.2770  -78.2580   35.3110 N.am  124  ASN124     -0.0877
     41  N         -1.0060  -76.9270   21.9360 N.3   188  THR188     -0.1203
     42  CA        -1.1910  -75.9910   23.0580 C.3   188  THR188      0.1994
     43  C         -1.1190  -76.6370   24.4440 C.2   188  THR188      0.2618
     44  O         -0.8760  -75.9490   25.4320 O.2   188  THR188     -0.2717
     45  CB        -2.5410  -75.2380   22.9790 C.3   188  THR188      0.1784
     46  OG1       -3.6190  -76.1720   22.8250 O.3   188  THR188     -0.2211
     47  CG2       -2.5510  -74.2470   21.8260 C.3   188  THR188      0.0376
     48  N         -1.3460  -77.9450   24.5230 N.am  189  ASP189     -0.1959
     49  CA        -1.2750  -78.6690   25.7970 C.3   189  ASP189      0.1840
     50  C          0.1600  -78.6690   26.3100 C.2   189  ASP189      0.2621
     51  O          1.0960  -78.8910   25.5430 O.2   189  ASP189     -0.2715
     52  CB        -1.7720  -80.1100   25.6120 C.3   189  ASP189      0.1450
     53  CG        -1.9440  -80.8630   26.9300 C.2   189  ASP189      0.3671
     54  OD1       -1.6840  -80.2930   28.0110 O.co2 189  ASP189     -0.2456
     55  OD2       -2.3510  -82.0420   26.8810 O.co2 189  ASP189     -0.2456
     56  N          0.3320  -78.4120   27.6040 N.am  190  LEU190     -0.1977
     57  CA         1.6550  -78.4870   28.2290 C.3   190  LEU190      0.1596
     58  C          2.2570  -79.8900   28.0350 C.2   190  LEU190      0.2287
     59  O          3.4420  -80.0280   27.7120 O.2   190  LEU190     -0.2864
     60  CB         1.5630  -78.1350   29.7200 C.3   190  LEU190      0.0297
     61  CG         2.8110  -78.3360   30.5880 C.3   190  LEU190      0.0022
     62  CD1        4.0040  -77.5740   30.0280 C.3   190  LEU190      0.0001
     63  CD2        2.5290  -77.9160   32.0260 C.3   190  LEU190      0.0001
     64  N          3.9470  -80.1240   24.7400 N.3   193  HIS193     -0.1241
     65  CA         5.1750  -79.3330   24.6740 C.3   193  HIS193      0.1621
     66  C          6.3440  -80.0330   25.3620 C.2   193  HIS193      0.2264
     67  O          7.4710  -80.0220   24.8610 O.2   193  HIS193     -0.2867
     68  CB         4.9720  -77.9470   25.2960 C.3   193  HIS193      0.0745
     69  CG         6.2330  -77.1440   25.3790 C.ar  193  HIS193      0.0817
     70  ND1        6.8420  -76.6000   24.2680 N.ar  193  HIS193     -0.2268
     71  CD2        7.0160  -76.8180   26.4340 C.ar  193  HIS193      0.1154
     72  CE1        7.9390  -75.9640   24.6370 C.ar  193  HIS193      0.1986
     73  NE2        8.0680  -76.0820   25.9460 N.ar  193  HIS193     -0.2212
     74  N          2.7800  -72.2820   20.8060 N.3   225  THR225     -0.1218
     75  CA         2.9640  -72.1350   22.2500 C.3   225  THR225      0.1862
     76  C          3.5230  -70.7590   22.6580 C.2   225  THR225      0.2287
     77  O          3.1990  -70.2600   23.7380 O.2   225  THR225     -0.2866
     78  CB         3.8150  -73.2780   22.8520 C.3   225  THR225      0.1770
     79  OG1        3.9570  -73.0670   24.2560 O.3   225  THR225     -0.2211
     80  CG2        5.1900  -73.3410   22.2510 C.3   225  THR225      0.0375
     81  N          0.2960  -68.6830   22.6210 N.3   228  ASP228     -0.1225
     82  CA        -0.5740  -68.9360   23.7740 C.3   228  ASP228      0.1805
     83  C         -0.0290  -68.2320   25.0200 C.2   228  ASP228      0.2597
     84  O         -0.7920  -67.7760   25.8640 O.2   228  ASP228     -0.2718
     85  CB        -0.7240  -70.4460   24.0260 C.3   228  ASP228      0.1424
     86  CG        -1.9650  -70.8060   24.8550 C.2   228  ASP228      0.3668
     87  OD1       -2.8990  -69.9890   25.0260 O.co2 228  ASP228     -0.2456
     88  OD2       -2.0060  -71.9500   25.3330 O.co2 228  ASP228     -0.2456
     89  N          1.2970  -68.1310   25.1150 N.am  229  LEU229     -0.1979
     90  CA         1.9540  -67.4950   26.2550 C.3   229  LEU229      0.1596
     91  C          2.4350  -66.0720   25.9550 C.2   229  LEU229      0.2287
     92  O          3.3100  -65.5620   26.6580 O.2   229  LEU229     -0.2864
     93  CB         3.1530  -68.3410   26.7080 C.3   229  LEU229      0.0297
     94  CG         2.9060  -69.7820   27.1580 C.3   229  LEU229      0.0022
     95  CD1        4.1600  -70.3170   27.8310 C.3   229  LEU229      0.0001
     96  CD2        1.7090  -69.8820   28.0940 C.3   229  LEU229      0.0001
     97  N          3.2170  -62.8850   28.3380 N.3   232  GLN232     -0.1245
     98  CA         4.4960  -62.8100   29.0280 C.3   232  GLN232      0.1566
     99  C          5.5290  -61.9180   28.3430 C.2   232  GLN232      0.2260
    100  O          6.5100  -61.5480   28.9790 O.2   232  GLN232     -0.2867
    101  CB         5.1040  -64.2100   29.2070 C.3   232  GLN232      0.0367
    102  CG         4.2410  -65.1980   29.9760 C.3   232  GLN232      0.0905
    103  CD         3.7070  -64.6380   31.2810 C.2   232  GLN232      0.2608
    104  OE1        2.4960  -64.5010   31.4650 O.2   232  GLN232     -0.2717
    105  NE2        4.6090  -64.2990   32.1900 N.am  232  GLN232     -0.0878
    106  N         -1.7730  -62.0540   34.9530 N.3   243  ALA243     -0.1245
    107  CA        -1.5700  -62.9840   36.0830 C.3   243  ALA243      0.1562
    108  C         -2.8120  -63.0360   36.9750 C.2   243  ALA243      0.2260
    109  O         -3.2630  -64.1220   37.3530 O.2   243  ALA243     -0.2867
    110  CB        -0.3500  -62.6000   36.9070 C.3   243  ALA243      0.0290
    111  N         -5.5600  -65.0540   35.3560 N.3   246  ILE246     -0.1231
    112  CA        -5.2260  -66.4760   35.3870 C.3   246  ILE246      0.1692
    113  C         -5.4560  -67.0890   36.7790 C.2   246  ILE246      0.2592
    114  O         -6.0470  -68.1660   36.8880 O.2   246  ILE246     -0.2718
    115  CB        -3.7790  -66.7240   34.8990 C.3   246  ILE246      0.0266
    116  CG1       -3.6750  -66.4230   33.3990 C.3   246  ILE246      0.0019
    117  CG2       -3.3540  -68.1660   35.1450 C.3   246  ILE246      0.0020
    118  CD1       -2.2570  -66.3020   32.8820 C.3   246  ILE246      0.0001
    119  N         -5.0250  -66.4010   37.8340 N.am  247  TYR247     -0.1976
    120  CA        -5.1680  -66.9380   39.1980 C.3   247  TYR247      0.1639
    121  C         -6.5980  -66.8890   39.7270 C.2   247  TYR247      0.2290
    122  O         -6.9700  -67.7110   40.5550 O.2   247  TYR247     -0.2864
    123  CB        -4.1860  -66.2840   40.1800 C.3   247  TYR247      0.0560
    124  CG        -2.7940  -66.8660   40.0530 C.ar  247  TYR247     -0.0198
    125  CD1       -2.4930  -68.1240   40.5730 C.ar  247  TYR247     -0.0009
    126  CD2       -1.7890  -66.1760   39.3840 C.ar  247  TYR247     -0.0009
    127  CE1       -1.2220  -68.6660   40.4420 C.ar  247  TYR247      0.0417
    128  CE2       -0.5200  -66.7060   39.2470 C.ar  247  TYR247      0.0417
    129  CZ        -0.2380  -67.9490   39.7750 C.ar  247  TYR247      0.1957
    130  OH         1.0310  -68.4690   39.6290 O.3   247  TYR247     -0.2866
    131  N         -9.0760  -67.6570   37.7590 N.3   249  GLU249     -0.1231
    132  CA        -9.6240  -68.8340   37.0760 C.3   249  GLU249      0.1699
    133  C         -9.2440  -70.0980   37.8420 C.2   249  GLU249      0.2592
    134  O        -10.0790  -70.9640   38.1060 O.2   249  GLU249     -0.2718
    135  CB        -9.0680  -68.9050   35.6490 C.3   249  GLU249      0.0402
    136  CG       -10.0550  -69.3550   34.5890 C.3   249  GLU249      0.1161
    137  CD        -9.6120  -68.9650   33.1880 C.2   249  GLU249      0.3649
    138  OE1       -8.5890  -69.4970   32.7280 O.co2 249  GLU249     -0.2457
    139  OE2      -10.2840  -68.1310   32.5360 O.co2 249  GLU249     -0.2457
    140  N         -7.9660  -70.1690   38.1940 N.am  250  PHE250     -0.1976
    141  CA        -7.3830  -71.2580   38.9730 C.3   250  PHE250      0.1639
    142  C         -8.0420  -71.4470   40.3360 C.2   250  PHE250      0.2290
    143  O         -8.3720  -72.5710   40.7180 O.2   250  PHE250     -0.2864
    144  CB        -5.8920  -70.9720   39.1940 C.3   250  PHE250      0.0560
    145  CG        -5.0180  -71.2170   37.9880 C.ar  250  PHE250     -0.0200
    146  CD1       -5.5530  -71.5180   36.7340 C.ar  250  PHE250     -0.0042
    147  CD2       -3.6390  -71.1240   38.1130 C.ar  250  PHE250     -0.0042
    148  CE1       -4.7280  -71.7450   35.6490 C.ar  250  PHE250     -0.0003
    149  CE2       -2.8080  -71.3450   37.0270 C.ar  250  PHE250     -0.0003
    150  CZ        -3.3520  -71.6590   35.7960 C.ar  250  PHE250     -0.0000
    151  N         -0.8360  -73.8570   43.2060 N.3   267  MET267     -0.1245
    152  CA        -1.1130  -72.7030   42.3430 C.3   267  MET267      0.1570
    153  C         -2.6050  -72.3850   42.2100 C.2   267  MET267      0.2261
    154  O         -2.9700  -71.2710   41.8340 O.2   267  MET267     -0.2867
    155  CB        -0.4750  -72.8840   40.9520 C.3   267  MET267      0.0387
    156  CG        -1.1830  -73.8500   40.0040 C.3   267  MET267      0.0595
    157  SD        -0.4400  -73.8630   38.3550 S.3   267  MET267     -0.1393
    158  CE         1.1470  -74.6120   38.6990 C.3   267  MET267      0.0692
    159  N          4.9430  -67.5930   39.5950 N.3   279  GLN279     -0.1245
    160  CA         5.2110  -66.9900   38.2930 C.3   279  GLN279      0.1566
    161  C          6.6950  -67.0380   37.9320 C.2   279  GLN279      0.2260
    162  O          7.0390  -67.2450   36.7700 O.2   279  GLN279     -0.2867
    163  CB         4.6710  -65.5590   38.2370 C.3   279  GLN279      0.0367
    164  CG         3.1630  -65.5030   38.0650 C.3   279  GLN279      0.0905
    165  CD         2.6980  -66.2600   36.8350 C.2   279  GLN279      0.2608
    166  OE1        3.0910  -65.9450   35.7150 O.2   279  GLN279     -0.2717
    167  NE2        1.8760  -67.2760   37.0420 N.am  279  GLN279     -0.0878
    168  N          7.0730  -70.5690   36.8760 N.3   282  PHE282     -0.1241
    169  CA         6.4970  -70.7750   35.5450 C.3   282  PHE282      0.1605
    170  C          7.4030  -70.2520   34.4360 C.2   282  PHE282      0.2264
    171  O          7.5760  -70.9040   33.4030 O.2   282  PHE282     -0.2867
    172  CB         5.1270  -70.1110   35.4320 C.3   282  PHE282      0.0534
    173  CG         4.5400  -70.1800   34.0520 C.ar  282  PHE282     -0.0203
    174  CD1        4.0620  -71.3780   33.5520 C.ar  282  PHE282     -0.0042
    175  CD2        4.4760  -69.0480   33.2480 C.ar  282  PHE282     -0.0042
    176  CE1        3.5270  -71.4530   32.2770 C.ar  282  PHE282     -0.0003
    177  CE2        3.9430  -69.1130   31.9730 C.ar  282  PHE282     -0.0003
    178  CZ         3.4650  -70.3190   31.4880 C.ar  282  PHE282     -0.0000
    179  N          9.0370  -72.9540   32.1850 N.3   286  ILE286     -0.1245
    180  CA         8.1950  -73.1080   31.0010 C.3   286  ILE286      0.1561
    181  C          8.3700  -71.9900   29.9770 C.2   286  ILE286      0.2260
    182  O          8.6560  -72.2620   28.8170 O.2   286  ILE286     -0.2867
    183  CB         6.7100  -73.2600   31.3910 C.3   286  ILE286      0.0252
    184  CG1        6.5190  -74.5520   32.1950 C.3   286  ILE286      0.0019
    185  CG2        5.8310  -73.2920   30.1470 C.3   286  ILE286      0.0019
    186  CD1        5.2480  -74.6060   33.0120 C.3   286  ILE286      0.0001
    187  N         10.8810  -71.4870   26.2560 N.3   290  ILE290     -0.1245
    188  CA        10.1520  -71.4130   24.9840 C.3   290  ILE290      0.1561
    189  C         10.6610  -70.2500   24.1330 C.2   290  ILE290      0.2260
    190  O         10.9340  -70.4110   22.9400 O.2   290  ILE290     -0.2867
    191  CB         8.6260  -71.2990   25.2120 C.3   290  ILE290      0.0252
    192  CG1        8.0670  -72.6680   25.6060 C.3   290  ILE290      0.0019
    193  CG2        7.9140  -70.7670   23.9710 C.3   290  ILE290      0.0019
    194  CD1        6.6730  -72.6360   26.2020 C.3   290  ILE290      0.0001
@<TRIPOS>BOND
     1    74    75    1
     2    47    45    1
     3    41    42    1
     4    75    76    1
     5    75    78    1
     6    80    78    1
     7    81    82    1
     8    76    77    2
     9    46    45    1
    10    78    79    1
    11   190   189    2
    12    45    42    1
    13    42    43    1
    14    82    85    1
    15    82    83    1
    16   193   191    1
    17    85    86    1
    18   189   188    1
    19    70    72   ar
    20    70    69   ar
    21    43    48   am
    22    43    44    2
    23    48    49    1
    24    72    73   ar
    25    65    64    1
    26    65    68    1
    27    65    66    1
    28    86    87   ar
    29    86    88   ar
    30    67    66    2
    31   188   191    1
    32   188   187    1
    33    83    89   am
    34    83    84    2
    35    89    90    1
    36   191   192    1
    37    68    69    1
    38    69    71   ar
    39    51    50    2
    40   192   194    1
    41    52    49    1
    42    52    53    1
    43    49    50    1
    44    73    71   ar
    45    91    90    1
    46    91    92    2
    47    90    93    1
    48    50    56   am
    49    23    24    1
    50    93    94    1
    51    55    53   ar
    52    53    54   ar
    53    94    95    1
    54    94    96    1
    55    56    57    1
    56    27    24    1
    57    27    28    1
    58    24    25    1
    59    59    58    2
    60    16    15    2
    61    15    14    1
    62    58    57    1
    63    30    28   ar
    64    30    32   ar
    65    57    60    1
    66    97    98    1
    67    99   100    2
    68    99    98    1
    69    12    11    1
    70    20    18   ar
    71    20    22   ar
    72    28    29   ar
    73    14    17    1
    74    14    13    1
    75    26    25    2
    76   182   181    2
    77    17    18    1
    78     4     3    2
    79    98   101    1
    80   101   102    1
    81    18    19   ar
    82    11    10   ar
    83    11     9   ar
    84    22    21   ar
    85    32    31   ar
    86    10     8   ar
    87    60    61    1
    88     9     7   ar
    89    29    31   ar
    90    13     3   am
    91     3     2    1
    92   102   103    1
    93   181   180    1
    94    62    61    1
    95   185   183    1
    96     8     6   ar
    97    19    21   ar
    98    61    63    1
    99     7     6   ar
   100     6     5    1
   101   180   183    1
   102   180   179    1
   103   103   104    2
   104   103   105   am
   105     2     5    1
   106     2     1    1
   107   183   184    1
   108   178   177   ar
   109   178   176   ar
   110   177   175   ar
   111   184   186    1
   112   176   174   ar
   113   139   137   ar
   114   138   137   ar
   115    35    34    1
   116    35    36    2
   117   118   116    1
   118    34    37    1
   119    34    33    1
   120   137   136    1
   121   175   173   ar
   122   116   115    1
   123   171   170    2
   124   174   173   ar
   125    37    38    1
   126   173   172    1
   127   170   169    1
   128   136   135    1
   129    38    40   am
   130    38    39    2
   131   115   117    1
   132   115   112    1
   133   106   107    1
   134   111   112    1
   135   112   113    1
   136   172   169    1
   137   169   168    1
   138   135   132    1
   139   148   150   ar
   140   148   146   ar
   141   166   165    2
   142   150   149   ar
   143   107   110    1
   144   107   108    1
   145   146   145   ar
   146   162   161    2
   147   113   114    2
   148   113   119   am
   149   165   167   am
   150   165   164    1
   151   108   109    2
   152   149   147   ar
   153   132   131    1
   154   132   133    1
   155   119   120    1
   156   133   134    2
   157   133   140   am
   158   161   160    1
   159   145   147   ar
   160   145   144    1
   161   164   163    1
   162   140   141    1
   163   163   160    1
   164   160   159    1
   165   157   158    1
   166   157   156    1
   167   141   144    1
   168   141   142    1
   169   120   121    1
   170   120   123    1
   171   128   126   ar
   172   128   129   ar
   173   126   124   ar
   174   130   129    1
   175   121   122    2
   176   129   127   ar
   177   156   155    1
   178   124   123    1
   179   124   125   ar
   180   142   143    2
   181   127   125   ar
   182   155   152    1
   183   154   153    2
   184   153   152    1
   185   152   151    1
