@<TRIPOS>MOLECULE
tmp/4c1mC01.pdb
 133 124 0 0 0
SMALL
GASTEIGER

@<TRIPOS>ATOM
      1  N          5.5390  -21.5840    2.7830 N.3     4  GLU4       -0.1245
      2  CA         5.5380  -22.0990    1.4210 C.3     4  GLU4        0.1567
      3  C          4.1320  -22.4740    0.9960 C.2     4  GLU4        0.2260
      4  O          3.8050  -22.3730   -0.1750 O.2     4  GLU4       -0.2867
      5  CB         6.4560  -23.3200    1.3680 C.3     4  GLU4        0.0388
      6  CG         6.9980  -23.7580    0.0200 C.3     4  GLU4        0.1160
      7  CD         8.4480  -24.2420    0.0910 C.2     4  GLU4        0.3649
      8  OE1        9.3540  -23.3680    0.0220 O.co2   4  GLU4       -0.2457
      9  OE2        8.6840  -25.4810    0.2130 O.co2   4  GLU4       -0.2457
     10  N         20.4300  -33.1540    0.7990 N.3   103  LEU103     -0.1245
     11  CA        19.3940  -32.3020    1.3830 C.3   103  LEU103      0.1561
     12  C         18.0940  -33.0360    1.7350 C.2   103  LEU103      0.2260
     13  O         17.6760  -33.9170    0.9960 O.2   103  LEU103     -0.2867
     14  CB        19.0540  -31.2200    0.3780 C.3   103  LEU103      0.0270
     15  CG        20.2060  -30.2700    0.0580 C.3   103  LEU103      0.0019
     16  CD1       20.0060  -29.6130   -1.3020 C.3   103  LEU103      0.0001
     17  CD2       20.3300  -29.2350    1.1690 C.3   103  LEU103      0.0001
     18  N         14.6540  -31.7770    1.7940 N.3   105  ASP105     -0.1239
     19  CA        13.7480  -31.4960    0.6860 C.3   105  ASP105      0.1674
     20  C         14.5600  -30.8150   -0.4530 C.2   105  ASP105      0.2266
     21  O         14.5670  -29.5860   -0.6420 O.2   105  ASP105     -0.2867
     22  CB        12.5450  -30.6280    1.1230 C.3   105  ASP105      0.1410
     23  CG        11.3260  -31.4550    1.5160 C.2   105  ASP105      0.3668
     24  OD1       11.2750  -32.6420    1.1500 O.co2 105  ASP105     -0.2456
     25  OD2       10.4080  -30.9330    2.1870 O.co2 105  ASP105     -0.2456
     26  N         15.4360  -29.4060   -3.7650 N.3   107  PRO107     -0.2116
     27  CA        14.6820  -28.7730   -4.8530 C.3   107  PRO107      0.1372
     28  C         15.1290  -29.2320   -6.2390 C.2   107  PRO107      0.2244
     29  O         14.2990  -29.3000   -7.1560 O.2   107  PRO107     -0.2868
     30  CB        15.0000  -27.2880   -4.6630 C.3   107  PRO107      0.0268
     31  CG        16.3410  -27.2660   -4.0660 C.3   107  PRO107      0.0207
     32  CD        16.4040  -28.4660   -3.1650 C.3   107  PRO107      0.0892
     33  N         25.5920  -22.6660   -0.0410 N.3   125  THR125     -0.1203
     34  CA        24.4000  -23.4790   -0.3020 C.3   125  THR125      0.1994
     35  C         23.6390  -23.1210   -1.5980 C.2   125  THR125      0.2617
     36  O         22.7960  -23.8960   -2.0210 O.2   125  THR125     -0.2717
     37  CB        23.4430  -23.3520    0.8840 C.3   125  THR125      0.1784
     38  OG1       22.9150  -22.0110    0.9440 O.3   125  THR125     -0.2211
     39  CG2       24.1740  -23.6720    2.1370 C.3   125  THR125      0.0376
     40  N         23.9210  -21.9700   -2.2200 N.am  126  ARG126     -0.1979
     41  CA        23.1980  -21.5580   -3.4140 C.3   126  ARG126      0.1597
     42  C         23.7640  -22.1100   -4.7270 C.2   126  ARG126      0.2287
     43  O         23.2390  -21.8060   -5.7860 O.2   126  ARG126     -0.2864
     44  CB        22.9880  -20.0400   -3.4630 C.3   126  ARG126      0.0334
     45  CG        22.0150  -19.5400   -2.4170 C.3   126  ARG126      0.0492
     46  CD        22.2140  -18.0910   -2.0790 C.3   126  ARG126      0.2205
     47  NE        23.5050  -17.8540   -1.4390 N.pl3 126  ARG126     -0.0865
     48  CZ        23.9390  -16.6530   -1.0560 C.cat 126  ARG126      0.5346
     49  NH1       23.2110  -15.5550   -1.3000 N.pl3 126  ARG126      0.1354
     50  NH2       25.1290  -16.5500   -0.4670 N.pl3 126  ARG126      0.1354
     51  N         21.5500  -22.9550   -7.7800 N.3   129  GLU129     -0.1245
     52  CA        20.3980  -22.0670   -8.0350 C.3   129  GLU129      0.1567
     53  C         20.1410  -21.8690   -9.5450 C.2   129  GLU129      0.2260
     54  O         18.9910  -21.7850   -9.9990 O.2   129  GLU129     -0.2867
     55  CB        20.5770  -20.7290   -7.3260 C.3   129  GLU129      0.0388
     56  CG        19.3420  -19.8190   -7.3190 C.3   129  GLU129      0.1160
     57  CD        19.3250  -18.7660   -8.4280 C.2   129  GLU129      0.3649
     58  OE1       20.2470  -18.7340   -9.2570 O.co2 129  GLU129     -0.2457
     59  OE2       18.3570  -17.9360   -8.4800 O.co2 129  GLU129     -0.2457
     60  N         25.6580  -20.4440  -12.5840 N.3   133  LEU133     -0.1245
     61  CA        26.3000  -20.3010  -11.2910 C.3   133  LEU133      0.1561
     62  C         27.0510  -21.5600  -10.9070 C.2   133  LEU133      0.2260
     63  O         28.1860  -21.5020  -10.4210 O.2   133  LEU133     -0.2867
     64  CB        25.3040  -19.8320  -10.2450 C.3   133  LEU133      0.0270
     65  CG        25.7490  -19.8710   -8.7980 C.3   133  LEU133      0.0019
     66  CD1       26.7540  -18.7720   -8.5660 C.3   133  LEU133      0.0001
     67  CD2       24.5710  -19.6940   -7.8810 C.3   133  LEU133      0.0001
     68  N         21.7380   -6.4970   -4.9990 N.3   220  ARG220     -0.1245
     69  CA        20.7540   -7.1860   -5.8070 C.3   220  ARG220      0.1563
     70  C         20.4160   -6.3150   -7.0410 C.2   220  ARG220      0.2260
     71  O         19.4840   -6.6380   -7.7310 O.2   220  ARG220     -0.2867
     72  CB        19.4840   -7.4820   -5.0440 C.3   220  ARG220      0.0307
     73  CG        19.7030   -8.1530   -3.7090 C.3   220  ARG220      0.0489
     74  CD        18.3770   -8.4550   -3.0370 C.3   220  ARG220      0.2205
     75  NE        18.5750   -9.2340   -1.8010 N.pl3 220  ARG220     -0.0865
     76  CZ        17.6240   -9.9350   -1.2120 C.cat 220  ARG220      0.5346
     77  NH1       16.4040   -9.9740   -1.7560 N.pl3 220  ARG220      0.1354
     78  NH2       17.8850  -10.6050   -0.0850 N.pl3 220  ARG220      0.1354
     79  N         20.1750   -8.2650  -10.4130 N.3   223  HIS223     -0.1241
     80  CA        18.9370   -8.7980  -10.9190 C.3   223  HIS223      0.1621
     81  C         18.4470   -8.0420  -12.1810 C.2   223  HIS223      0.2264
     82  O         17.8250   -8.6350  -13.0220 O.2   223  HIS223     -0.2867
     83  CB        17.8520   -8.8120   -9.8480 C.3   223  HIS223      0.0745
     84  CG        18.1900   -9.6220   -8.6540 C.ar  223  HIS223      0.0817
     85  ND1       17.5210   -9.5000   -7.4680 N.ar  223  HIS223     -0.2268
     86  CD2       19.1530  -10.5430   -8.4480 C.ar  223  HIS223      0.1154
     87  CE1       18.0140  -10.3570   -6.5960 C.ar  223  HIS223      0.1986
     88  NE2       18.9800  -11.0280   -7.1750 N.ar  223  HIS223     -0.2212
     89  N         17.7000  -24.4890  -10.2160 N.3   253  PHE253     -0.1241
     90  CA        17.9980  -25.6880   -9.4520 C.3   253  PHE253      0.1605
     91  C         17.9850  -26.8940  -10.3590 C.2   253  PHE253      0.2264
     92  O         17.7320  -27.9730   -9.9280 O.2   253  PHE253     -0.2867
     93  CB        17.0540  -25.8930   -8.2300 C.3   253  PHE253      0.0534
     94  CG        17.0770  -24.7720   -7.2130 C.ar  253  PHE253     -0.0203
     95  CD1       18.0610  -24.6960   -6.2390 C.ar  253  PHE253     -0.0042
     96  CD2       16.0470  -23.8370   -7.2000 C.ar  253  PHE253     -0.0042
     97  CE1       18.0590  -23.6710   -5.3200 C.ar  253  PHE253     -0.0003
     98  CE2       16.0160  -22.8120   -6.2730 C.ar  253  PHE253     -0.0003
     99  CZ        17.0240  -22.7070   -5.3390 C.ar  253  PHE253     -0.0000
    100  N         11.5640  -19.6130   -9.6390 N.3   294  PHE294     -0.1241
    101  CA        11.5240  -20.9230   -8.9610 C.3   294  PHE294      0.1605
    102  C         10.1880  -21.6250   -9.2180 C.2   294  PHE294      0.2264
    103  O          9.6140  -22.2800   -8.3140 O.2   294  PHE294     -0.2867
    104  CB        11.7870  -20.7680   -7.4500 C.3   294  PHE294      0.0534
    105  CG        13.1680  -20.1900   -7.0970 C.ar  294  PHE294     -0.0203
    106  CD1       14.1930  -20.1320   -8.0050 C.ar  294  PHE294     -0.0042
    107  CD2       13.3930  -19.6990   -5.8130 C.ar  294  PHE294     -0.0042
    108  CE1       15.4310  -19.6190   -7.6490 C.ar  294  PHE294     -0.0003
    109  CE2       14.6170  -19.1780   -5.4500 C.ar  294  PHE294     -0.0003
    110  CZ        15.6400  -19.1390   -6.3660 C.ar  294  PHE294     -0.0000
    111  N          9.8190  -25.4590   -8.3510 N.3   297  VAL297     -0.1231
    112  CA        10.0870  -25.9580   -6.9710 C.3   297  VAL297      0.1692
    113  C          9.2470  -25.2760   -5.8660 C.2   297  VAL297      0.2591
    114  O          9.4720  -25.4950   -4.6360 O.2   297  VAL297     -0.2718
    115  CB        11.6160  -25.8910   -6.6020 C.3   297  VAL297      0.0266
    116  CG1       12.4590  -26.5470   -7.6880 C.3   297  VAL297      0.0020
    117  CG2       12.0870  -24.4490   -6.3880 C.3   297  VAL297      0.0020
    118  N          8.2680  -24.4640   -6.2970 N.am  298  MET298     -0.1979
    119  CA         7.3950  -23.7230   -5.4070 C.3   298  MET298      0.1605
    120  C          5.9400  -23.8860   -5.8610 C.2   298  MET298      0.2287
    121  O          5.6810  -24.2160   -7.0090 O.2   298  MET298     -0.2864
    122  CB         7.7600  -22.2340   -5.4550 C.3   298  MET298      0.0413
    123  CG         9.1410  -21.8560   -4.9420 C.3   298  MET298      0.0598
    124  SD         9.3480  -21.9360   -3.1460 S.3   298  MET298     -0.1393
    125  CE         8.2050  -20.7260   -2.5770 C.3   298  MET298      0.0692
    126  N          7.6170  -17.0740   -8.0770 N.3   302  LEU302     -0.1245
    127  CA         7.8440  -15.9630   -7.1870 C.3   302  LEU302      0.1561
    128  C          8.1390  -14.6970   -8.0080 C.2   302  LEU302      0.2260
    129  O          8.2670  -14.7450   -9.2170 O.2   302  LEU302     -0.2867
    130  CB         8.9430  -16.2840   -6.1820 C.3   302  LEU302      0.0270
    131  CG         8.7780  -17.4860   -5.2610 C.3   302  LEU302      0.0019
    132  CD1        9.8990  -17.5660   -4.2220 C.3   302  LEU302      0.0001
    133  CD2        7.4380  -17.5120   -4.5780 C.3   302  LEU302      0.0001
@<TRIPOS>BOND
     1    82    81    2
     2    60    61    1
     3    81    80    1
     4    61    62    1
     5    61    64    1
     6    80    79    1
     7    80    83    1
     8    62    63    2
     9    91    92    2
    10    91    90    1
    11    64    65    1
    12    89    90    1
    13    54    53    2
    14    83    84    1
    15   100   101    1
    16    53    52    1
    17    90    93    1
    18    58    57   ar
    19   102   101    1
    20   102   103    2
    21   129   128    2
    22   101   104    1
    23    65    66    1
    24    65    67    1
    25    84    86   ar
    26    84    85   ar
    27    59    57   ar
    28    86    88   ar
    29    57    56    1
    30   111   112    1
    31    93    94    1
    32   126   127    1
    33    52    51    1
    34    52    55    1
    35   128   127    1
    36   106   108   ar
    37   106   105   ar
    38    71    70    2
    39   116   115    1
    40   108   110   ar
    41    85    87   ar
    42   104   105    1
    43    55    56    1
    44    94    96   ar
    45    94    95   ar
    46    96    98   ar
    47   127   130    1
    48    88    87   ar
    49    29    28    2
    50   105   107   ar
    51    70    69    1
    52   121   120    2
    53   112   115    1
    54   112   113    1
    55   115   117    1
    56   110   109   ar
    57   118   113   am
    58   118   119    1
    59    98    99   ar
    60    28    27    1
    61    95    97   ar
    62   130   131    1
    63   113   114    2
    64   120   119    1
    65   107   109   ar
    66    69    72    1
    67    69    68    1
    68    43    42    2
    69   122   119    1
    70   122   123    1
    71    99    97   ar
    72   131   133    1
    73   131   132    1
    74    72    73    1
    75   123   124    1
    76    27    30    1
    77    27    26    1
    78    42    41    1
    79    30    31    1
    80    31    32    1
    81    26    32    1
    82    73    74    1
    83    44    41    1
    84    44    45    1
    85    41    40    1
    86   124   125    1
    87    74    75    1
    88    45    46    1
    89    40    35   am
    90    46    47    1
    91    36    35    2
    92    75    76    2
    93    77    76    1
    94    35    34    1
    95    47    48    2
    96    16    15    1
    97    49    48    1
    98    76    78    1
    99    48    50    1
   100    21    20    2
   101    20    19    1
   102    34    33    1
   103    34    37    1
   104     4     3    2
   105     6     7    1
   106     6     5    1
   107     8     7   ar
   108    15    14    1
   109    15    17    1
   110     7     9   ar
   111    14    11    1
   112    19    22    1
   113    19    18    1
   114    10    11    1
   115    37    38    1
   116    37    39    1
   117     3     2    1
   118    13    12    2
   119    22    23    1
   120    24    23   ar
   121     5     2    1
   122    11    12    1
   123     2     1    1
   124    23    25   ar
