@<TRIPOS>MOLECULE
tmp/4c1mC05.pdb
 80 76 0 0 0
SMALL
GASTEIGER

@<TRIPOS>ATOM
      1  N         36.6330    7.5990   -6.5140 N.3   195  LYS195     -0.1231
      2  CA        36.1320    8.1750   -5.2960 C.3   195  LYS195      0.1693
      3  C         36.1170    7.1210   -4.2180 C.2   195  LYS195      0.2592
      4  O         36.6940    7.3180   -3.1740 O.2   195  LYS195     -0.2718
      5  CB        34.7030    8.7290   -5.5120 C.3   195  LYS195      0.0285
      6  CG        34.1380    9.6580   -4.4330 C.3   195  LYS195      0.0035
      7  CD        32.7660   10.1770   -4.8790 C.3   195  LYS195      0.0206
      8  CE        32.0310   10.9500   -3.8030 C.3   195  LYS195      0.1093
      9  NZ        30.6300   11.3460   -4.1730 N.3   195  LYS195     -0.1314
     10  N         35.4150    6.0270   -4.4510 N.am  196  TYR196     -0.1976
     11  CA        35.1920    5.0310   -3.3810 C.3   196  TYR196      0.1639
     12  C         36.3060    3.9890   -3.2770 C.2   196  TYR196      0.2290
     13  O         36.5420    3.4220   -2.2150 O.2   196  TYR196     -0.2864
     14  CB        33.8180    4.4110   -3.5300 C.3   196  TYR196      0.0560
     15  CG        32.7470    5.4350   -3.5600 C.ar  196  TYR196     -0.0198
     16  CD1       32.3800    6.1230   -2.3900 C.ar  196  TYR196     -0.0009
     17  CD2       32.0870    5.7450   -4.7320 C.ar  196  TYR196     -0.0009
     18  CE1       31.3760    7.0840   -2.4040 C.ar  196  TYR196      0.0417
     19  CE2       31.0960    6.7110   -4.7580 C.ar  196  TYR196      0.0417
     20  CZ        30.7500    7.3830   -3.6140 C.ar  196  TYR196      0.1957
     21  OH        29.7730    8.3400   -3.6880 O.3   196  TYR196     -0.2866
     22  N         16.8490    8.5910    2.9590 N.3   322  ALA322     -0.1245
     23  CA        17.7520    8.3890    4.0670 C.3   322  ALA322      0.1562
     24  C         19.0750    7.8160    3.5840 C.2   322  ALA322      0.2260
     25  O         20.1270    8.2250    4.0630 O.2   322  ALA322     -0.2867
     26  CB        17.0640    7.5190    5.1130 C.3   322  ALA322      0.0290
     27  N         20.8310   10.7360    1.7290 N.3   325  ARG325     -0.1231
     28  CA        21.4440   11.5280    2.7390 C.3   325  ARG325      0.1694
     29  C         22.7480   10.9140    3.2870 C.2   325  ARG325      0.2592
     30  O         23.7650   11.5830    3.3960 O.2   325  ARG325     -0.2718
     31  CB        20.4430   11.7410    3.8880 C.3   325  ARG325      0.0321
     32  CG        20.8930   12.7190    4.9950 C.3   325  ARG325      0.0489
     33  CD        19.7820   12.9100    6.0060 C.3   325  ARG325      0.2205
     34  NE        18.5370   13.2960    5.3520 N.pl3 325  ARG325     -0.0865
     35  CZ        17.3900   12.6060    5.3220 C.cat 325  ARG325      0.5346
     36  NH1       17.2420   11.4440    5.9520 N.pl3 325  ARG325      0.1354
     37  NH2       16.3660   13.1040    4.6240 N.pl3 325  ARG325      0.1354
     38  N         22.6740    9.6440    3.6670 N.am  326  PHE326     -0.1962
     39  CA        23.8560    8.8420    4.0470 C.3   326  PHE326      0.1771
     40  C         25.0260    8.9720    3.0630 C.2   326  PHE326      0.2620
     41  O         26.2150    9.1820    3.4520 O.2   326  PHE326     -0.2715
     42  CB        23.4650    7.3820    4.2520 C.3   326  PHE326      0.0574
     43  CG        24.6410    6.4900    4.5580 C.ar  326  PHE326     -0.0200
     44  CD1       25.1360    6.3710    5.8490 C.ar  326  PHE326     -0.0042
     45  CD2       25.2340    5.7640    3.5570 C.ar  326  PHE326     -0.0042
     46  CE1       26.2300    5.5580    6.1200 C.ar  326  PHE326     -0.0003
     47  CE2       26.3400    4.9560    3.8310 C.ar  326  PHE326     -0.0003
     48  CZ        26.8210    4.8500    5.0990 C.ar  326  PHE326     -0.0000
     49  N         24.6940    8.9400    1.7900 N.am  327  CYS327     -0.1954
     50  CA        25.6490    8.9800    0.7190 C.3   327  CYS327      0.1843
     51  C         26.1320   10.4060    0.3570 C.2   327  CYS327      0.2626
     52  O         26.9240   10.5920   -0.5460 O.2   327  CYS327     -0.2714
     53  CB        25.0390    8.2660   -0.4870 C.3   327  CYS327      0.0997
     54  SG        24.8510    6.4460   -0.2310 S.3   327  CYS327     -0.0797
     55  N         25.6230   11.4090    1.0440 N.am  328  GLY328     -0.1954
     56  CA        25.9470   12.7960    0.7370 C.3   328  GLY328      0.1869
     57  C         25.3330   13.3090   -0.5480 C.2   328  GLY328      0.2309
     58  O         25.8230   14.2630   -1.1080 O.2   328  GLY328     -0.2863
     59  N         27.6210    4.4370   -4.3780 N.3   384  CYS384     -0.1235
     60  CA        28.1450    4.7540   -3.0790 C.3   384  CYS384      0.1677
     61  C         28.0260    3.5830   -2.1020 C.2   384  CYS384      0.2270
     62  O         28.9970    3.2710   -1.4860 O.2   384  CYS384     -0.2867
     63  CB        27.5190    6.0480   -2.5210 C.3   384  CYS384      0.0956
     64  SG        27.9100    6.3510   -0.7910 S.3   384  CYS384     -0.0801
     65  N         31.5560    1.9060   -1.1970 N.3   388  THR388     -0.1218
     66  CA        31.9050    1.9280    0.2250 C.3   388  THR388      0.1862
     67  C         32.1650    0.5260    0.8070 C.2   388  THR388      0.2287
     68  O         33.1450    0.3400    1.5050 O.2   388  THR388     -0.2866
     69  CB        30.8500    2.7340    1.0660 C.3   388  THR388      0.1770
     70  OG1       30.6680    4.0620    0.5410 O.3   388  THR388     -0.2211
     71  CG2       31.2440    2.8360    2.5550 C.3   388  THR388      0.0375
     72  N         35.8140   -1.1860    2.2630 N.3   392  LYS392     -0.1245
     73  CA        35.9400   -1.7420    3.6150 C.3   392  LYS392      0.1561
     74  C         36.4270   -3.2220    3.6280 C.2   392  LYS392      0.2260
     75  O         37.2540   -3.6320    4.4610 O.2   392  LYS392     -0.2867
     76  CB        34.6590   -1.5080    4.3860 C.3   392  LYS392      0.0271
     77  CG        34.4010   -0.0230    4.6620 C.3   392  LYS392      0.0035
     78  CD        33.1650    0.2440    5.4890 C.3   392  LYS392      0.0206
     79  CE        33.5180    1.3810    6.4580 C.3   392  LYS392      0.1093
     80  NZ        32.6500    1.4970    7.6380 N.3   392  LYS392     -0.1314
@<TRIPOS>BOND
     1     1     2    1
     2     5     2    1
     3     5     6    1
     4     2     3    1
     5     7     6    1
     6     7     8    1
     7    19    17   ar
     8    19    20   ar
     9    17    15   ar
    10    10     3   am
    11    10    11    1
    12    59    60    1
    13     3     4    2
    14     9     8    1
    15    21    20    1
    16    20    18   ar
    17    15    14    1
    18    15    16   ar
    19    14    11    1
    20    11    12    1
    21    12    13    2
    22    60    63    1
    23    60    61    1
    24    63    64    1
    25    18    16   ar
    26    61    62    2
    27    65    66    1
    28    58    57    2
    29    57    56    1
    30    52    51    2
    31    53    54    1
    32    53    50    1
    33    66    67    1
    34    66    69    1
    35    51    50    1
    36    51    55   am
    37    70    69    1
    38    50    49    1
    39    56    55    1
    40    67    68    2
    41    69    71    1
    42    27    28    1
    43    49    40   am
    44    72    73    1
    45    28    29    1
    46    28    31    1
    47    22    23    1
    48    40    41    2
    49    40    39    1
    50    29    30    2
    51    29    38   am
    52    45    47   ar
    53    45    43   ar
    54    24    25    2
    55    24    23    1
    56    73    74    1
    57    73    76    1
    58    74    75    2
    59    38    39    1
    60    47    48   ar
    61    31    32    1
    62    39    42    1
    63    23    26    1
    64    42    43    1
    65    76    77    1
    66    43    44   ar
    67    37    35    1
    68    77    78    1
    69    32    33    1
    70    48    46   ar
    71    35    34    2
    72    35    36    1
    73    34    33    1
    74    78    79    1
    75    44    46   ar
    76    79    80    1
