@<TRIPOS>MOLECULE
tmp/4c1qA00.pdb
 234 235 0 0 0
SMALL
GASTEIGER

@<TRIPOS>ATOM
      1  N          8.2770  -18.2360  -15.8950 N.3    82  TYR82      -0.1241
      2  CA         9.4370  -19.1090  -15.9500 C.3    82  TYR82       0.1605
      3  C         10.0850  -19.0040  -14.5880 C.2    82  TYR82       0.2264
      4  O         10.3510  -17.8940  -14.1170 O.2    82  TYR82      -0.2867
      5  CB        10.3850  -18.6540  -17.0500 C.3    82  TYR82       0.0534
      6  CG        11.5530  -19.5800  -17.2740 C.ar   82  TYR82      -0.0201
      7  CD1       12.7270  -19.4480  -16.5360 C.ar   82  TYR82      -0.0009
      8  CD2       11.4830  -20.5890  -18.2210 C.ar   82  TYR82      -0.0009
      9  CE1       13.7970  -20.3060  -16.7360 C.ar   82  TYR82       0.0417
     10  CE2       12.5290  -21.4410  -18.4170 C.ar   82  TYR82       0.0417
     11  CZ        13.6990  -21.2770  -17.6760 C.ar   82  TYR82       0.1957
     12  OH        14.7660  -22.1180  -17.8550 O.3    82  TYR82      -0.2866
     13  N         24.6260  -16.9890  -17.1110 N.3    93  ALA93      -0.1231
     14  CA        24.5130  -16.7110  -18.5460 C.3    93  ALA93       0.1694
     15  C         24.8210  -17.9400  -19.4010 C.2    93  ALA93       0.2592
     16  O         24.3860  -18.0240  -20.5470 O.2    93  ALA93      -0.2718
     17  CB        25.4240  -15.5490  -18.9510 C.3    93  ALA93       0.0304
     18  N         25.5630  -18.8930  -18.8460 N.am   94  ASN94      -0.1960
     19  CA        25.9660  -20.0520  -19.6070 C.3    94  ASN94       0.1819
     20  C         25.2780  -21.3560  -19.2720 C.2    94  ASN94       0.2622
     21  O         25.4880  -22.3320  -19.9810 O.2    94  ASN94      -0.2715
     22  CB        27.4700  -20.2230  -19.4850 C.3    94  ASN94       0.1195
     23  CG        28.2200  -19.1590  -20.2520 C.2    94  ASN94       0.2630
     24  OD1       27.9250  -18.9080  -21.4310 O.2    94  ASN94      -0.2716
     25  ND2       29.1820  -18.5120  -19.5920 N.am   94  ASN94      -0.0877
     26  N         24.4500  -21.4020  -18.2320 N.am   95  SER95      -0.1936
     27  CA        23.7560  -22.6500  -17.9150 C.3    95  SER95       0.2055
     28  C         23.0710  -23.2180  -19.1630 C.2    95  SER95       0.2644
     29  O         23.0120  -24.4310  -19.3570 O.2    95  SER95      -0.2714
     30  CB        22.7120  -22.4440  -16.8070 C.3    95  SER95       0.2130
     31  OG        21.5720  -21.7580  -17.3150 O.3    95  SER95      -0.2179
     32  N         22.5460  -22.3360  -20.0080 N.am   96  GLY96      -0.1939
     33  CA        21.7150  -22.7590  -21.1340 C.3    96  GLY96       0.2014
     34  C         20.2410  -22.8220  -20.7550 C.2    96  GLY96       0.2639
     35  O         19.3890  -23.0880  -21.6020 O.2    96  GLY96      -0.2714
     36  N         19.9600  -22.5400  -19.4830 N.am   97  TYR97      -0.1959
     37  CA        18.6190  -22.5510  -18.9140 C.3    97  TYR97       0.1771
     38  C         18.1810  -21.1820  -18.3990 C.2    97  TYR97       0.2620
     39  O         17.2110  -21.0850  -17.6390 O.2    97  TYR97      -0.2715
     40  CB        18.5730  -23.5670  -17.7770 C.3    97  TYR97       0.0574
     41  CG        18.6660  -24.9840  -18.2750 C.ar   97  TYR97      -0.0198
     42  CD1       17.5580  -25.6080  -18.8030 C.ar   97  TYR97      -0.0009
     43  CD2       19.8630  -25.6760  -18.2480 C.ar   97  TYR97      -0.0009
     44  CE1       17.6230  -26.8930  -19.2860 C.ar   97  TYR97       0.0417
     45  CE2       19.9530  -26.9680  -18.7330 C.ar   97  TYR97       0.0417
     46  CZ        18.8280  -27.5710  -19.2550 C.ar   97  TYR97       0.1957
     47  OH        18.8740  -28.8540  -19.7420 O.3    97  TYR97      -0.2866
     48  N         18.8610  -20.1270  -18.8460 N.am   98  SER98      -0.1936
     49  CA        18.6100  -18.7810  -18.3380 C.3    98  SER98       0.2055
     50  C         17.9970  -17.8560  -19.3520 C.2    98  SER98       0.2643
     51  O         18.3550  -17.8960  -20.5370 O.2    98  SER98      -0.2714
     52  CB        19.8910  -18.1400  -17.8300 C.3    98  SER98       0.2130
     53  OG        20.2850  -18.7390  -16.6120 O.3    98  SER98      -0.2179
     54  N         17.0560  -17.0400  -18.8640 N.am   99  TRP99      -0.1959
     55  CA        16.5490  -15.9030  -19.5930 C.3    99  TRP99       0.1771
     56  C         17.0690  -14.6090  -18.9670 C.2    99  TRP99       0.2619
     57  O         17.0990  -14.4480  -17.7370 O.2    99  TRP99      -0.2715
     58  CB        15.0330  -15.8430  -19.5630 C.3    99  TRP99       0.0590
     59  CG        14.3300  -16.8550  -20.3900 C.ar   99  TRP99       0.0006
     60  CD1       13.7980  -18.0230  -19.9570 C.ar   99  TRP99       0.0946
     61  CD2       14.0490  -16.7790  -21.7930 C.ar   99  TRP99       0.0152
     62  NE1       13.2290  -18.6940  -21.0020 N.ar   99  TRP99      -0.2442
     63  CE2       13.3670  -17.9520  -22.1410 C.ar   99  TRP99       0.0810
     64  CE3       14.3240  -15.8360  -22.7900 C.ar   99  TRP99       0.0012
     65  CZ2       12.9800  -18.2360  -23.4470 C.ar   99  TRP99       0.0191
     66  CZ3       13.9120  -16.1050  -24.1040 C.ar   99  TRP99       0.0001
     67  CH2       13.2510  -17.2980  -24.4150 C.ar   99  TRP99       0.0015
     68  N         17.4840  -13.6910  -19.8270 N.am  100  LEU100     -0.1977
     69  CA        17.8000  -12.3400  -19.4180 C.3   100  LEU100      0.1596
     70  C         16.5040  -11.6220  -19.0370 C.2   100  LEU100      0.2287
     71  O         15.5260  -11.6990  -19.7600 O.2   100  LEU100     -0.2864
     72  CB        18.4490  -11.5990  -20.5760 C.3   100  LEU100      0.0297
     73  CG        18.9730  -10.1930  -20.2870 C.3   100  LEU100      0.0022
     74  CD1       20.1910  -10.2650  -19.3780 C.3   100  LEU100      0.0001
     75  CD2       19.3360   -9.5050  -21.5940 C.3   100  LEU100      0.0001
     76  N         19.4010  -12.4780  -14.4150 N.3   110  TYR110     -0.1241
     77  CA        19.1460  -13.7440  -15.0650 C.3   110  TYR110      0.1605
     78  C         18.2040  -14.5170  -14.1700 C.2   110  TYR110      0.2264
     79  O         18.3140  -14.4370  -12.9470 O.2   110  TYR110     -0.2867
     80  CB        20.4340  -14.5250  -15.2400 C.3   110  TYR110      0.0534
     81  CG        21.4590  -13.8290  -16.1060 C.ar  110  TYR110     -0.0201
     82  CD1       21.1670  -13.4910  -17.4180 C.ar  110  TYR110     -0.0009
     83  CD2       22.7320  -13.5230  -15.6130 C.ar  110  TYR110     -0.0009
     84  CE1       22.1050  -12.8650  -18.2220 C.ar  110  TYR110      0.0417
     85  CE2       23.6820  -12.8960  -16.4070 C.ar  110  TYR110      0.0417
     86  CZ        23.3640  -12.5680  -17.7130 C.ar  110  TYR110      0.1957
     87  OH        24.3020  -11.9470  -18.5110 O.3   110  TYR110     -0.2866
     88  N          8.8650  -25.1550  -17.7790 N.3   122  MET122     -0.1230
     89  CA         9.2350  -24.3620  -18.9460 C.3   122  MET122      0.1702
     90  C         10.7150  -24.5110  -19.3050 C.2   122  MET122      0.2592
     91  O         11.1190  -24.2150  -20.4250 O.2   122  MET122     -0.2718
     92  CB         8.8720  -22.8970  -18.7300 C.3   122  MET122      0.0401
     93  CG         7.3550  -22.6870  -18.7770 C.3   122  MET122      0.0596
     94  SD         6.8370  -21.1460  -18.0190 S.3   122  MET122     -0.1393
     95  CE         7.3070  -19.9010  -19.2050 C.3   122  MET122      0.0692
     96  N         11.5190  -24.9850  -18.3670 N.am  123  ARG123     -0.1980
     97  CA        12.9230  -25.2840  -18.6570 C.3   123  ARG123      0.1597
     98  C         13.0680  -26.3640  -19.7350 C.2   123  ARG123      0.2287
     99  O         14.0950  -26.4380  -20.4070 O.2   123  ARG123     -0.2864
    100  CB        13.6510  -25.7420  -17.3900 C.3   123  ARG123      0.0334
    101  CG        13.4910  -27.2170  -17.1050 C.3   123  ARG123      0.0492
    102  CD        14.0730  -27.6010  -15.7680 C.3   123  ARG123      0.2205
    103  NE        15.5350  -27.5210  -15.7110 N.pl3 123  ARG123     -0.0865
    104  CZ        16.3700  -28.4330  -16.2050 C.cat 123  ARG123      0.5346
    105  NH1       15.9220  -29.4830  -16.8560 N.pl3 123  ARG123      0.1354
    106  NH2       17.6720  -28.2830  -16.0630 N.pl3 123  ARG123      0.1354
    107  N         11.1100  -26.7010  -22.3950 N.3   125  VAL125     -0.1245
    108  CA        10.6460  -26.2650  -23.7060 C.3   125  VAL125      0.1561
    109  C         11.8560  -25.9560  -24.6020 C.2   125  VAL125      0.2260
    110  O         12.7390  -25.1530  -24.2650 O.2   125  VAL125     -0.2867
    111  CB         9.7160  -25.0520  -23.6120 C.3   125  VAL125      0.0252
    112  CG1        9.3590  -24.5780  -24.9970 C.3   125  VAL125      0.0019
    113  CG2        8.4240  -25.4130  -22.8600 C.3   125  VAL125      0.0019
    114  N          8.3250  -16.0680  -26.2200 N.3   138  ALA138     -0.1231
    115  CA         8.7420  -15.7060  -24.8690 C.3   138  ALA138      0.1694
    116  C          8.7190  -14.2000  -24.7800 C.2   138  ALA138      0.2592
    117  O          9.0120  -13.5150  -25.7460 O.2   138  ALA138     -0.2718
    118  CB        10.1500  -16.2140  -24.5860 C.3   138  ALA138      0.0304
    119  N          8.3500  -13.6720  -23.6250 N.am  139  PHE139     -0.1962
    120  CA         8.3600  -12.2300  -23.4360 C.3   139  PHE139      0.1771
    121  C          8.4230  -11.8820  -21.9690 C.2   139  PHE139      0.2619
    122  O          8.1290  -12.6970  -21.1130 O.2   139  PHE139     -0.2715
    123  CB         7.1340  -11.5790  -24.0960 C.3   139  PHE139      0.0574
    124  CG         5.8430  -11.9090  -23.4280 C.ar  139  PHE139     -0.0200
    125  CD1        5.2880  -13.1770  -23.5490 C.ar  139  PHE139     -0.0042
    126  CD2        5.1650  -10.9490  -22.6910 C.ar  139  PHE139     -0.0042
    127  CE1        4.1010  -13.4870  -22.9280 C.ar  139  PHE139     -0.0003
    128  CE2        3.9670  -11.2500  -22.0640 C.ar  139  PHE139     -0.0003
    129  CZ         3.4370  -12.5160  -22.1800 C.ar  139  PHE139     -0.0000
    130  N          8.8070  -10.6510  -21.6890 N.am  140  GLN140     -0.1977
    131  CA         8.9390  -10.2120  -20.3220 C.3   140  GLN140      0.1601
    132  C          7.6540   -9.5130  -19.8840 C.2   140  GLN140      0.2287
    133  O          7.1080   -8.7240  -20.6060 O.2   140  GLN140     -0.2864
    134  CB        10.1200   -9.2700  -20.1860 C.3   140  GLN140      0.0394
    135  CG        10.4170   -8.9550  -18.7370 C.3   140  GLN140      0.0908
    136  CD        11.6710   -8.1020  -18.5330 C.2   140  GLN140      0.2608
    137  OE1       12.7210   -8.3670  -19.1210 O.2   140  GLN140     -0.2717
    138  NE2       11.5670   -7.0900  -17.6710 N.am  140  GLN140     -0.0878
    139  N          9.3380  -13.7930  -16.9930 N.3   145  ILE145     -0.1245
    140  CA         9.2000  -14.3140  -18.3190 C.3   145  ILE145      0.1561
    141  C          8.0280  -15.2470  -18.4660 C.2   145  ILE145      0.2260
    142  O          7.7660  -16.1020  -17.6300 O.2   145  ILE145     -0.2867
    143  CB        10.5290  -14.8880  -18.7960 C.3   145  ILE145      0.0252
    144  CG1       11.3330  -13.6920  -19.2800 C.3   145  ILE145      0.0019
    145  CG2       10.3340  -15.8680  -19.9400 C.3   145  ILE145      0.0019
    146  CD1       12.7550  -13.9980  -19.4670 C.3   145  ILE145      0.0001
    147  N          5.5640  -17.3710  -21.6220 N.3   147  TYR147     -0.1241
    148  CA         5.4670  -17.8370  -22.9860 C.3   147  TYR147      0.1605
    149  C          3.9960  -17.7450  -23.3810 C.2   147  TYR147      0.2264
    150  O          3.1270  -18.1230  -22.6100 O.2   147  TYR147     -0.2867
    151  CB         5.9150  -19.3040  -23.1150 C.3   147  TYR147      0.0534
    152  CG         7.3580  -19.6740  -22.7540 C.ar  147  TYR147     -0.0201
    153  CD1        8.3400  -18.7160  -22.5340 C.ar  147  TYR147     -0.0009
    154  CD2        7.7400  -21.0250  -22.6930 C.ar  147  TYR147     -0.0009
    155  CE1        9.6550  -19.0860  -22.2250 C.ar  147  TYR147      0.0417
    156  CE2        9.0500  -21.4030  -22.3920 C.ar  147  TYR147      0.0417
    157  CZ        10.0000  -20.4280  -22.1490 C.ar  147  TYR147      0.1957
    158  OH        11.2910  -20.8160  -21.8430 O.3   147  TYR147     -0.2866
    159  N         11.1230  -19.3260  -29.2730 N.3   162  TRP162     -0.1227
    160  CA        12.4000  -18.7920  -29.8270 C.3   162  TRP162      0.1737
    161  C         13.3150  -18.2370  -28.7340 C.2   162  TRP162      0.2595
    162  O         12.9240  -17.3340  -27.9880 O.2   162  TRP162     -0.2718
    163  CB        12.1620  -17.7370  -30.9040 C.3   162  TRP162      0.0564
    164  CG        13.4330  -17.1520  -31.4850 C.ar  162  TRP162      0.0003
    165  CD1       13.8380  -15.8540  -31.4120 C.ar  162  TRP162      0.0946
    166  CD2       14.4400  -17.8390  -32.2340 C.ar  162  TRP162      0.0152
    167  NE1       15.0330  -15.6850  -32.0610 N.ar  162  TRP162     -0.2442
    168  CE2       15.4290  -16.8880  -32.5760 C.ar  162  TRP162      0.0810
    169  CE3       14.6080  -19.1610  -32.6450 C.ar  162  TRP162      0.0012
    170  CZ2       16.5650  -17.2160  -33.3240 C.ar  162  TRP162      0.0191
    171  CZ3       15.7400  -19.4920  -33.3920 C.ar  162  TRP162      0.0001
    172  CH2       16.7010  -18.5180  -33.7270 C.ar  162  TRP162      0.0015
    173  N         14.5350  -18.7710  -28.6510 N.am  163  TYR163     -0.1962
    174  CA        15.4620  -18.4450  -27.5470 C.3   163  TYR163      0.1771
    175  C         16.1350  -17.0430  -27.6610 C.2   163  TYR163      0.2620
    176  O         16.7660  -16.5740  -26.7050 O.2   163  TYR163     -0.2715
    177  CB        16.5720  -19.5160  -27.4440 C.3   163  TYR163      0.0574
    178  CG        16.2090  -20.8700  -26.8350 C.ar  163  TYR163     -0.0198
    179  CD1       14.8870  -21.2570  -26.6070 C.ar  163  TYR163     -0.0009
    180  CD2       17.2190  -21.7930  -26.5310 C.ar  163  TYR163     -0.0009
    181  CE1       14.5870  -22.5100  -26.0710 C.ar  163  TYR163      0.0417
    182  CE2       16.9350  -23.0510  -26.0000 C.ar  163  TYR163      0.0417
    183  CZ        15.6170  -23.4110  -25.7620 C.ar  163  TYR163      0.1957
    184  OH        15.3340  -24.6610  -25.2290 O.3   163  TYR163     -0.2866
    185  N         16.0070  -16.3890  -28.8150 N.am  164  GLY164     -0.1940
    186  CA        16.7360  -15.1520  -29.1110 C.3   164  GLY164      0.2014
    187  C         17.8350  -15.4700  -30.1040 C.2   164  GLY164      0.2639
    188  O         18.2520  -16.6260  -30.2270 O.2   164  GLY164     -0.2714
    189  N         18.3160  -14.4560  -30.8100 N.am  165  ASP165     -0.1957
    190  CA        19.2730  -14.6760  -31.9020 C.3   165  ASP165      0.1840
    191  C         20.6410  -15.2330  -31.4680 C.2   165  ASP165      0.2622
    192  O         21.2470  -16.0210  -32.1970 O.2   165  ASP165     -0.2715
    193  CB        19.4490  -13.3970  -32.7260 C.3   165  ASP165      0.1450
    194  CG        18.1870  -13.0220  -33.5090 C.2   165  ASP165      0.3671
    195  OD1       17.3230  -13.9040  -33.7520 O.co2 165  ASP165     -0.2456
    196  OD2       18.0680  -11.8380  -33.8960 O.co2 165  ASP165     -0.2456
    197  N         21.1130  -14.8510  -30.2880 N.am  166  GLU166     -0.1963
    198  CA        22.4450  -15.2450  -29.8440 C.3   166  GLU166      0.1733
    199  C         22.5420  -16.7480  -29.5490 C.2   166  GLU166      0.2616
    200  O         23.4860  -17.4220  -29.9870 O.2   166  GLU166     -0.2715
    201  CB        22.8320  -14.4460  -28.6080 C.3   166  GLU166      0.0429
    202  CG        24.3080  -14.5190  -28.2470 C.3   166  GLU166      0.1163
    203  CD        24.6340  -13.6870  -27.0210 C.2   166  GLU166      0.3649
    204  OE1       24.2360  -12.5030  -26.9780 O.co2 166  GLU166     -0.2457
    205  OE2       25.2780  -14.2180  -26.0940 O.co2 166  GLU166     -0.2457
    206  N         21.5600  -17.2600  -28.8080 N.am  167  TYR167     -0.1974
    207  CA        21.5000  -18.6790  -28.4350 C.3   167  TYR167      0.1639
    208  C         21.1950  -19.5350  -29.6890 C.2   167  TYR167      0.2290
    209  O         21.7100  -20.6430  -29.8400 O.2   167  TYR167     -0.2864
    210  CB        20.4290  -18.8650  -27.3310 C.3   167  TYR167      0.0560
    211  CG        20.5110  -20.1110  -26.4580 C.ar  167  TYR167     -0.0198
    212  CD1       20.8310  -21.3580  -26.9960 C.ar  167  TYR167     -0.0009
    213  CD2       20.2040  -20.0520  -25.0980 C.ar  167  TYR167     -0.0009
    214  CE1       20.8710  -22.4960  -26.2110 C.ar  167  TYR167      0.0417
    215  CE2       20.2390  -21.1890  -24.3060 C.ar  167  TYR167      0.0417
    216  CZ        20.5750  -22.4120  -24.8770 C.ar  167  TYR167      0.1957
    217  OH        20.6120  -23.5740  -24.1310 O.3   167  TYR167     -0.2866
    218  N         24.3200  -20.1530  -31.5200 N.3   170  GLU170     -0.1231
    219  CA        24.9660  -21.2050  -30.7220 C.3   170  GLU170      0.1699
    220  C         24.4000  -22.5970  -31.0410 C.2   170  GLU170      0.2592
    221  O         25.1550  -23.5550  -31.1300 O.2   170  GLU170     -0.2718
    222  CB        24.8230  -20.9280  -29.2200 C.3   170  GLU170      0.0402
    223  CG        25.5330  -19.6740  -28.7150 C.3   170  GLU170      0.1161
    224  CD        27.0250  -19.8610  -28.4990 C.2   170  GLU170      0.3649
    225  OE1       27.4710  -21.0150  -28.3220 O.co2 170  GLU170     -0.2457
    226  OE2       27.7570  -18.8460  -28.5010 O.co2 170  GLU170     -0.2457
    227  N         23.0800  -22.7040  -31.2200 N.am  171  LEU171     -0.1980
    228  CA        22.4390  -23.9830  -31.5820 C.3   171  LEU171      0.1596
    229  C         22.5950  -24.3650  -33.0740 C.2   171  LEU171      0.2287
    230  O         22.1470  -25.4260  -33.4810 O.2   171  LEU171     -0.2864
    231  CB        20.9460  -23.9710  -31.2050 C.3   171  LEU171      0.0297
    232  CG        20.5540  -23.9950  -29.7210 C.3   171  LEU171      0.0022
    233  CD1       19.0540  -23.7900  -29.5620 C.3   171  LEU171      0.0001
    234  CD2       20.9910  -25.3000  -29.0720 C.3   171  LEU171      0.0001
@<TRIPOS>BOND
     1   196   194   ar
     2   195   194   ar
     3   172   171   ar
     4   172   170   ar
     5   194   193    1
     6   230   229    2
     7   171   169   ar
     8   170   168   ar
     9   229   228    1
    10   193   190    1
    11   169   166   ar
    12   168   166   ar
    13   168   167   ar
    14   166   164   ar
    15   192   191    2
    16   167   165   ar
    17   190   191    1
    18   190   189    1
    19   228   227    1
    20   228   231    1
    21   218   219    1
    22   164   165   ar
    23   164   163    1
    24   191   197   am
    25   227   220   am
    26   231   232    1
    27   221   220    2
    28   220   219    1
    29   163   160    1
    30   189   187   am
    31   219   222    1
    32   197   198    1
    33   188   187    2
    34   187   186    1
    35   200   199    2
    36   198   199    1
    37   198   201    1
    38   209   208    2
    39   160   159    1
    40   160   161    1
    41   232   233    1
    42   232   234    1
    43   208   207    1
    44   199   206   am
    45   222   223    1
    46   186   185    1
    47   185   175   am
    48   206   207    1
    49   161   173   am
    50   161   162    2
    51   223   224    1
    52   173   174    1
    53   201   202    1
    54   226   224   ar
    55   224   225   ar
    56   207   210    1
    57   202   203    1
    58   175   174    1
    59   175   176    2
    60   174   177    1
    61   177   178    1
    62   210   211    1
    63   203   204   ar
    64   203   205   ar
    65   212   211   ar
    66   212   214   ar
    67   178   179   ar
    68   178   180   ar
    69   179   181   ar
    70   180   182   ar
    71   211   213   ar
    72   114   115    1
    73   214   216   ar
    74   181   183   ar
    75   182   183   ar
    76   183   184    1
    77   117   116    2
    78   213   215   ar
    79   112   111    1
    80   216   215   ar
    81   216   217    1
    82   115   116    1
    83   115   118    1
    84   116   119   am
    85   109   110    2
    86   109   108    1
    87    67    66   ar
    88    67    65   ar
    89    66    64   ar
    90   123   120    1
    91   123   124    1
    92   108   111    1
    93   108   107    1
    94   119   120    1
    95   111   113    1
    96   125   124   ar
    97   125   127   ar
    98    65    63   ar
    99   120   121    1
   100   124   126   ar
   101   149   148    1
   102   149   150    2
   103   151   148    1
   104   151   152    1
   105   148   147    1
   106   127   129   ar
   107    64    61   ar
   108   152   154   ar
   109   152   153   ar
   110   154   156   ar
   111   126   128   ar
   112   153   155   ar
   113   156   157   ar
   114   155   157   ar
   115   129   128   ar
   116   157   158    1
   117    63    61   ar
   118    63    62   ar
   119   121   130   am
   120   121   122    2
   121    61    59   ar
   122   130   131    1
   123    35    34    2
   124    75    73    1
   125    24    23    2
   126    33    34    1
   127    33    32    1
   128    62    60   ar
   129    34    36   am
   130   133   132    2
   131    72    73    1
   132    72    69    1
   133    16    15    2
   134    51    50    2
   135    91    90    2
   136    99    98    2
   137    59    60   ar
   138    59    58    1
   139   131   134    1
   140   131   132    1
   141    73    74    1
   142    23    25   am
   143    23    22    1
   144   134   135    1
   145    32    28   am
   146    21    20    2
   147   145   143    1
   148    68    69    1
   149    68    56   am
   150    71    70    2
   151    47    46    1
   152    98    97    1
   153    19    22    1
   154    19    20    1
   155    19    18    1
   156    55    58    1
   157    55    56    1
   158    55    54    1
   159    36    37    1
   160   146   144    1
   161    69    70    1
   162    15    18   am
   163    15    14    1
   164    29    28    2
   165    50    54   am
   166    50    49    1
   167    90    89    1
   168    90    96   am
   169    44    46   ar
   170    44    42   ar
   171   144   143    1
   172    20    26   am
   173    46    45   ar
   174    95    94    1
   175    28    27    1
   176   137   136    2
   177    56    57    2
   178    17    14    1
   179    89    92    1
   180    89    88    1
   181    37    38    1
   182    37    40    1
   183    48    38   am
   184    48    49    1
   185    42    41   ar
   186   143   140    1
   187    93    92    1
   188    93    94    1
   189   135   136    1
   190    45    43   ar
   191    97    96    1
   192    97   100    1
   193    14    13    1
   194   136   138   am
   195    87    86    1
   196   141   140    1
   197   141   142    2
   198    10     8   ar
   199    10    11   ar
   200    38    39    2
   201    49    52    1
   202   140   139    1
   203    41    43   ar
   204    41    40    1
   205    26    27    1
   206    84    86   ar
   207    84    82   ar
   208     8     6   ar
   209    27    30    1
   210    12    11    1
   211    52    53    1
   212    86    85   ar
   213    11     9   ar
   214    82    81   ar
   215   100   101    1
   216    31    30    1
   217     6     5    1
   218     6     7   ar
   219   101   102    1
   220     5     2    1
   221   105   104    1
   222     9     7   ar
   223    85    83   ar
   224   104   106    1
   225   104   103    2
   226    81    83   ar
   227    81    80    1
   228     2     1    1
   229     2     3    1
   230   102   103    1
   231    80    77    1
   232    77    76    1
   233    77    78    1
   234     3     4    2
   235    78    79    2
