@<TRIPOS>MOLECULE
tmp/4c1tA00.pdb
 217 208 0 0 0
SMALL
GASTEIGER

@<TRIPOS>ATOM
      1  N         13.1380  108.0470   13.8270 N.3    10  ASN10      -0.1225
      2  CA        12.6550  109.0760   14.7460 C.3    10  ASN10       0.1785
      3  C         11.3970  109.8080   14.2800 C.2    10  ASN10       0.2597
      4  O         11.0170  110.8280   14.8570 O.2    10  ASN10      -0.2718
      5  CB        13.7610  110.0890   15.0590 C.3    10  ASN10       0.1169
      6  CG        14.0240  111.0430   13.9090 C.2    10  ASN10       0.2627
      7  OD1       13.7230  110.7430   12.7530 O.2    10  ASN10      -0.2716
      8  ND2       14.5900  112.2030   14.2230 N.am   10  ASN10      -0.0877
      9  N         10.7580  109.2880   13.2370 N.am   11  ALA11      -0.1966
     10  CA         9.5700  109.9210   12.6740 C.3    11  ALA11       0.1728
     11  C          8.3490  109.7210   13.5650 C.2    11  ALA11       0.2617
     12  O          7.6920  108.6820   13.5080 O.2    11  ALA11      -0.2715
     13  CB         9.2990  109.3900   11.2730 C.3    11  ALA11       0.0334
     14  N          8.0490  110.7220   14.3860 N.am   12  SER12      -0.1936
     15  CA         6.8960  110.6560   15.2780 C.3    12  SER12       0.2055
     16  C          5.6970  111.4220   14.7220 C.2    12  SER12       0.2642
     17  O          4.5840  111.2940   15.2300 O.2    12  SER12      -0.2714
     18  CB         7.2610  111.1650   16.6730 C.3    12  SER12       0.2130
     19  OG         7.9120  112.4180   16.6000 O.3    12  SER12      -0.2179
     20  N          5.9290  112.2210   13.6850 N.am   13  ALA13      -0.1977
     21  CA         4.8400  112.8950   12.9860 C.3    13  ALA13       0.1597
     22  C          4.0680  111.8690   12.1670 C.2    13  ALA13       0.2287
     23  O          4.6610  110.9530   11.5990 O.2    13  ALA13      -0.2864
     24  CB         5.3770  113.9980   12.0900 C.3    13  ALA13       0.0319
     25  N          5.0730  111.1100    8.3000 N.3    16  GLY16      -0.1225
     26  CA         6.3870  110.5110    8.1550 C.3    16  GLY16       0.1811
     27  C          6.4480  109.1260    8.7710 C.2    16  GLY16       0.2280
     28  O          7.1540  108.2420    8.2830 O.2    16  GLY16      -0.2866
     29  N         10.7590  108.7770   19.7030 N.3    42  GLN42      -0.1231
     30  CA        10.7890  110.2300   19.8200 C.3    42  GLN42       0.1698
     31  C         12.2390  110.7020   19.7830 C.2    42  GLN42       0.2592
     32  O         13.1060  110.1170   20.4330 O.2    42  GLN42      -0.2718
     33  CB        10.0950  110.6900   21.1050 C.3    42  GLN42       0.0381
     34  CG         9.4000  112.0420   20.9890 C.3    42  GLN42       0.0905
     35  CD        10.3760  113.2020   20.9160 C.2    42  GLN42       0.2608
     36  OE1       11.3360  113.2700   21.6840 O.2    42  GLN42      -0.2717
     37  NE2       10.1380  114.1190   19.9840 N.am   42  GLN42      -0.0878
     38  N         12.4910  111.7510   19.0070 N.am   43  ASN43      -0.1960
     39  CA        13.8490  112.2000   18.7150 C.3    43  ASN43       0.1819
     40  C         14.7210  112.4470   19.9440 C.2    43  ASN43       0.2621
     41  O         15.9090  112.1290   19.9390 O.2    43  ASN43      -0.2715
     42  CB        13.8240  113.4520   17.8350 C.3    43  ASN43       0.1195
     43  CG        15.2040  113.8350   17.3340 C.2    43  ASN43       0.2630
     44  OD1       15.7050  113.2610   16.3680 O.2    43  ASN43      -0.2716
     45  ND2       15.8270  114.8100   17.9910 N.am   43  ASN43      -0.0877
     46  N         14.1270  112.9990   20.9970 N.am   44  GLU44      -0.1977
     47  CA        14.8820  113.3530   22.1960 C.3    44  GLU44       0.1602
     48  C         15.3100  112.1300   23.0070 C.2    44  GLU44       0.2287
     49  O         16.1380  112.2360   23.9140 O.2    44  GLU44      -0.2864
     50  CB        14.0850  114.3280   23.0660 C.3    44  GLU44       0.0415
     51  CG        13.6210  115.5760   22.3230 C.3    44  GLU44       0.1163
     52  CD        14.7190  116.1890   21.4720 C.2    44  GLU44       0.3649
     53  OE1       15.7050  116.6980   22.0450 O.co2  44  GLU44      -0.2457
     54  OE2       14.5960  116.1580   20.2290 O.co2  44  GLU44      -0.2457
     55  N         16.1600  109.2630   21.1850 N.3    46  PHE46      -0.1227
     56  CA        16.8180  108.4230   20.1880 C.3    46  PHE46       0.1736
     57  C         18.2850  108.1260   20.4940 C.2    46  PHE46       0.2595
     58  O         18.7040  106.9690   20.4670 O.2    46  PHE46      -0.2718
     59  CB        16.6890  109.0340   18.7920 C.3    46  PHE46       0.0547
     60  CG        16.8360  108.0330   17.6860 C.ar   46  PHE46      -0.0202
     61  CD1       15.7360  107.3290   17.2250 C.ar   46  PHE46      -0.0042
     62  CD2       18.0740  107.7800   17.1210 C.ar   46  PHE46      -0.0042
     63  CE1       15.8670  106.3990   16.2120 C.ar   46  PHE46      -0.0003
     64  CE2       18.2110  106.8520   16.1090 C.ar   46  PHE46      -0.0003
     65  CZ        17.1060  106.1600   15.6550 C.ar   46  PHE46      -0.0000
     66  N         19.0590  109.1700   20.7740 N.am   47  ALA47      -0.1980
     67  CA        20.4760  109.0080   21.0820 C.3    47  ALA47       0.1597
     68  C         20.6750  108.1290   22.3140 C.2    47  ALA47       0.2287
     69  O         21.5920  107.3090   22.3600 O.2    47  ALA47      -0.2864
     70  CB        21.1360  110.3650   21.2820 C.3    47  ALA47       0.0319
     71  N         18.6470  105.2470   12.4530 N.3    65  MET65      -0.1245
     72  CA        19.0330  106.6030   12.1030 C.3    65  MET65       0.1570
     73  C         20.3440  106.9520   12.7930 C.2    65  MET65       0.2261
     74  O         20.5200  106.6860   13.9830 O.2    65  MET65      -0.2867
     75  CB        17.9450  107.5900   12.5200 C.3    65  MET65       0.0387
     76  CG        18.1470  108.9960   11.9870 C.3    65  MET65       0.0595
     77  SD        17.0550  110.1870   12.7810 S.3    65  MET65      -0.1393
     78  CE        17.7940  110.3030   14.4110 C.3    65  MET65       0.0692
     79  N         23.3960  109.2880   14.4030 N.3    67  LEU67      -0.1245
     80  CA        23.4000  110.4200   15.3150 C.3    67  LEU67       0.1561
     81  C         24.1090  111.6210   14.6910 C.2    67  LEU67       0.2260
     82  O         23.9000  112.7610   15.1070 O.2    67  LEU67      -0.2867
     83  CB        24.0450  110.0310   16.6440 C.3    67  LEU67       0.0270
     84  CG        23.4430  108.7970   17.3200 C.3    67  LEU67       0.0019
     85  CD1       24.1410  108.5130   18.6390 C.3    67  LEU67       0.0001
     86  CD2       21.9450  108.9730   17.5270 C.3    67  LEU67       0.0001
     87  N         29.2640  112.1220   16.6600 N.3    71  LYS71      -0.1245
     88  CA        28.4240  111.1300   17.3240 C.3    71  LYS71       0.1561
     89  C         28.3500  109.8340   16.5150 C.2    71  LYS71       0.2260
     90  O         28.2490  108.7460   17.0810 O.2    71  LYS71      -0.2867
     91  CB        27.0230  111.6900   17.5800 C.3    71  LYS71       0.0271
     92  CG        27.0060  112.9200   18.4710 C.3    71  LYS71       0.0035
     93  CD        25.6040  113.4840   18.6240 C.3    71  LYS71       0.0206
     94  CE        25.5420  114.4890   19.7630 C.3    71  LYS71       0.1093
     95  NZ        24.1950  115.1140   19.8860 N.3    71  LYS71      -0.1314
     96  N         19.0550  118.8760    5.5580 N.3   117  GLU117     -0.1245
     97  CA        18.2470  119.8930    6.2130 C.3   117  GLU117      0.1567
     98  C         19.0680  121.0140    6.8390 C.2   117  GLU117      0.2260
     99  O         19.4220  120.9500    8.0160 O.2   117  GLU117     -0.2867
    100  CB        17.3350  119.2390    7.2510 C.3   117  GLU117      0.0388
    101  CG        16.1530  118.5230    6.6260 C.3   117  GLU117      0.1160
    102  CD        15.6830  117.3320    7.4350 C.2   117  GLU117      0.3649
    103  OE1       16.3000  117.0340    8.4780 O.co2 117  GLU117     -0.2457
    104  OE2       14.6930  116.6920    7.0250 O.co2 117  GLU117     -0.2457
    105  N         18.9800  121.6900   22.8730 N.3   166  TRP166     -0.1241
    106  CA        19.5200  122.0180   21.5500 C.3   166  TRP166      0.1605
    107  C         18.8250  123.1400   20.7420 C.2   166  TRP166      0.2264
    108  O         19.5070  123.8740   20.0270 O.2   166  TRP166     -0.2867
    109  CB        19.7070  120.7590   20.6880 C.3   166  TRP166      0.0550
    110  CG        18.4400  120.0510   20.2980 C.ar  166  TRP166      0.0003
    111  CD1       17.8730  118.9790   20.9270 C.ar  166  TRP166      0.0946
    112  CD2       17.5920  120.3540   19.1810 C.ar  166  TRP166      0.0152
    113  NE1       16.7230  118.6000   20.2750 N.ar  166  TRP166     -0.2442
    114  CE2       16.5270  119.4300   19.2020 C.ar  166  TRP166      0.0810
    115  CE3       17.6250  121.3250   18.1730 C.ar  166  TRP166      0.0012
    116  CZ2       15.5060  119.4450   18.2520 C.ar  166  TRP166      0.0191
    117  CZ3       16.6110  121.3360   17.2300 C.ar  166  TRP166      0.0001
    118  CH2       15.5660  120.4020   17.2770 C.ar  166  TRP166      0.0015
    119  N         20.9740  126.3480   19.2950 N.3   170  HIS170     -0.1241
    120  CA        21.0840  126.6650   17.8730 C.3   170  HIS170      0.1621
    121  C         21.3550  128.1450   17.6220 C.2   170  HIS170      0.2264
    122  O         21.9840  128.5110   16.6300 O.2   170  HIS170     -0.2867
    123  CB        19.8280  126.2270   17.1190 C.3   170  HIS170      0.0745
    124  CG        19.8930  124.8230   16.6040 C.ar  170  HIS170      0.0817
    125  ND1       19.3160  124.4420   15.4120 N.ar  170  HIS170     -0.2268
    126  CD2       20.4720  123.7110   17.1140 C.ar  170  HIS170      0.1154
    127  CE1       19.5340  123.1530   15.2110 C.ar  170  HIS170      0.1986
    128  NE2       20.2350  122.6870   16.2310 N.ar  170  HIS170     -0.2212
    129  N          9.2940  119.7810   19.3290 N.3   225  GLN225     -0.1245
    130  CA         8.3990  119.1490   18.3600 C.3   225  GLN225      0.1566
    131  C          7.2200  118.3660   18.9470 C.2   225  GLN225      0.2260
    132  O          6.4220  117.7960   18.2000 O.2   225  GLN225     -0.2867
    133  CB         9.2070  118.2340   17.4360 C.3   225  GLN225      0.0367
    134  CG        10.2740  118.9590   16.6320 C.3   225  GLN225      0.0905
    135  CD        11.2580  118.0100   15.9880 C.2   225  GLN225      0.2608
    136  OE1       11.4450  116.8850   16.4510 O.2   225  GLN225     -0.2717
    137  NE2       11.8960  118.4580   14.9130 N.am  225  GLN225     -0.0878
    138  N         13.7020  120.3260    8.4880 N.3   248  TRP248     -0.1241
    139  CA        12.6630  119.3360    8.7410 C.3   248  TRP248      0.1605
    140  C         11.3990  120.0710    9.1660 C.2   248  TRP248      0.2264
    141  O         10.3290  119.4760    9.3060 O.2   248  TRP248     -0.2867
    142  CB        13.0940  118.3790    9.8500 C.3   248  TRP248      0.0550
    143  CG        13.5800  119.0770   11.0850 C.ar  248  TRP248      0.0003
    144  CD1       12.8160  119.6660   12.0510 C.ar  248  TRP248      0.0946
    145  CD2       14.9430  119.2570   11.4880 C.ar  248  TRP248      0.0152
    146  NE1       13.6200  120.2040   13.0280 N.ar  248  TRP248     -0.2442
    147  CE2       14.9300  119.9640   12.7060 C.ar  248  TRP248      0.0810
    148  CE3       16.1740  118.8860   10.9370 C.ar  248  TRP248      0.0012
    149  CZ2       16.0990  120.3080   13.3830 C.ar  248  TRP248      0.0191
    150  CZ3       17.3320  119.2280   11.6100 C.ar  248  TRP248      0.0001
    151  CH2       17.2870  119.9320   12.8190 C.ar  248  TRP248      0.0015
    152  N          7.6170  119.8990    7.5750 N.3   251  GLY251     -0.1210
    153  CA         6.9680  118.6230    7.8150 C.3   251  GLY251      0.1956
    154  C          6.4820  118.4870    9.2430 C.2   251  GLY251      0.2611
    155  O          5.4470  117.8740    9.5030 O.2   251  GLY251     -0.2717
    156  N          7.2360  119.0640   10.1720 N.am  252  VAL252     -0.1979
    157  CA         6.8500  119.0660   11.5760 C.3   252  VAL252      0.1595
    158  C          5.6610  120.0010   11.7750 C.2   252  VAL252      0.2287
    159  O          4.7380  119.7000   12.5370 O.2   252  VAL252     -0.2864
    160  CB         8.0160  119.5170   12.4840 C.3   252  VAL252      0.0276
    161  CG1        7.5960  119.4950   13.9450 C.3   252  VAL252      0.0022
    162  CG2        9.2350  118.6320   12.2650 C.3   252  VAL252      0.0022
    163  N         20.4480  113.5570    7.3960 N.3   289  THR289     -0.1218
    164  CA        19.9180  112.3350    7.9810 C.3   289  THR289      0.1862
    165  C         20.2430  111.1200    7.1200 C.2   289  THR289      0.2287
    166  O         19.8290  111.0360    5.9650 O.2   289  THR289     -0.2866
    167  CB        18.3960  112.4200    8.1890 C.3   289  THR289      0.1770
    168  OG1       18.1020  113.4470    9.1440 O.3   289  THR289     -0.2211
    169  CG2       17.8600  111.0970    8.7020 C.3   289  THR289      0.0375
    170  N          7.5370  113.9890    4.3370 N.3   321  PHE321     -0.1241
    171  CA         8.2330  114.7260    5.3860 C.3   321  PHE321      0.1605
    172  C          8.3140  116.2220    5.1110 C.2   321  PHE321      0.2264
    173  O          8.7910  116.9790    5.9550 O.2   321  PHE321     -0.2867
    174  CB         9.6460  114.1710    5.5810 C.3   321  PHE321      0.0534
    175  CG         9.6850  112.8380    6.2650 C.ar  321  PHE321     -0.0203
    176  CD1        9.5130  111.6700    5.5410 C.ar  321  PHE321     -0.0042
    177  CD2        9.9010  112.7510    7.6300 C.ar  321  PHE321     -0.0042
    178  CE1        9.5500  110.4400    6.1660 C.ar  321  PHE321     -0.0003
    179  CE2        9.9390  111.5240    8.2630 C.ar  321  PHE321     -0.0003
    180  CZ         9.7650  110.3660    7.5290 C.ar  321  PHE321     -0.0000
    181  N         25.4920  120.3300   12.4720 N.3   355  TRP355     -0.1241
    182  CA        25.1180  120.9590   13.7330 C.3   355  TRP355      0.1605
    183  C         26.3100  120.9310   14.6800 C.2   355  TRP355      0.2264
    184  O         27.0680  119.9600   14.7010 O.2   355  TRP355     -0.2867
    185  CB        23.9230  120.2520   14.3650 C.3   355  TRP355      0.0550
    186  CG        22.7240  120.1750   13.4730 C.ar  355  TRP355      0.0003
    187  CD1       22.1150  119.0430   13.0170 C.ar  355  TRP355      0.0946
    188  CD2       21.9870  121.2750   12.9260 C.ar  355  TRP355      0.0152
    189  NE1       21.0410  119.3670   12.2250 N.ar  355  TRP355     -0.2442
    190  CE2       20.9410  120.7330   12.1520 C.ar  355  TRP355      0.0810
    191  CE3       22.1070  122.6660   13.0160 C.ar  355  TRP355      0.0012
    192  CZ2       20.0220  121.5300   11.4720 C.ar  355  TRP355      0.0191
    193  CZ3       21.1940  123.4560   12.3400 C.ar  355  TRP355      0.0001
    194  CH2       20.1650  122.8860   11.5800 C.ar  355  TRP355      0.0015
    195  N         26.6770  120.6830   17.9900 N.3   357  ASP357     -0.1225
    196  CA        26.7080  119.6350   19.0090 C.3   357  ASP357      0.1805
    197  C         27.0310  118.2570   18.4340 C.2   357  ASP357      0.2598
    198  O         27.7660  117.4830   19.0440 O.2   357  ASP357     -0.2718
    199  CB        25.4020  119.5950   19.8070 C.3   357  ASP357      0.1424
    200  CG        24.1850  119.3440   18.9360 C.2   357  ASP357      0.3668
    201  OD1       24.2910  119.4760   17.6980 O.co2 357  ASP357     -0.2456
    202  OD2       23.1170  119.0200   19.4950 O.co2 357  ASP357     -0.2456
    203  N         26.4820  117.9550   17.2620 N.am  358  THR358     -0.1953
    204  CA        26.7410  116.6750   16.6110 C.3   358  THR358      0.1897
    205  C         28.1400  116.6400   16.0040 C.2   358  THR358      0.2313
    206  O         28.6850  115.5690   15.7410 O.2   358  THR358     -0.2863
    207  CB        25.6940  116.3600   15.5210 C.3   358  THR358      0.1794
    208  OG1       25.8060  117.3110   14.4550 O.3   358  THR358     -0.2208
    209  CG2       24.2850  116.4040   16.0990 C.3   358  THR358      0.0378
    210  N         24.8520  122.4090   25.1410 N.3   369  ASN369     -0.1240
    211  CA        23.4090  122.6250   25.0960 C.3   369  ASN369      0.1653
    212  C         22.8180  122.9470   26.4640 C.2   369  ASN369      0.2266
    213  O         21.9480  123.8120   26.5870 O.2   369  ASN369     -0.2867
    214  CB        22.7000  121.4170   24.4790 C.3   369  ASN369      0.1155
    215  CG        23.1380  121.1540   23.0540 C.2   369  ASN369      0.2627
    216  OD1       23.8340  121.9690   22.4500 O.2   369  ASN369     -0.2716
    217  ND2       22.7300  120.0150   22.5070 N.am  369  ASN369     -0.0877
@<TRIPOS>BOND
     1   170   171    1
     2   172   171    1
     3   172   173    2
     4   171   174    1
     5   176   178   ar
     6   176   175   ar
     7    96    97    1
     8   174   175    1
     9   166   165    2
    10   178   180   ar
    11    97    98    1
    12    97   100    1
    13   175   177   ar
    14   101   100    1
    15   101   102    1
    16    98    99    2
    17   104   102   ar
    18   165   164    1
    19   163   164    1
    20   102   103   ar
    21   180   179   ar
    22   152   153    1
    23   177   179   ar
    24   153   154    1
    25   164   167    1
    26    26    25    1
    27    26    27    1
    28   167   169    1
    29   167   168    1
    30    28    27    2
    31   138   139    1
    32   139   140    1
    33   139   142    1
    34   140   141    2
    35   154   155    2
    36   154   156   am
    37   142   143    1
    38   156   157    1
    39   148   145   ar
    40   148   150   ar
    41   143   145   ar
    42   143   144   ar
    43    13    10    1
    44   192   194   ar
    45   192   190   ar
    46   145   147   ar
    47   157   158    1
    48   157   160    1
    49   194   193   ar
    50    23    22    2
    51   150   151   ar
    52   158   159    2
    53    76    75    1
    54    76    77    1
    55   144   146   ar
    56    24    21    1
    57    72    71    1
    58    72    75    1
    59    72    73    1
    60   190   189   ar
    61   190   188   ar
    62    22    21    1
    63   189   187   ar
    64   162   160    1
    65   193   191   ar
    66   181   182    1
    67   160   161    1
    68    10     9    1
    69    10    11    1
    70   147   146   ar
    71   147   149   ar
    72     7     6    2
    73    77    78    1
    74    73    74    2
    75   151   149   ar
    76   188   191   ar
    77   188   186   ar
    78    21    20    1
    79   187   186   ar
    80     9     3   am
    81   186   185    1
    82    12    11    2
    83    11    14   am
    84    20    16   am
    85   182   185    1
    86   182   183    1
    87     1     2    1
    88     6     8   am
    89     6     5    1
    90     3     2    1
    91     3     4    2
    92    14    15    1
    93    79    80    1
    94   208   207    1
    95   183   184    2
    96    81    82    2
    97    81    80    1
    98    16    17    2
    99    16    15    1
   100     2     5    1
   101   137   135   am
   102   127   125   ar
   103   127   128   ar
   104    15    18    1
   105    80    83    1
   106   125   124   ar
   107   207   209    1
   108   207   204    1
   109    65    64   ar
   110    65    63   ar
   111   206   205    2
   112   135   136    2
   113   135   134    1
   114   205   204    1
   115    64    62   ar
   116    63    61   ar
   117   128   126   ar
   118    44    43    2
   119    89    90    2
   120    89    88    1
   121    19    18    1
   122   124   126   ar
   123   124   123    1
   124   204   203    1
   125   122   121    2
   126   134   133    1
   127    83    84    1
   128    87    88    1
   129   123   120    1
   130    62    60   ar
   131    61    60   ar
   132   117   118   ar
   133   117   115   ar
   134   203   197   am
   135   118   116   ar
   136    84    86    1
   137    84    85    1
   138    88    91    1
   139    43    42    1
   140    43    45   am
   141   133   130    1
   142    91    92    1
   143   121   120    1
   144    60    59    1
   145   201   200   ar
   146    42    39    1
   147   120   119    1
   148   195   196    1
   149   115   112   ar
   150   132   131    2
   151   116   114   ar
   152   130   131    1
   153   130   129    1
   154   197   196    1
   155   197   198    2
   156    92    93    1
   157    93    94    1
   158    39    38    1
   159    39    40    1
   160    59    56    1
   161   200   202   ar
   162   200   199    1
   163    38    31   am
   164   196   199    1
   165   112   114   ar
   166   112   110   ar
   167   114   113   ar
   168    29    30    1
   169    94    95    1
   170    31    30    1
   171    31    32    2
   172    30    33    1
   173    41    40    2
   174    40    46   am
   175    37    35   am
   176   108   107    2
   177    56    57    1
   178    56    55    1
   179    54    52   ar
   180   113   111   ar
   181   110   109    1
   182   110   111   ar
   183    58    57    2
   184    57    66   am
   185   109   106    1
   186   107   106    1
   187    66    67    1
   188    35    34    1
   189    35    36    2
   190    34    33    1
   191    46    47    1
   192    67    70    1
   193    67    68    1
   194    52    53   ar
   195    52    51    1
   196   106   105    1
   197    47    48    1
   198    47    50    1
   199    68    69    2
   200    51    50    1
   201   216   215    2
   202   217   215   am
   203    48    49    2
   204   215   214    1
   205   214   211    1
   206   211   210    1
   207   211   212    1
   208   212   213    2
