@<TRIPOS>MOLECULE
tmp/4c1uA00.pdb
 202 193 0 0 0
SMALL
GASTEIGER

@<TRIPOS>ATOM
      1  N        -20.3620   12.0240  -14.4630 N.3    10  ASN10      -0.1225
      2  CA       -20.8150   13.0640  -13.5390 C.3    10  ASN10       0.1785
      3  C        -22.1300   13.7450  -13.9260 C.2    10  ASN10       0.2597
      4  O        -22.4870   14.7770  -13.3570 O.2    10  ASN10      -0.2718
      5  CB       -19.7260   14.1240  -13.3610 C.3    10  ASN10       0.1169
      6  CG       -19.6660   15.0990  -14.5180 C.2    10  ASN10       0.2627
      7  OD1      -20.0510   14.7760  -15.6420 O.2    10  ASN10      -0.2716
      8  ND2      -19.1780   16.3030  -14.2470 N.am   10  ASN10      -0.0877
      9  N        -22.8420   13.1780  -14.8960 N.am   11  ALA11      -0.1979
     10  CA       -24.1370   13.7120  -15.3090 C.3    11  ALA11       0.1597
     11  C        -25.2430   13.0980  -14.4610 C.2    11  ALA11       0.2287
     12  O        -25.8450   12.0960  -14.8420 O.2    11  ALA11      -0.2864
     13  CB       -24.3800   13.4310  -16.7830 C.3    11  ALA11       0.0319
     14  N        -21.5210   15.7740   -9.3930 N.3    43  ASN43      -0.1225
     15  CA       -20.1830   16.2650   -9.7230 C.3    43  ASN43       0.1785
     16  C        -19.2890   16.5160   -8.5130 C.2    43  ASN43       0.2597
     17  O        -18.1000   16.2050   -8.5410 O.2    43  ASN43      -0.2718
     18  CB       -20.2790   17.5440  -10.5560 C.3    43  ASN43       0.1169
     19  CG       -18.9220   18.0420  -11.0150 C.2    43  ASN43       0.2627
     20  OD1      -18.2700   17.4160  -11.8490 O.2    43  ASN43      -0.2716
     21  ND2      -18.4920   19.1790  -10.4750 N.am   43  ASN43      -0.0877
     22  N        -19.8640   17.0660   -7.4500 N.am   44  GLU44      -0.1979
     23  CA       -19.0840   17.4480   -6.2770 C.3    44  GLU44       0.1602
     24  C        -18.6150   16.2370   -5.4700 C.2    44  GLU44       0.2287
     25  O        -17.7350   16.3600   -4.6170 O.2    44  GLU44      -0.2864
     26  CB       -19.8990   18.3940   -5.3910 C.3    44  GLU44       0.0415
     27  CG       -20.5080   19.5670   -6.1500 C.3    44  GLU44       0.1163
     28  CD       -19.5030   20.2700   -7.0460 C.2    44  GLU44       0.3649
     29  OE1      -18.4180   20.6420   -6.5490 O.co2  44  GLU44      -0.2457
     30  OE2      -19.7930   20.4440   -8.2510 O.co2  44  GLU44      -0.2457
     31  N        -14.7980    9.1830  -15.8790 N.3    65  MET65      -0.1245
     32  CA       -14.5230   10.5400  -16.3220 C.3    65  MET65       0.1570
     33  C        -13.2250   11.0500  -15.7100 C.2    65  MET65       0.2261
     34  O        -12.8770   10.7050  -14.5780 O.2    65  MET65      -0.2867
     35  CB       -15.6710   11.4640  -15.9240 C.3    65  MET65       0.0387
     36  CG       -15.5850   12.8570  -16.5220 C.3    65  MET65       0.0595
     37  SD       -16.8360   13.9660  -15.8540 S.3    65  MET65      -0.1393
     38  CE       -16.1390   14.3260  -14.2440 C.3    65  MET65       0.0692
     39  N         -4.4540   16.3120  -11.5720 N.3    71  LYS71      -0.1245
     40  CA        -5.3210   15.3270  -10.9250 C.3    71  LYS71       0.1561
     41  C         -5.3360   14.0250  -11.7180 C.2    71  LYS71       0.2260
     42  O         -5.4000   12.9390  -11.1400 O.2    71  LYS71      -0.2867
     43  CB        -6.7450   15.8590  -10.7690 C.3    71  LYS71       0.0271
     44  CG        -6.8330   17.1490   -9.9800 C.3    71  LYS71       0.0035
     45  CD        -8.2330   17.3600   -9.4370 C.3    71  LYS71       0.0206
     46  CE        -8.3200   18.6170   -8.5970 C.3    71  LYS71       0.1093
     47  NZ        -9.6330   18.7340   -7.9180 N.3    71  LYS71      -0.1314
     48  N        -15.5510   16.5170  -24.5770 N.3   115  SER115     -0.1217
     49  CA       -15.9920   17.9080  -24.4990 C.3   115  SER115      0.1889
     50  C        -14.8560   18.8780  -24.1840 C.2   115  SER115      0.2288
     51  O        -13.8520   18.5050  -23.5730 O.2   115  SER115     -0.2866
     52  CB       -17.1000   18.0550  -23.4500 C.3   115  SER115      0.2089
     53  OG       -16.5920   17.9110  -22.1350 O.3   115  SER115     -0.2183
     54  N        -14.5190   22.9450  -22.6650 N.3   117  GLU117     -0.1245
     55  CA       -15.3100   23.9840  -22.0110 C.3   117  GLU117      0.1567
     56  C        -14.4730   25.1490  -21.4980 C.2   117  GLU117      0.2260
     57  O        -14.0470   25.1510  -20.3430 O.2   117  GLU117     -0.2867
     58  CB       -16.1230   23.3900  -20.8580 C.3   117  GLU117      0.0388
     59  CG       -17.4020   22.6750  -21.3030 C.3   117  GLU117      0.1160
     60  CD       -17.2770   21.1580  -21.3650 C.2   117  GLU117      0.3649
     61  OE1      -16.1590   20.6200  -21.1990 O.co2 117  GLU117     -0.2457
     62  OE2      -18.3190   20.5000  -21.5780 O.co2 117  GLU117     -0.2457
     63  N        -15.1450   25.6790   -5.6410 N.3   166  TRP166     -0.1241
     64  CA       -14.4920   25.9420   -6.9230 C.3   166  TRP166      0.1605
     65  C        -15.1570   27.0480   -7.7590 C.2   166  TRP166      0.2264
     66  O        -14.4610   27.7590   -8.4810 O.2   166  TRP166     -0.2867
     67  CB       -14.3110   24.6580   -7.7530 C.3   166  TRP166      0.0550
     68  CG       -15.5730   23.9870   -8.1910 C.ar  166  TRP166      0.0003
     69  CD1      -16.2000   22.9440   -7.5750 C.ar  166  TRP166      0.0946
     70  CD2      -16.3620   24.3050   -9.3460 C.ar  166  TRP166      0.0152
     71  NE1      -17.3310   22.5920   -8.2730 N.ar  166  TRP166     -0.2442
     72  CE2      -17.4540   23.4130   -9.3620 C.ar  166  TRP166      0.0810
     73  CE3      -16.2520   25.2550  -10.3660 C.ar  166  TRP166      0.0012
     74  CZ2      -18.4250   23.4420  -10.3600 C.ar  166  TRP166      0.0191
     75  CZ3      -17.2190   25.2820  -11.3540 C.ar  166  TRP166      0.0001
     76  CH2      -18.2910   24.3810  -11.3440 C.ar  166  TRP166      0.0015
     77  N        -12.9040   30.1820   -9.1410 N.3   170  HIS170     -0.1241
     78  CA       -12.7700   30.5400  -10.5520 C.3   170  HIS170      0.1621
     79  C        -12.4780   32.0260  -10.7310 C.2   170  HIS170      0.2264
     80  O        -11.7210   32.4140  -11.6210 O.2   170  HIS170     -0.2867
     81  CB       -14.0230   30.1480  -11.3390 C.3   170  HIS170      0.0745
     82  CG       -13.9800   28.7530  -11.8780 C.ar  170  HIS170      0.0817
     83  ND1      -14.4910   28.4140  -13.1140 N.ar  170  HIS170     -0.2268
     84  CD2      -13.4820   27.6080  -11.3540 C.ar  170  HIS170      0.1154
     85  CE1      -14.3120   27.1230  -13.3230 C.ar  170  HIS170      0.1986
     86  NE2      -13.7010   26.6100  -12.2700 N.ar  170  HIS170     -0.2212
     87  N         -8.8100   32.2700  -10.0320 N.3   173  TYR173     -0.1241
     88  CA        -8.0130   31.7160  -11.1300 C.3   173  TYR173      0.1605
     89  C         -7.8430   32.7560  -12.2280 C.2   173  TYR173      0.2264
     90  O         -6.7280   33.0270  -12.6780 O.2   173  TYR173     -0.2867
     91  CB        -8.6710   30.4900  -11.7760 C.3   173  TYR173      0.0534
     92  CG        -9.0610   29.3460  -10.8660 C.ar  173  TYR173     -0.0201
     93  CD1       -8.5720   29.2380   -9.5720 C.ar  173  TYR173     -0.0009
     94  CD2       -9.9200   28.3570  -11.3260 C.ar  173  TYR173     -0.0009
     95  CE1       -8.9420   28.1780   -8.7580 C.ar  173  TYR173      0.0417
     96  CE2      -10.2940   27.3010  -10.5250 C.ar  173  TYR173      0.0417
     97  CZ        -9.8050   27.2150   -9.2440 C.ar  173  TYR173      0.1957
     98  OH       -10.1920   26.1560   -8.4570 O.3   173  TYR173     -0.2866
     99  N        -24.8130   23.9200   -9.1240 N.3   225  GLN225     -0.1245
    100  CA       -25.6830   23.2780  -10.1110 C.3   225  GLN225      0.1566
    101  C        -26.8870   22.5080   -9.5540 C.2   225  GLN225      0.2260
    102  O        -27.6820   21.9760  -10.3280 O.2   225  GLN225     -0.2867
    103  CB       -24.8450   22.3240  -10.9680 C.3   225  GLN225      0.0367
    104  CG       -23.6540   22.9880  -11.6420 C.3   225  GLN225      0.0905
    105  CD       -22.7840   22.0070  -12.4020 C.2   225  GLN225      0.2608
    106  OE1      -22.5600   20.8800  -11.9570 O.2   225  GLN225     -0.2717
    107  NE2      -22.2920   22.4320  -13.5580 N.am  225  GLN225     -0.0878
    108  N        -20.1460   24.3760  -20.1850 N.3   248  TRP248     -0.1241
    109  CA       -21.2340   23.4390  -19.9410 C.3   248  TRP248      0.1605
    110  C        -22.4880   24.2040  -19.5210 C.2   248  TRP248      0.2264
    111  O        -23.5590   23.6220  -19.3710 O.2   248  TRP248     -0.2867
    112  CB       -20.8520   22.4690  -18.8260 C.3   248  TRP248      0.0550
    113  CG       -20.3840   23.1680  -17.5830 C.ar  248  TRP248      0.0003
    114  CD1      -21.1600   23.7860  -16.6450 C.ar  248  TRP248      0.0946
    115  CD2      -19.0280   23.3330  -17.1500 C.ar  248  TRP248      0.0152
    116  NE1      -20.3720   24.3220  -15.6560 N.ar  248  TRP248     -0.2442
    117  CE2      -19.0590   24.0560  -15.9420 C.ar  248  TRP248      0.0810
    118  CE3      -17.7910   22.9360  -17.6680 C.ar  248  TRP248      0.0012
    119  CZ2      -17.9020   24.3890  -15.2420 C.ar  248  TRP248      0.0191
    120  CZ3      -16.6450   23.2650  -16.9700 C.ar  248  TRP248      0.0001
    121  CH2      -16.7080   23.9860  -15.7720 C.ar  248  TRP248      0.0015
    122  N        -26.8240   23.2480  -18.3660 N.3   252  VAL252     -0.1245
    123  CA       -27.1850   23.2250  -16.9570 C.3   252  VAL252      0.1561
    124  C        -28.3590   24.1700  -16.7370 C.2   252  VAL252      0.2260
    125  O        -29.3040   23.8480  -16.0180 O.2   252  VAL252     -0.2867
    126  CB       -25.9960   23.6380  -16.0660 C.3   252  VAL252      0.0252
    127  CG1      -26.4130   23.7200  -14.6040 C.3   252  VAL252      0.0019
    128  CG2      -24.8510   22.6520  -16.2350 C.3   252  VAL252      0.0019
    129  N        -12.8310   17.4820  -20.9540 N.3   289  THR289     -0.1218
    130  CA       -13.2500   16.2360  -20.3330 C.3   289  THR289      0.1862
    131  C        -12.9470   15.0890  -21.2790 C.2   289  THR289      0.2287
    132  O        -13.2850   15.1360  -22.4620 O.2   289  THR289     -0.2866
    133  CB       -14.7510   16.2410  -19.9930 C.3   289  THR289      0.1770
    134  OG1      -15.0480   17.3550  -19.1420 O.3   289  THR289     -0.2211
    135  CG2      -15.1490   14.9540  -19.2820 C.3   289  THR289      0.0375
    136  N        -24.0370   14.2290  -28.1400 N.3   317  TYR317     -0.1241
    137  CA       -23.4830   14.7380  -26.8910 C.3   317  TYR317      0.1605
    138  C        -23.6730   16.2470  -26.8110 C.2   317  TYR317      0.2264
    139  O        -24.1390   16.7700  -25.7990 O.2   317  TYR317     -0.2867
    140  CB       -21.9960   14.3960  -26.7940 C.3   317  TYR317      0.0534
    141  CG       -21.3540   14.7680  -25.4760 C.ar  317  TYR317     -0.0201
    142  CD1      -20.9680   16.0760  -25.2120 C.ar  317  TYR317     -0.0009
    143  CD2      -21.1190   13.8060  -24.5010 C.ar  317  TYR317     -0.0009
    144  CE1      -20.3770   16.4190  -24.0090 C.ar  317  TYR317      0.0417
    145  CE2      -20.5280   14.1390  -23.2970 C.ar  317  TYR317      0.0417
    146  CZ       -20.1570   15.4480  -23.0580 C.ar  317  TYR317      0.1957
    147  OH       -19.5700   15.7880  -21.8620 O.3   317  TYR317     -0.2866
    148  N        -26.0400   17.8220  -23.9250 N.3   321  PHE321     -0.1241
    149  CA       -25.3790   18.6260  -22.9030 C.3   321  PHE321      0.1605
    150  C        -25.3800   20.1210  -23.2040 C.2   321  PHE321      0.2264
    151  O        -25.0170   20.9160  -22.3410 O.2   321  PHE321     -0.2867
    152  CB       -23.9330   18.1600  -22.7240 C.3   321  PHE321      0.0534
    153  CG       -23.7930   16.9060  -21.9090 C.ar  321  PHE321     -0.0203
    154  CD1      -23.7680   16.9650  -20.5260 C.ar  321  PHE321     -0.0042
    155  CD2      -23.6800   15.6710  -22.5250 C.ar  321  PHE321     -0.0042
    156  CE1      -23.6330   15.8170  -19.7720 C.ar  321  PHE321     -0.0003
    157  CE2      -23.5440   14.5190  -21.7760 C.ar  321  PHE321     -0.0003
    158  CZ       -23.5220   14.5920  -20.3970 C.ar  321  PHE321     -0.0000
    159  N        -23.2850   21.8570  -24.9860 N.3   323  THR323     -0.1218
    160  CA       -21.9240   22.3190  -24.7680 C.3   323  THR323      0.1862
    161  C        -21.1380   22.1150  -26.0580 C.2   323  THR323      0.2287
    162  O        -21.7110   21.7510  -27.0880 O.2   323  THR323     -0.2866
    163  CB       -21.2470   21.5560  -23.6050 C.3   323  THR323      0.1770
    164  OG1      -19.9730   22.1440  -23.3150 O.3   323  THR323     -0.2211
    165  CG2      -21.0650   20.0770  -23.9480 C.3   323  THR323      0.0375
    166  N         -8.1680   24.4690  -15.8610 N.3   355  TRP355     -0.1241
    167  CA        -8.6220   25.0330  -14.5920 C.3   355  TRP355      0.1605
    168  C         -7.4810   24.9670  -13.5880 C.2   355  TRP355      0.2264
    169  O         -6.8430   23.9220  -13.4470 O.2   355  TRP355     -0.2867
    170  CB        -9.8170   24.2560  -14.0410 C.3   355  TRP355      0.0550
    171  CG       -11.0120   24.2170  -14.9410 C.ar  355  TRP355      0.0003
    172  CD1      -11.6400   23.1020  -15.4180 C.ar  355  TRP355      0.0946
    173  CD2      -11.7320   25.3380  -15.4700 C.ar  355  TRP355      0.0152
    174  NE1      -12.7040   23.4600  -16.2100 N.ar  355  TRP355     -0.2442
    175  CE2      -12.7800   24.8270  -16.2580 C.ar  355  TRP355      0.0810
    176  CE3      -11.5880   26.7260  -15.3530 C.ar  355  TRP355      0.0012
    177  CZ2      -13.6860   25.6530  -16.9250 C.ar  355  TRP355      0.0191
    178  CZ3      -12.4870   27.5430  -16.0180 C.ar  355  TRP355      0.0001
    179  CH2      -13.5220   27.0040  -16.7930 C.ar  355  TRP355      0.0015
    180  N         -7.0800   24.7600  -10.3560 N.3   357  ASP357     -0.1225
    181  CA        -7.0360   23.7410   -9.3110 C.3   357  ASP357      0.1805
    182  C         -6.6830   22.3740   -9.8880 C.2   357  ASP357      0.2598
    183  O         -5.9050   21.6310   -9.2880 O.2   357  ASP357     -0.2718
    184  CB        -8.3310   23.6880   -8.4890 C.3   357  ASP357      0.1424
    185  CG        -9.5640   23.3910   -9.3230 C.2   357  ASP357      0.3668
    186  OD1       -9.5680   23.6650  -10.5410 O.co2 357  ASP357     -0.2456
    187  OD2      -10.5490   22.8960   -8.7360 O.co2 357  ASP357     -0.2456
    188  N         -7.2240   22.0530  -11.0600 N.am  358  THR358     -0.1953
    189  CA        -6.8970   20.7860  -11.7130 C.3   358  THR358      0.1897
    190  C         -5.4430   20.7880  -12.1880 C.2   358  THR358      0.2313
    191  O         -4.7730   19.7560  -12.1680 O.2   358  THR358     -0.2863
    192  CB        -7.8210   20.4840  -12.9160 C.3   358  THR358      0.1794
    193  OG1       -7.5150   21.3660  -14.0040 O.3   358  THR358     -0.2208
    194  CG2       -9.2900   20.6310  -12.5260 C.3   358  THR358      0.0378
    195  N         -9.0970   26.3440   -3.1230 N.3   369  ASN369     -0.1240
    196  CA       -10.5320   26.5720   -3.2130 C.3   369  ASN369      0.1653
    197  C        -11.1530   26.9110   -1.8630 C.2   369  ASN369      0.2266
    198  O        -11.9760   27.8190   -1.7660 O.2   369  ASN369     -0.2867
    199  CB       -11.2170   25.3500   -3.8260 C.3   369  ASN369      0.1155
    200  CG       -10.8660   25.1600   -5.2910 C.2   369  ASN369      0.2627
    201  OD1      -10.0870   25.9270   -5.8600 O.2   369  ASN369     -0.2716
    202  ND2      -11.4350   24.1340   -5.9070 N.am  369  ASN369     -0.0877
@<TRIPOS>BOND
     1   136   137    1
     2   162   161    2
     3   137   138    1
     4   137   140    1
     5   138   139    2
     6   140   141    1
     7   161   160    1
     8   141   142   ar
     9   141   143   ar
    10   142   144   ar
    11   159   160    1
    12   160   163    1
    13    48    49    1
    14   143   145   ar
    15    49    50    1
    16    49    52    1
    17    50    51    2
    18   144   146   ar
    19   165   163    1
    20   148   149    1
    21   163   164    1
    22    52    53    1
    23   145   146   ar
    24   150   149    1
    25   150   151    2
    26   146   147    1
    27   149   152    1
    28   152   153    1
    29    54    55    1
    30   155   153   ar
    31   155   157   ar
    32   132   131    2
    33    55    56    1
    34    55    58    1
    35   153   154   ar
    36   157   158   ar
    37    62    60   ar
    38    56    57    2
    39    60    59    1
    40    60    61   ar
    41    59    58    1
    42   131   130    1
    43   129   130    1
    44   154   156   ar
    45   158   156   ar
    46   130   133    1
    47   108   109    1
    48   133   135    1
    49   133   134    1
    50   109   110    1
    51   109   112    1
    52   110   111    2
    53   112   113    1
    54   122   123    1
    55   118   115   ar
    56   118   120   ar
    57   113   115   ar
    58   113   114   ar
    59   115   117   ar
    60   120   121   ar
    61   123   124    1
    62   123   126    1
    63   177   179   ar
    64   177   175   ar
    65   179   178   ar
    66    13    10    1
    67   124   125    2
    68   114   116   ar
    69    36    35    1
    70    36    37    1
    71    32    35    1
    72    32    31    1
    73    32    33    1
    74   175   174   ar
    75   175   173   ar
    76   128   126    1
    77   174   172   ar
    78   126   127    1
    79   178   176   ar
    80   117   116   ar
    81   117   119   ar
    82   166   167    1
    83    37    38    1
    84   121   119   ar
    85    33    34    2
    86     7     6    2
    87   173   176   ar
    88   173   171   ar
    89   172   171   ar
    90    10     9    1
    91    10    11    1
    92   171   170    1
    93     9     3   am
    94    12    11    2
    95   167   170    1
    96   167   168    1
    97     6     8   am
    98     6     5    1
    99     1     2    1
   100   193   192    1
   101     3     2    1
   102     3     4    2
   103   168   169    2
   104   107   105   am
   105     2     5    1
   106    85    83   ar
   107    85    86   ar
   108    83    82   ar
   109   192   194    1
   110   192   189    1
   111    90    89    2
   112   105   106    2
   113   105   104    1
   114    86    84   ar
   115    89    88    1
   116   190   191    2
   117   190   189    1
   118    82    84   ar
   119    82    81    1
   120    20    19    2
   121    91    88    1
   122    91    92    1
   123    41    42    2
   124    41    40    1
   125   189   188    1
   126   104   103    1
   127    80    79    2
   128    39    40    1
   129    75    76   ar
   130    75    73   ar
   131    76    74   ar
   132    81    78    1
   133    94    92   ar
   134    94    96   ar
   135    88    87    1
   136   188   182   am
   137    19    18    1
   138    19    21   am
   139   103   100    1
   140    40    43    1
   141    92    93   ar
   142    43    44    1
   143    79    78    1
   144    18    15    1
   145    78    77    1
   146   186   185   ar
   147    96    97   ar
   148    73    70   ar
   149    74    72   ar
   150   180   181    1
   151   102   101    2
   152   100   101    1
   153   100    99    1
   154    44    45    1
   155   182   181    1
   156   182   183    2
   157    15    14    1
   158    15    16    1
   159    93    95   ar
   160    45    46    1
   161    72    70   ar
   162    72    71   ar
   163    70    68   ar
   164   185   187   ar
   165   185   184    1
   166   181   184    1
   167    97    95   ar
   168    97    98    1
   169    46    47    1
   170    17    16    2
   171    16    22   am
   172    66    65    2
   173    71    69   ar
   174    30    28   ar
   175    68    67    1
   176    68    69   ar
   177    65    64    1
   178    67    64    1
   179    22    23    1
   180    28    29   ar
   181    28    27    1
   182    64    63    1
   183    23    24    1
   184    23    26    1
   185    27    26    1
   186   202   200   am
   187   201   200    2
   188    24    25    2
   189   200   199    1
   190   199   196    1
   191   196   195    1
   192   196   197    1
   193   197   198    2
