@<TRIPOS>MOLECULE
tmp/4c1wA00.pdb
 134 128 0 0 0
SMALL
GASTEIGER

@<TRIPOS>ATOM
      1  N         -0.9190   -6.9620    2.8980 N.3    50  PHE50      -0.1241
      2  CA         0.1170   -6.4490    3.7870 C.3    50  PHE50       0.1605
      3  C          0.4400   -7.4800    4.8680 C.2    50  PHE50       0.2264
      4  O         -0.4630   -7.9520    5.5810 O.2    50  PHE50      -0.2867
      5  CB        -0.2830   -5.0750    4.3510 C.3    50  PHE50       0.0534
      6  CG         0.8400   -4.3680    5.0790 C.ar   50  PHE50      -0.0203
      7  CD1        1.3580   -4.8770    6.2960 C.ar   50  PHE50      -0.0042
      8  CD2        1.3600   -3.1830    4.5990 C.ar   50  PHE50      -0.0042
      9  CE1        2.3630   -4.2170    7.0060 C.ar   50  PHE50      -0.0003
     10  CE2        2.4060   -2.5420    5.3060 C.ar   50  PHE50      -0.0003
     11  CZ         2.8980   -3.0540    6.5070 C.ar   50  PHE50      -0.0000
     12  N          0.7840    3.1170   18.0780 N.3    63  ASP63      -0.1239
     13  CA         1.5140    3.6310   16.9380 C.3    63  ASP63       0.1674
     14  C          3.0340    3.7060   17.0550 C.2    63  ASP63       0.2266
     15  O          3.6750    4.4400   16.2940 O.2    63  ASP63      -0.2867
     16  CB         0.9240    4.9550   16.4660 C.3    63  ASP63       0.1410
     17  CG        -0.5190    4.7970   15.9680 C.2    63  ASP63       0.3668
     18  OD1       -0.8920    3.7130   15.4240 O.co2  63  ASP63      -0.2456
     19  OD2       -1.2880    5.7890   16.1500 O.co2  63  ASP63      -0.2456
     20  N          6.2470    1.3530   16.7570 N.3    65  TYR65      -0.1241
     21  CA         6.6710    0.0120   16.3410 C.3    65  TYR65       0.1605
     22  C          7.7330    0.1140   15.2690 C.2    65  TYR65       0.2264
     23  O          7.8950    1.1880   14.6330 O.2    65  TYR65      -0.2867
     24  CB         5.4590   -0.7680   15.8000 C.3    65  TYR65       0.0534
     25  CG         4.7160   -0.0930   14.6710 C.ar   65  TYR65      -0.0201
     26  CD1        5.1930   -0.2330   13.3410 C.ar   65  TYR65      -0.0009
     27  CD2        3.5780    0.6950   14.9170 C.ar   65  TYR65      -0.0009
     28  CE1        4.5470    0.4130   12.3010 C.ar   65  TYR65       0.0417
     29  CE2        2.8970    1.3250   13.8780 C.ar   65  TYR65       0.0417
     30  CZ         3.4080    1.1820   12.5730 C.ar   65  TYR65       0.1957
     31  OH         2.8090    1.7660   11.5210 O.3    65  TYR65      -0.2866
     32  N          8.7070   -2.3310   11.7710 N.3    67  THR67      -0.1218
     33  CA         8.2990   -3.4630   10.9800 C.3    67  THR67       0.1862
     34  C          9.0960   -3.4980    9.6780 C.2    67  THR67       0.2287
     35  O          9.2980   -2.4670    9.0370 O.2    67  THR67      -0.2866
     36  CB         6.7850   -3.4660   10.6780 C.3    67  THR67       0.1770
     37  OG1        6.5380   -4.5310    9.7740 O.3    67  THR67      -0.2211
     38  CG2        6.2850   -2.1200   10.0780 C.3    67  THR67       0.0375
     39  N          4.2470   -5.3580    1.2100 N.3    71  TYR71      -0.1241
     40  CA         3.0290   -4.6770    0.8240 C.3    71  TYR71       0.1605
     41  C          2.7980   -4.8910   -0.6920 C.2    71  TYR71       0.2264
     42  O          3.5560   -4.3470   -1.5270 O.2    71  TYR71      -0.2867
     43  CB         3.1900   -3.1980    1.1380 C.3    71  TYR71       0.0534
     44  CG         2.0180   -2.2880    0.7670 C.ar   71  TYR71      -0.0201
     45  CD1        0.7000   -2.6530    0.9840 C.ar   71  TYR71      -0.0009
     46  CD2        2.2730   -1.0430    0.1900 C.ar   71  TYR71      -0.0009
     47  CE1       -0.3510   -1.8120    0.6050 C.ar   71  TYR71       0.0417
     48  CE2        1.2430   -0.1860   -0.1480 C.ar   71  TYR71       0.0417
     49  CZ        -0.0510   -0.5580    0.0700 C.ar   71  TYR71       0.1957
     50  OH        -1.0500    0.3530   -0.2930 O.3    71  TYR71      -0.2866
     51  N          9.0430   -3.6870    2.2930 N.3    76  THR76      -0.1203
     52  CA         8.8780   -2.3600    2.8380 C.3    76  THR76       0.1994
     53  C          9.3100   -2.3560    4.3460 C.2    76  THR76       0.2618
     54  O          9.6640   -3.4050    4.9030 O.2    76  THR76      -0.2717
     55  CB         7.4430   -1.8010    2.6010 C.3    76  THR76       0.1784
     56  OG1        7.4040   -0.4350    2.9840 O.3    76  THR76      -0.2211
     57  CG2        6.3160   -2.5480    3.3490 C.3    76  THR76       0.0376
     58  N          9.2770   -1.1690    4.9610 N.am   77  LEU77      -0.1965
     59  CA         9.9630   -0.9240    6.1990 C.3    77  LEU77       0.1728
     60  C          9.3130    0.3090    6.7990 C.2    77  LEU77       0.2616
     61  O          8.9680    1.2450    6.0770 O.2    77  LEU77      -0.2715
     62  CB        11.4270   -0.6010    5.8360 C.3    77  LEU77       0.0311
     63  CG        12.3100   -0.1270    6.9930 C.3    77  LEU77       0.0022
     64  CD1       12.5410   -1.2570    8.0000 C.3    77  LEU77       0.0001
     65  CD2       13.6480    0.3970    6.5080 C.3    77  LEU77       0.0001
     66  N          9.1510    0.3070    8.1260 N.am   78  GLU78      -0.1977
     67  CA         8.5750    1.4410    8.7990 C.3    78  GLU78       0.1602
     68  C          8.9820    1.4010   10.2470 C.2    78  GLU78       0.2287
     69  O          8.9360    0.3430   10.8960 O.2    78  GLU78      -0.2864
     70  CB         7.0490    1.3910    8.6900 C.3    78  GLU78       0.0415
     71  CG         6.3390    2.5780    9.3870 C.3    78  GLU78       0.1163
     72  CD         4.8630    2.6660    8.9660 C.2    78  GLU78       0.3649
     73  OE1        4.0300    1.7550    9.3090 O.co2  78  GLU78      -0.2457
     74  OE2        4.5370    3.6070    8.1910 O.co2  78  GLU78      -0.2457
     75  N          8.2570    3.9590   13.8460 N.3    80  ARG80      -0.1245
     76  CA         7.5640    5.1240   14.3640 C.3    80  ARG80       0.1563
     77  C          7.8410    5.1560   15.8780 C.2    80  ARG80       0.2260
     78  O          7.8050    4.1170   16.5710 O.2    80  ARG80      -0.2867
     79  CB         6.0420    5.0350   14.0820 C.3    80  ARG80       0.0307
     80  CG         5.6930    5.1070   12.5930 C.3    80  ARG80       0.0489
     81  CD         4.2530    4.6950   12.3190 C.3    80  ARG80       0.2205
     82  NE         3.3370    5.7090   12.8020 N.pl3  80  ARG80      -0.0865
     83  CZ         2.0230    5.6040   12.7540 C.cat  80  ARG80       0.5346
     84  NH1        1.4700    4.5180   12.2960 N.pl3  80  ARG80       0.1354
     85  NH2        1.2650    6.6070   13.1910 N.pl3  80  ARG80       0.1354
     86  N          7.3850    9.2570   11.6510 N.3    86  GLN86      -0.1245
     87  CA         8.2250    8.3190   10.8550 C.3    86  GLN86       0.1566
     88  C          9.6910    8.4610   11.1480 C.2    86  GLN86       0.2260
     89  O         10.2230    9.5960   11.1050 O.2    86  GLN86      -0.2867
     90  CB         8.0270    8.5660    9.3430 C.3    86  GLN86       0.0367
     91  CG         6.5610    8.3050    8.8960 C.3    86  GLN86       0.0905
     92  CD         6.1040    6.8050    8.9780 C.2    86  GLN86       0.2608
     93  OE1        6.8970    5.9380    9.1500 O.2    86  GLN86      -0.2717
     94  NE2        4.8070    6.5460    8.8030 N.am   86  GLN86      -0.0878
     95  N          7.1300    1.9240    0.8280 N.3    92  ASN92      -0.1240
     96  CA         5.9790    1.2240    0.2110 C.3    92  ASN92       0.1653
     97  C          6.0390    1.1860   -1.2860 C.2    92  ASN92       0.2266
     98  O          5.4350    0.3000   -1.8880 O.2    92  ASN92      -0.2867
     99  CB         4.6210    1.8140    0.6240 C.3    92  ASN92       0.1155
    100  CG         4.2760    1.4720    2.0660 C.2    92  ASN92       0.2627
    101  OD1        5.1550    1.0120    2.8150 O.2    92  ASN92      -0.2716
    102  ND2        3.0070    1.7320    2.4950 N.am   92  ASN92      -0.0877
    103  N         -0.2430   -4.6650   18.4970 N.3   157  ARG157     -0.1245
    104  CA        -0.1110   -3.2200   18.7400 C.3   157  ARG157      0.1563
    105  C         -1.2110   -2.8740   19.7410 C.2   157  ARG157      0.2260
    106  O         -2.4040   -2.8660   19.3990 O.2   157  ARG157     -0.2867
    107  CB        -0.2440   -2.4460   17.4190 C.3   157  ARG157      0.0307
    108  CG         0.9710   -2.6640   16.5440 C.3   157  ARG157      0.0489
    109  CD         0.7000   -2.1440   15.1490 C.3   157  ARG157      0.2205
    110  NE         0.2740   -0.7520   15.0990 N.pl3 157  ARG157     -0.0865
    111  CZ        -0.2340   -0.1660   14.0050 C.cat 157  ARG157      0.5346
    112  NH1       -0.3120   -0.8490   12.8530 N.pl3 157  ARG157      0.1354
    113  NH2       -0.5920    1.1450   14.0350 N.pl3 157  ARG157      0.1354
    114  N         -2.2830   -7.4640   14.2210 N.3   162  VAL162     -0.1231
    115  CA        -2.4710   -7.2710   12.7770 C.3   162  VAL162      0.1692
    116  C         -1.3110   -7.8600   12.0060 C.2   162  VAL162      0.2592
    117  O         -0.3150   -8.1670   12.6150 O.2   162  VAL162     -0.2718
    118  CB        -2.5580   -5.7660   12.4440 C.3   162  VAL162      0.0266
    119  CG1       -3.8790   -5.1430   12.9620 C.3   162  VAL162      0.0020
    120  CG2       -1.3500   -5.0220   12.9850 C.3   162  VAL162      0.0020
    121  N         -1.4120   -7.9450   10.6620 N.am  163  TRP163     -0.1976
    122  CA        -0.3010   -8.2570    9.7540 C.3   163  TRP163      0.1640
    123  C          0.1480   -9.6780    9.7800 C.2   163  TRP163      0.2290
    124  O          1.2040   -9.9880    9.2320 O.2   163  TRP163     -0.2864
    125  CB         0.9060   -7.3340    9.9980 C.3   163  TRP163      0.0576
    126  CG         0.5810   -5.8510   10.0270 C.ar  163  TRP163      0.0006
    127  CD1       -0.4470   -5.1570    9.3830 C.ar  163  TRP163      0.0946
    128  CD2        1.4340   -4.8260   10.6080 C.ar  163  TRP163      0.0152
    129  NE1       -0.3180   -3.7970    9.6120 N.ar  163  TRP163     -0.2442
    130  CE2        0.7850   -3.5360   10.3390 C.ar  163  TRP163      0.0810
    131  CE3        2.6060   -4.8500   11.3500 C.ar  163  TRP163      0.0012
    132  CZ2        1.3350   -2.3250   10.7640 C.ar  163  TRP163      0.0191
    133  CZ3        3.1610   -3.6260   11.7930 C.ar  163  TRP163      0.0001
    134  CH2        2.5520   -2.3830   11.4620 C.ar  163  TRP163      0.0015
@<TRIPOS>BOND
     1    98    97    2
     2    42    41    2
     3    97    96    1
     4    41    40    1
     5    50    49    1
     6    48    49   ar
     7    48    46   ar
     8    49    47   ar
     9    46    44   ar
    10    96    99    1
    11    96    95    1
    12    47    45   ar
    13    99   100    1
    14    44    45   ar
    15    44    43    1
    16    40    43    1
    17    40    39    1
    18   100   102   am
    19   100   101    2
    20    51    52    1
    21    55    52    1
    22    55    56    1
    23    55    57    1
    24    52    53    1
    25     1     2    1
    26     2     5    1
    27     2     3    1
    28    53    54    2
    29    53    58   am
    30     5     6    1
    31     8     6   ar
    32     8    10   ar
    33     3     4    2
    34    58    59    1
    35     6     7   ar
    36    10    11   ar
    37    62    59    1
    38    62    63    1
    39    61    60    2
    40    59    60    1
    41     7     9   ar
    42    11     9   ar
    43    65    63    1
    44    60    66   am
    45    63    64    1
    46    66    67    1
    47    74    72   ar
    48    70    67    1
    49    70    71    1
    50    67    68    1
    51    94    92   am
    52    91    92    1
    53    91    90    1
    54    72    73   ar
    55    72    71    1
    56    92    93    2
    57    35    34    2
    58   124   123    2
    59    90    87    1
    60   127   129   ar
    61   127   126   ar
    62   129   130   ar
    63    34    33    1
    64   122   123    1
    65   122   125    1
    66   122   121    1
    67    37    36    1
    68   125   126    1
    69   126   128   ar
    70    38    36    1
    71    68    69    2
    72   130   128   ar
    73   130   132   ar
    74   128   131   ar
    75   121   116   am
    76    36    33    1
    77   132   134   ar
    78    87    88    1
    79    87    86    1
    80    33    32    1
    81    89    88    2
    82   131   133   ar
    83   134   133   ar
    84    31    30    1
    85   116   117    2
    86   116   115    1
    87    84    83    1
    88    28    30   ar
    89    28    26   ar
    90    81    80    1
    91    81    82    1
    92   118   115    1
    93   118   119    1
    94   118   120    1
    95    30    29   ar
    96    80    79    1
    97    83    82    2
    98    83    85    1
    99   115   114    1
   100   112   111    1
   101    26    25   ar
   102    75    76    1
   103    29    27   ar
   104   111   113    1
   105   111   110    2
   106    79    76    1
   107    76    77    1
   108    23    22    2
   109    25    27   ar
   110    25    24    1
   111   110   109    1
   112   109   108    1
   113    22    21    1
   114    18    17   ar
   115    24    21    1
   116    77    78    2
   117    17    19   ar
   118    17    16    1
   119    15    14    2
   120    21    20    1
   121    16    13    1
   122   108   107    1
   123    13    14    1
   124    13    12    1
   125   107   104    1
   126   103   104    1
   127   104   105    1
   128   106   105    2
