@<TRIPOS>MOLECULE
tmp/4c1xA00.pdb
 136 130 0 0 0
SMALL
GASTEIGER

@<TRIPOS>ATOM
      1  N         -0.9640   -6.7650    2.8840 N.3    50  PHE50      -0.1241
      2  CA         0.0710   -6.3290    3.7880 C.3    50  PHE50       0.1605
      3  C          0.3720   -7.3850    4.8520 C.2    50  PHE50       0.2264
      4  O         -0.5330   -7.8560    5.5850 O.2    50  PHE50      -0.2867
      5  CB        -0.2990   -4.9460    4.3560 C.3    50  PHE50       0.0534
      6  CG         0.8380   -4.2770    5.1040 C.ar   50  PHE50      -0.0203
      7  CD1        1.3080   -4.7960    6.3480 C.ar   50  PHE50      -0.0042
      8  CD2        1.4040   -3.1140    4.6070 C.ar   50  PHE50      -0.0042
      9  CE1        2.3520   -4.1900    7.0490 C.ar   50  PHE50      -0.0003
     10  CE2        2.4510   -2.4920    5.3140 C.ar   50  PHE50      -0.0003
     11  CZ         2.9290   -3.0370    6.5240 C.ar   50  PHE50      -0.0000
     12  N         -0.1440    2.2230   20.5080 N.3    62  LYS62      -0.1231
     13  CA        -0.5010    1.5660   19.2530 C.3    62  LYS62       0.1693
     14  C          0.2860    2.0130   18.0210 C.2    62  LYS62       0.2592
     15  O          0.4200    1.2250   17.0840 O.2    62  LYS62      -0.2718
     16  CB        -1.9490    1.6910   18.9770 C.3    62  LYS62       0.0285
     17  CG        -2.3910    3.1090   18.6600 C.3    62  LYS62       0.0035
     18  CD        -3.9310    3.1850   18.6390 C.3    62  LYS62       0.0206
     19  CE        -4.3820    4.6470   18.5910 C.3    62  LYS62       0.1093
     20  NZ        -5.7800    4.7840   18.0470 N.3    62  LYS62      -0.1314
     21  N          0.8060    3.2540   18.0160 N.am   63  ASP63      -0.1974
     22  CA         1.5200    3.7020   16.8490 C.3    63  ASP63       0.1709
     23  C          3.0340    3.8070   16.9900 C.2    63  ASP63       0.2293
     24  O          3.6960    4.5670   16.2180 O.2    63  ASP63      -0.2864
     25  CB         0.9590    5.0310   16.3540 C.3    63  ASP63       0.1436
     26  CG        -0.4980    4.9100   15.9230 C.2    63  ASP63       0.3671
     27  OD1       -0.8840    3.8570   15.3730 O.co2  63  ASP63      -0.2456
     28  OD2       -1.2580    5.8880   16.1320 O.co2  63  ASP63      -0.2456
     29  N          6.2800    1.4770   16.7700 N.3    65  TYR65      -0.1241
     30  CA         6.6670    0.1320   16.3510 C.3    65  TYR65       0.1605
     31  C          7.7370    0.2320   15.2570 C.2    65  TYR65       0.2264
     32  O          7.8890    1.3030   14.6030 O.2    65  TYR65      -0.2867
     33  CB         5.4530   -0.6580   15.8020 C.3    65  TYR65       0.0534
     34  CG         4.7350    0.0170   14.6670 C.ar   65  TYR65      -0.0201
     35  CD1        5.2400   -0.0690   13.3660 C.ar   65  TYR65      -0.0009
     36  CD2        3.5710    0.7570   14.8920 C.ar   65  TYR65      -0.0009
     37  CE1        4.5770    0.5540   12.3170 C.ar   65  TYR65       0.0417
     38  CE2        2.8810    1.3550   13.8410 C.ar   65  TYR65       0.0417
     39  CZ         3.4060    1.2580   12.5470 C.ar   65  TYR65       0.1957
     40  OH         2.7730    1.8800   11.4720 O.3    65  TYR65      -0.2866
     41  N          8.6830   -2.1820   11.7770 N.3    67  THR67      -0.1218
     42  CA         8.2900   -3.2870   10.9660 C.3    67  THR67       0.1862
     43  C          9.1210   -3.3550    9.6740 C.2    67  THR67       0.2287
     44  O          9.3180   -2.3670    9.0170 O.2    67  THR67      -0.2866
     45  CB         6.7840   -3.2490   10.6190 C.3    67  THR67       0.1770
     46  OG1        6.4930   -4.3760    9.7990 O.3    67  THR67      -0.2211
     47  CG2        6.3780   -1.9090    9.9990 C.3    67  THR67       0.0375
     48  N          4.3170   -5.2420    1.2260 N.3    71  TYR71      -0.1241
     49  CA         3.0830   -4.6110    0.7980 C.3    71  TYR71       0.1605
     50  C          2.8130   -4.7870   -0.7000 C.2    71  TYR71       0.2264
     51  O          3.5350   -4.2180   -1.5250 O.2    71  TYR71      -0.2867
     52  CB         3.2190   -3.1580    1.1540 C.3    71  TYR71       0.0534
     53  CG         2.0670   -2.2370    0.7770 C.ar   71  TYR71      -0.0201
     54  CD1        0.7450   -2.5420    1.0890 C.ar   71  TYR71      -0.0009
     55  CD2        2.3480   -1.0230    0.1560 C.ar   71  TYR71      -0.0009
     56  CE1       -0.2970   -1.6770    0.7200 C.ar   71  TYR71       0.0417
     57  CE2        1.3430   -0.1340   -0.1680 C.ar   71  TYR71       0.0417
     58  CZ         0.0460   -0.4460    0.1640 C.ar   71  TYR71       0.1957
     59  OH        -0.9260    0.4550   -0.1820 O.3    71  TYR71      -0.2866
     60  N          9.0060   -3.5680    2.2390 N.3    76  THR76      -0.1203
     61  CA         8.8490   -2.2710    2.8200 C.3    76  THR76       0.1994
     62  C          9.2780   -2.2540    4.3380 C.2    76  THR76       0.2618
     63  O          9.6710   -3.3040    4.9030 O.2    76  THR76      -0.2717
     64  CB         7.4660   -1.7020    2.5560 C.3    76  THR76       0.1784
     65  OG1        7.4940   -0.3140    2.9290 O.3    76  THR76      -0.2211
     66  CG2        6.3490   -2.4380    3.3540 C.3    76  THR76       0.0376
     67  N          9.2420   -1.0680    4.9500 N.am   77  LEU77      -0.1965
     68  CA         9.9440   -0.7730    6.1850 C.3    77  LEU77       0.1728
     69  C          9.3090    0.4670    6.7730 C.2    77  LEU77       0.2616
     70  O          8.9340    1.4130    6.0430 O.2    77  LEU77      -0.2715
     71  CB        11.4410   -0.4890    5.8250 C.3    77  LEU77       0.0311
     72  CG        12.3550   -0.0240    6.9550 C.3    77  LEU77       0.0022
     73  CD1       12.5380   -1.1610    7.9610 C.3    77  LEU77       0.0001
     74  CD2       13.7120    0.4040    6.3730 C.3    77  LEU77       0.0001
     75  N          9.1230    0.4480    8.0900 N.am   78  GLU78      -0.1977
     76  CA         8.5920    1.6180    8.7730 C.3    78  GLU78       0.1602
     77  C          8.9880    1.5310   10.2550 C.2    78  GLU78       0.2287
     78  O          8.8960    0.4560   10.8940 O.2    78  GLU78      -0.2864
     79  CB         7.0560    1.6130    8.6270 C.3    78  GLU78       0.0415
     80  CG         6.3570    2.7370    9.3830 C.3    78  GLU78       0.1163
     81  CD         4.8750    2.8200    8.9520 C.2    78  GLU78       0.3649
     82  OE1        4.0830    1.9170    9.3440 O.co2  78  GLU78      -0.2457
     83  OE2        4.5180    3.7560    8.1830 O.co2  78  GLU78      -0.2457
     84  N          8.2840    4.0710   13.8450 N.3    80  ARG80      -0.1245
     85  CA         7.5590    5.2270   14.3540 C.3    80  ARG80       0.1563
     86  C          7.8260    5.2610   15.8760 C.2    80  ARG80       0.2260
     87  O          7.8500    4.1930   16.5390 O.2    80  ARG80      -0.2867
     88  CB         6.0470    5.0650   14.0380 C.3    80  ARG80       0.0307
     89  CG         5.7070    5.3000   12.5570 C.3    80  ARG80       0.0489
     90  CD         4.3140    4.8380   12.2180 C.3    80  ARG80       0.2205
     91  NE         3.3640    5.8070   12.7200 N.pl3  80  ARG80      -0.0865
     92  CZ         2.0520    5.6840   12.6750 C.cat  80  ARG80       0.5346
     93  NH1        1.5040    4.6240   12.1650 N.pl3  80  ARG80       0.1354
     94  NH2        1.3050    6.6750   13.1450 N.pl3  80  ARG80       0.1354
     95  N          7.4410    9.4310   11.6200 N.3    86  GLN86      -0.1245
     96  CA         8.2630    8.4780   10.8430 C.3    86  GLN86       0.1566
     97  C          9.7190    8.6080   11.1120 C.2    86  GLN86       0.2260
     98  O         10.2700    9.6890   11.0190 O.2    86  GLN86      -0.2867
     99  CB         8.0590    8.6550    9.3490 C.3    86  GLN86       0.0367
    100  CG         6.5910    8.4390    8.9060 C.3    86  GLN86       0.0905
    101  CD         6.1090    6.9680    8.9650 C.2    86  GLN86       0.2608
    102  OE1        6.9050    6.0730    9.0700 O.2    86  GLN86      -0.2717
    103  NE2        4.7610    6.7460    8.9520 N.am   86  GLN86      -0.0878
    104  N          7.1410    2.1590    0.8250 N.3    92  ASN92      -0.1240
    105  CA         6.0210    1.4440    0.2280 C.3    92  ASN92       0.1653
    106  C          6.0640    1.3560   -1.2840 C.2    92  ASN92       0.2266
    107  O          5.4390    0.4760   -1.8520 O.2    92  ASN92      -0.2867
    108  CB         4.6810    2.0230    0.6370 C.3    92  ASN92       0.1155
    109  CG         4.3140    1.6430    2.0570 C.2    92  ASN92       0.2627
    110  OD1        5.1670    1.1400    2.8140 O.2    92  ASN92      -0.2716
    111  ND2        3.0170    1.8900    2.4650 N.am   92  ASN92      -0.0877
    112  N         -0.2160   -4.5250   18.4520 N.3   157  ARG157     -0.1245
    113  CA        -0.1350   -3.0500   18.6370 C.3   157  ARG157      0.1563
    114  C         -1.2180   -2.6980   19.6740 C.2   157  ARG157      0.2260
    115  O         -2.4190   -2.6280   19.3300 O.2   157  ARG157     -0.2867
    116  CB        -0.3450   -2.3640   17.2830 C.3   157  ARG157      0.0307
    117  CG         0.8590   -2.5580   16.3750 C.3   157  ARG157      0.0489
    118  CD         0.5470   -2.0330   14.9660 C.3   157  ARG157      0.2205
    119  NE         0.1450   -0.6010   14.9510 N.pl3 157  ARG157     -0.0865
    120  CZ        -0.3680    0.0270   13.8730 C.cat 157  ARG157      0.5346
    121  NH1       -0.4920   -0.6270   12.7100 N.pl3 157  ARG157      0.1354
    122  NH2       -0.6920    1.3350   13.9230 N.pl3 157  ARG157      0.1354
    123  N         -1.4730   -7.7840   10.6430 N.3   163  TRP163     -0.1241
    124  CA        -0.3660   -8.1340    9.7320 C.3   163  TRP163      0.1605
    125  C          0.1000   -9.5530    9.7380 C.2   163  TRP163      0.2264
    126  O          1.2210   -9.8250    9.2610 O.2   163  TRP163     -0.2867
    127  CB         0.8420   -7.2250    9.9690 C.3   163  TRP163      0.0550
    128  CG         0.5720   -5.7310    9.9750 C.ar  163  TRP163      0.0003
    129  CD1       -0.4430   -5.0330    9.3170 C.ar  163  TRP163      0.0946
    130  CD2        1.4310   -4.6930   10.5770 C.ar  163  TRP163      0.0152
    131  NE1       -0.3010   -3.6890    9.5350 N.ar  163  TRP163     -0.2442
    132  CE2        0.8110   -3.4210   10.2790 C.ar  163  TRP163      0.0810
    133  CE3        2.5990   -4.7140   11.3290 C.ar  163  TRP163      0.0012
    134  CZ2        1.3680   -2.1940   10.6830 C.ar  163  TRP163      0.0191
    135  CZ3        3.1590   -3.4740   11.7630 C.ar  163  TRP163      0.0001
    136  CH2        2.5480   -2.2410   11.4380 C.ar  163  TRP163      0.0015
@<TRIPOS>BOND
     1   107   106    2
     2    51    50    2
     3   106   105    1
     4    50    49    1
     5    59    58    1
     6    57    55   ar
     7    57    58   ar
     8    55    53   ar
     9    58    56   ar
    10   105   108    1
    11   105   104    1
    12   108   109    1
    13    56    54   ar
    14    53    54   ar
    15    53    52    1
    16    49    52    1
    17    49    48    1
    18   109   111   am
    19   109   110    2
    20    60    61    1
    21    64    61    1
    22    64    65    1
    23    64    66    1
    24    61    62    1
    25     1     2    1
    26     2     5    1
    27     2     3    1
    28    62    63    2
    29    62    67   am
    30     5     6    1
    31     8     6   ar
    32     8    10   ar
    33     3     4    2
    34    67    68    1
    35     6     7   ar
    36    10    11   ar
    37    71    68    1
    38    71    72    1
    39    70    69    2
    40    68    69    1
    41     7     9   ar
    42    74    72    1
    43    11     9   ar
    44    69    75   am
    45    72    73    1
    46    75    76    1
    47    83    81   ar
    48    79    76    1
    49    79    80    1
    50    76    77    1
    51   100   101    1
    52   100    99    1
    53    81    82   ar
    54    81    80    1
    55   103   101   am
    56   101   102    2
    57    44    43    2
    58   126   125    2
    59   129   131   ar
    60   129   128   ar
    61    99    96    1
    62   131   132   ar
    63    43    42    1
    64   124   125    1
    65   124   127    1
    66   124   123    1
    67    46    45    1
    68   127   128    1
    69   128   130   ar
    70    47    45    1
    71    77    78    2
    72   132   130   ar
    73   132   134   ar
    74   130   133   ar
    75    45    42    1
    76   134   136   ar
    77    96    97    1
    78    96    95    1
    79    42    41    1
    80    98    97    2
    81   133   135   ar
    82   136   135   ar
    83    40    39    1
    84    93    92    1
    85    90    89    1
    86    90    91    1
    87    37    39   ar
    88    37    35   ar
    89    39    38   ar
    90    89    88    1
    91    92    91    2
    92    92    94    1
    93   121   120    1
    94    35    34   ar
    95    38    36   ar
    96    84    85    1
    97   120   122    1
    98   120   119    2
    99    88    85    1
   100    85    86    1
   101    32    31    2
   102    34    36   ar
   103    34    33    1
   104   119   118    1
   105   118   117    1
   106    31    30    1
   107    27    26   ar
   108    33    30    1
   109    86    87    2
   110    26    28   ar
   111    26    25    1
   112    24    23    2
   113    30    29    1
   114    25    22    1
   115   117   116    1
   116    22    23    1
   117    22    21    1
   118    15    14    2
   119   116   113    1
   120    21    14   am
   121    14    13    1
   122    20    19    1
   123   112   113    1
   124    19    18    1
   125   113   114    1
   126    18    17    1
   127    17    16    1
   128    16    13    1
   129    13    12    1
   130   115   114    2
