@<TRIPOS>MOLECULE
tmp/4c1yC02.pdb
 113 108 0 0 0
SMALL
GASTEIGER

@<TRIPOS>ATOM
      1  N        -41.8010  -22.9270   33.1620 N.3   219  PHE219     -0.1241
      2  CA       -42.2920  -24.1750   33.7440 C.3   219  PHE219      0.1605
      3  C        -43.8070  -24.1380   33.9800 C.2   219  PHE219      0.2264
      4  O        -44.4800  -23.1880   33.5690 O.2   219  PHE219     -0.2867
      5  CB       -41.5460  -24.4790   35.0360 C.3   219  PHE219      0.0534
      6  CG       -41.7340  -23.4460   36.0830 C.ar  219  PHE219     -0.0203
      7  CD1      -40.9720  -22.2890   36.0710 C.ar  219  PHE219     -0.0042
      8  CD2      -42.6790  -23.6200   37.0800 C.ar  219  PHE219     -0.0042
      9  CE1      -41.1480  -21.3150   37.0430 C.ar  219  PHE219     -0.0003
     10  CE2      -42.8650  -22.6640   38.0580 C.ar  219  PHE219     -0.0003
     11  CZ       -42.0950  -21.5060   38.0410 C.ar  219  PHE219     -0.0000
     12  N        -39.3540  -17.3410   34.6980 N.3   229  ARG229     -0.1245
     13  CA       -38.3220  -16.6900   35.5030 C.3   229  ARG229      0.1563
     14  C        -37.1860  -16.2710   34.5980 C.2   229  ARG229      0.2260
     15  O        -36.7420  -17.0690   33.7950 O.2   229  ARG229     -0.2867
     16  CB       -37.7760  -17.6340   36.5680 C.3   229  ARG229      0.0307
     17  CG       -38.7900  -18.0810   37.6080 C.3   229  ARG229      0.0489
     18  CD       -39.1270  -16.9380   38.5420 C.3   229  ARG229      0.2205
     19  NE       -39.9140  -17.3480   39.7060 N.pl3 229  ARG229     -0.0865
     20  CZ       -41.2230  -17.5680   39.6970 C.cat 229  ARG229      0.5346
     21  NH1      -41.9050  -17.4770   38.5700 N.pl3 229  ARG229      0.1354
     22  NH2      -41.8410  -17.9180   40.8190 N.pl3 229  ARG229      0.1354
     23  N        -33.5050  -11.6810   39.7040 N.3   241  GLN241     -0.1245
     24  CA       -34.5620  -12.5230   39.1280 C.3   241  GLN241      0.1566
     25  C        -35.7950  -11.6670   38.8300 C.2   241  GLN241      0.2260
     26  O        -36.0450  -10.6590   39.5200 O.2   241  GLN241     -0.2867
     27  CB       -34.9450  -13.5920   40.1440 C.3   241  GLN241      0.0367
     28  CG       -36.0250  -14.6000   39.7560 C.3   241  GLN241      0.0905
     29  CD       -36.6280  -15.2500   40.9980 C.2   241  GLN241      0.2608
     30  OE1      -37.1060  -14.5460   41.8840 O.2   241  GLN241     -0.2717
     31  NE2      -36.5860  -16.5830   41.0830 N.am  241  GLN241     -0.0878
     32  N        -39.9570  -12.4610   38.2680 N.3   243  CYS243     -0.1235
     33  CA       -41.0480  -13.4520   38.3310 C.3   243  CYS243      0.1677
     34  C        -42.2710  -13.1320   37.4310 C.2   243  CYS243      0.2270
     35  O        -42.8870  -12.0370   37.5050 O.2   243  CYS243     -0.2867
     36  CB       -41.5390  -13.6420   39.7700 C.3   243  CYS243      0.0956
     37  SG       -40.2520  -13.8560   41.0220 S.3   243  CYS243     -0.0801
     38  N        -45.8960  -15.0240   37.0830 N.3   245  ASP245     -0.1239
     39  CA       -46.8010  -16.0400   37.6510 C.3   245  ASP245      0.1674
     40  C        -48.2250  -15.9030   37.0930 C.2   245  ASP245      0.2266
     41  O        -48.6140  -14.8330   36.6320 O.2   245  ASP245     -0.2867
     42  CB       -46.8280  -15.9540   39.1850 C.3   245  ASP245      0.1410
     43  CG       -45.5600  -16.5230   39.8380 C.2   245  ASP245      0.3668
     44  OD1      -44.4670  -15.9250   39.6710 O.co2 245  ASP245     -0.2456
     45  OD2      -45.6690  -17.5600   40.5370 O.co2 245  ASP245     -0.2456
     46  N        -30.7860  -11.9840   43.8280 N.3   256  ILE256     -0.1245
     47  CA       -30.6970  -13.3930   44.2230 C.3   256  ILE256      0.1561
     48  C        -29.3980  -13.6480   44.9500 C.2   256  ILE256      0.2260
     49  O        -29.4100  -14.0290   46.1110 O.2   256  ILE256     -0.2867
     50  CB       -30.8350  -14.3390   43.0170 C.3   256  ILE256      0.0252
     51  CG1      -32.0640  -13.9370   42.1850 C.3   256  ILE256      0.0019
     52  CG2      -30.9940  -15.7730   43.4950 C.3   256  ILE256      0.0019
     53  CD1      -33.3930  -14.1590   42.8950 C.3   256  ILE256      0.0001
     54  N        -45.4780  -25.9700   40.5800 N.3   273  PHE273     -0.1241
     55  CA       -46.0410  -25.7080   41.9240 C.3   273  PHE273      0.1605
     56  C        -47.0520  -26.7820   42.3420 C.2   273  PHE273      0.2264
     57  O        -47.0740  -27.2020   43.5070 O.2   273  PHE273     -0.2867
     58  CB       -46.6910  -24.3270   42.0040 C.3   273  PHE273      0.0534
     59  CG       -45.7020  -23.1890   42.1000 C.ar  273  PHE273     -0.0203
     60  CD1      -44.8130  -23.0960   43.1880 C.ar  273  PHE273     -0.0042
     61  CD2      -45.6670  -22.1840   41.1270 C.ar  273  PHE273     -0.0042
     62  CE1      -43.9080  -22.0370   43.2890 C.ar  273  PHE273     -0.0003
     63  CE2      -44.7620  -21.1240   41.2360 C.ar  273  PHE273     -0.0003
     64  CZ       -43.8860  -21.0510   42.3150 C.ar  273  PHE273     -0.0000
     65  N        -41.8020  -25.8990   41.8450 N.3   278  PRO278     -0.2116
     66  CA       -40.8460  -26.4160   40.8660 C.3   278  PRO278      0.1372
     67  C        -39.4490  -26.5230   41.4850 C.2   278  PRO278      0.2244
     68  O        -39.2850  -26.3820   42.7040 O.2   278  PRO278     -0.2868
     69  CB       -40.8640  -25.3460   39.7850 C.3   278  PRO278      0.0268
     70  CG       -41.0450  -24.0930   40.5750 C.3   278  PRO278      0.0207
     71  CD       -41.9900  -24.4460   41.6960 C.3   278  PRO278      0.0892
     72  N        -35.3820  -25.0870   40.6160 N.3   280  LEU280     -0.1245
     73  CA       -34.5720  -24.2050   39.7990 C.3   280  LEU280      0.1561
     74  C        -33.0870  -24.3960   40.1140 C.2   280  LEU280      0.2260
     75  O        -32.6940  -24.4840   41.2900 O.2   280  LEU280     -0.2867
     76  CB       -34.9420  -22.7540   40.0840 C.3   280  LEU280      0.0270
     77  CG       -36.3240  -22.1870   39.7330 C.3   280  LEU280      0.0019
     78  CD1      -36.4040  -20.7740   40.3220 C.3   280  LEU280      0.0001
     79  CD2      -36.5800  -22.1750   38.2260 C.3   280  LEU280      0.0001
     80  N        -26.8190  -22.1630   42.3650 N.3   296  TRP296     -0.1241
     81  CA       -27.8670  -21.7240   43.2780 C.3   296  TRP296      0.1605
     82  C        -29.1250  -22.5670   43.0780 C.2   296  TRP296      0.2264
     83  O        -29.4880  -22.9140   41.9610 O.2   296  TRP296     -0.2867
     84  CB       -28.1900  -20.2460   43.0330 C.3   296  TRP296      0.0550
     85  CG       -29.3240  -19.7310   43.7980 C.ar  296  TRP296      0.0003
     86  CD1      -29.3020  -19.2420   45.0850 C.ar  296  TRP296      0.0946
     87  CD2      -30.6810  -19.6220   43.3490 C.ar  296  TRP296      0.0152
     88  NE1      -30.5620  -18.8340   45.4500 N.ar  296  TRP296     -0.2442
     89  CE2      -31.4270  -19.0580   44.4110 C.ar  296  TRP296      0.0810
     90  CE3      -31.3350  -19.9520   42.1600 C.ar  296  TRP296      0.0012
     91  CZ2      -32.7970  -18.8020   44.3140 C.ar  296  TRP296      0.0191
     92  CZ3      -32.7130  -19.7010   42.0600 C.ar  296  TRP296      0.0001
     93  CH2      -33.4200  -19.1170   43.1280 C.ar  296  TRP296      0.0015
     94  N        -33.2080  -23.4260   43.9550 N.3   298  TRP298     -0.1241
     95  CA       -34.5230  -23.1820   44.5320 C.3   298  TRP298      0.1605
     96  C        -35.3850  -24.4410   44.4430 C.2   298  TRP298      0.2264
     97  O        -35.6670  -24.9410   43.3590 O.2   298  TRP298     -0.2867
     98  CB       -35.2300  -21.9730   43.8880 C.3   298  TRP298      0.0550
     99  CG       -36.3460  -21.4310   44.7660 C.ar  298  TRP298      0.0003
    100  CD1      -36.2910  -20.3170   45.5720 C.ar  298  TRP298      0.0946
    101  CD2      -37.6480  -21.9960   44.9660 C.ar  298  TRP298      0.0152
    102  NE1      -37.4710  -20.1550   46.2520 N.ar  298  TRP298     -0.2442
    103  CE2      -38.3290  -21.1620   45.8900 C.ar  298  TRP298      0.0810
    104  CE3      -38.3160  -23.1200   44.4540 C.ar  298  TRP298      0.0012
    105  CZ2      -39.6400  -21.4240   46.3070 C.ar  298  TRP298      0.0191
    106  CZ3      -39.6140  -23.3740   44.8650 C.ar  298  TRP298      0.0001
    107  CH2      -40.2610  -22.5370   45.7820 C.ar  298  TRP298      0.0015
    108  N        -34.8560  -20.6720   48.7260 N.3   304  SER304     -0.1217
    109  CA       -33.6580  -20.1300   48.1160 C.3   304  SER304      0.1889
    110  C        -32.4450  -20.6260   48.9070 C.2   304  SER304      0.2288
    111  O        -32.4440  -20.6020   50.1350 O.2   304  SER304     -0.2866
    112  CB       -33.7610  -18.5990   48.0850 C.3   304  SER304      0.2089
    113  OG       -32.5070  -17.9900   48.3040 O.3   304  SER304     -0.2183
@<TRIPOS>BOND
     1     1     2    1
     2     4     3    2
     3     2     3    1
     4     2     5    1
     5    15    14    2
     6    14    13    1
     7    12    13    1
     8     5     6    1
     9    13    16    1
    10     7     6   ar
    11     7     9   ar
    12     6     8   ar
    13    16    17    1
    14    41    40    2
    15     9    11   ar
    16     8    10   ar
    17    38    39    1
    18    40    39    1
    19    34    35    2
    20    34    33    1
    21    17    18    1
    22    39    42    1
    23    11    10   ar
    24    79    77    1
    25    32    33    1
    26    33    36    1
    27    18    19    1
    28    21    20    1
    29    25    24    1
    30    25    26    2
    31    24    23    1
    32    24    27    1
    33    42    43    1
    34    44    43   ar
    35    20    19    2
    36    20    22    1
    37    77    76    1
    38    77    78    1
    39    28    27    1
    40    28    29    1
    41    36    37    1
    42    69    70    1
    43    69    66    1
    44    73    76    1
    45    73    74    1
    46    73    72    1
    47    43    45   ar
    48    74    75    2
    49    70    71    1
    50    54    55    1
    51    66    67    1
    52    66    65    1
    53    29    31   am
    54    29    30    2
    55    61    63   ar
    56    61    59   ar
    57    63    64   ar
    58    67    68    2
    59    71    65    1
    60    55    58    1
    61    55    56    1
    62    83    82    2
    63    58    59    1
    64    92    90   ar
    65    92    93   ar
    66    59    60   ar
    67    90    87   ar
    68    51    53    1
    69    51    50    1
    70    64    62   ar
    71    56    57    2
    72    80    81    1
    73    50    52    1
    74    50    47    1
    75    84    81    1
    76    84    85    1
    77    82    81    1
    78    93    91   ar
    79    60    62   ar
    80    87    85   ar
    81    87    89   ar
    82    97    96    2
    83    85    86   ar
    84    46    47    1
    85    98    95    1
    86    98    99    1
    87    94    95    1
    88    47    48    1
    89    91    89   ar
    90    89    88   ar
    91    96    95    1
    92   104   106   ar
    93   104   101   ar
    94    99   101   ar
    95    99   100   ar
    96   106   107   ar
    97    48    49    2
    98   101   103   ar
    99    86    88   ar
   100   100   102   ar
   101   107   105   ar
   102   103   102   ar
   103   103   105   ar
   104   112   109    1
   105   112   113    1
   106   109   108    1
   107   109   110    1
   108   110   111    2
