@<TRIPOS>MOLECULE
tmp/4c1yB01.pdb
 96 90 0 0 0
SMALL
GASTEIGER

@<TRIPOS>ATOM
      1  N          7.0720   29.3550  -21.8640 N.3   116  LEU116     -0.1245
      2  CA         7.5680   29.8050  -23.1940 C.3   116  LEU116      0.1561
      3  C          8.9760   29.2940  -23.4090 C.2   116  LEU116      0.2260
      4  O          9.7500   29.2260  -22.4830 O.2   116  LEU116     -0.2867
      5  CB         7.5460   31.3410  -23.3470 C.3   116  LEU116      0.0270
      6  CG         6.1600   31.9970  -23.2110 C.3   116  LEU116      0.0019
      7  CD1        6.2500   33.5170  -23.1010 C.3   116  LEU116      0.0001
      8  CD2        5.2590   31.5950  -24.3670 C.3   116  LEU116      0.0001
      9  N          1.9610   30.5020  -19.9520 N.3   125  ARG125     -0.1245
     10  CA         0.7150   30.7660  -20.6060 C.3   125  ARG125      0.1563
     11  C         -0.1990   29.6010  -20.3540 C.2   125  ARG125      0.2260
     12  O          0.1540   28.4680  -20.6450 O.2   125  ARG125     -0.2867
     13  CB         0.9480   30.9840  -22.1010 C.3   125  ARG125      0.0307
     14  CG         1.8340   32.1550  -22.4060 C.3   125  ARG125      0.0489
     15  CD         1.1340   33.4690  -22.0680 C.3   125  ARG125      0.2205
     16  NE         1.9340   34.5970  -22.5310 N.pl3 125  ARG125     -0.0865
     17  CZ         2.9780   35.0860  -21.8680 C.cat 125  ARG125      0.5346
     18  NH1        3.3370   34.5850  -20.6980 N.pl3 125  ARG125      0.1354
     19  NH2        3.6580   36.0940  -22.3750 N.pl3 125  ARG125      0.1354
     20  N         -6.5100   32.9530  -22.9000 N.3   137  GLU137     -0.1245
     21  CA        -5.1320   32.7910  -22.4400 C.3   137  GLU137      0.1567
     22  C         -4.9750   33.5530  -21.1450 C.2   137  GLU137      0.2260
     23  O         -5.5830   34.6140  -20.9810 O.2   137  GLU137     -0.2867
     24  CB        -4.1640   33.3140  -23.5110 C.3   137  GLU137      0.0388
     25  CG        -2.7040   33.2920  -23.1070 C.3   137  GLU137      0.1160
     26  CD        -1.8680   34.0200  -24.1090 C.2   137  GLU137      0.3649
     27  OE1       -2.1710   35.2290  -24.3300 O.co2 137  GLU137     -0.2457
     28  OE2       -0.9430   33.3890  -24.7110 O.co2 137  GLU137     -0.2457
     29  N         -1.6960   34.7610  -18.4140 N.3   139  MET139     -0.1245
     30  CA        -0.2540   34.9990  -18.4760 C.3   139  MET139      0.1570
     31  C          0.3220   35.1720  -17.0960 C.2   139  MET139      0.2261
     32  O         -0.3110   35.7480  -16.2050 O.2   139  MET139     -0.2867
     33  CB         0.0460   36.3090  -19.1770 C.3   139  MET139      0.0387
     34  CG        -0.3900   36.4670  -20.6060 C.3   139  MET139      0.0595
     35  SD         0.2170   38.0480  -21.2300 S.3   139  MET139     -0.1393
     36  CE        -0.2510   39.1530  -19.9230 C.3   139  MET139      0.0692
     37  N          4.2410   36.6520  -16.1320 N.3   141  ASN141     -0.1240
     38  CA         5.5830   37.0460  -16.5570 C.3   141  ASN141      0.1653
     39  C          6.3260   37.7490  -15.4430 C.2   141  ASN141      0.2266
     40  O          7.0490   38.7190  -15.6850 O.2   141  ASN141     -0.2867
     41  CB         5.4880   37.9930  -17.7400 C.3   141  ASN141      0.1155
     42  CG         4.8450   37.3560  -18.9250 C.2   141  ASN141      0.2627
     43  OD1        3.7680   37.7480  -19.3280 O.2   141  ASN141     -0.2716
     44  ND2        5.5110   36.3700  -19.4980 N.am  141  ASN141     -0.0877
     45  N         -4.5470   37.2970  -20.9510 N.3   148  GLY148     -0.1210
     46  CA        -3.7850   37.5780  -22.1560 C.3   148  GLY148      0.1956
     47  C         -4.7510   37.6850  -23.2990 C.2   148  GLY148      0.2612
     48  O         -5.7940   38.2700  -23.1560 O.2   148  GLY148     -0.2717
     49  N         -4.4330   37.1060  -24.4420 N.am  149  THR149     -0.1952
     50  CA        -5.3300   37.1860  -25.6030 C.3   149  THR149      0.1897
     51  C         -6.5050   36.2680  -25.4660 C.2   149  THR149      0.2313
     52  O         -6.3740   35.1860  -24.9330 O.2   149  THR149     -0.2863
     53  CB        -4.6070   36.7330  -26.8590 C.3   149  THR149      0.1794
     54  OG1       -3.4080   37.4820  -26.9930 O.3   149  THR149     -0.2208
     55  CG2       -5.4720   36.9630  -28.1010 C.3   149  THR149      0.0378
     56  N          9.5990   33.1730  -28.4470 N.3   173  PRO173     -0.2116
     57  CA         8.8750   31.9360  -28.5160 C.3   173  PRO173      0.1372
     58  C          7.7160   31.9700  -29.5000 C.2   173  PRO173      0.2244
     59  O          7.0900   33.0090  -29.7290 O.2   173  PRO173     -0.2868
     60  CB         8.3490   31.7820  -27.0890 C.3   173  PRO173      0.0268
     61  CG         8.0320   33.1840  -26.7100 C.3   173  PRO173      0.0207
     62  CD         9.0070   34.0690  -27.4420 C.3   173  PRO173      0.0892
     63  N          4.0520   29.8250  -30.2110 N.3   175  ILE175     -0.1245
     64  CA         3.0760   29.0040  -29.5130 C.3   175  ILE175      0.1561
     65  C          2.1230   28.4590  -30.5270 C.2   175  ILE175      0.2260
     66  O          1.7840   29.1470  -31.4790 O.2   175  ILE175     -0.2867
     67  CB         2.2100   29.7880  -28.5190 C.3   175  ILE175      0.0252
     68  CG1        3.0500   30.7110  -27.6630 C.3   175  ILE175      0.0019
     69  CG2        1.3810   28.8170  -27.6630 C.3   175  ILE175      0.0019
     70  CD1        2.2140   31.7280  -26.9200 C.3   175  ILE175      0.0001
     71  N          0.8280   31.3160  -32.6850 N.3   191  TYR191     -0.1241
     72  CA         1.5050   32.5690  -32.3240 C.3   191  TYR191      0.1605
     73  C          2.9690   32.4780  -32.7320 C.2   191  TYR191      0.2264
     74  O          3.5850   31.4240  -32.6140 O.2   191  TYR191     -0.2867
     75  CB         1.4070   32.8450  -30.8080 C.3   191  TYR191      0.0534
     76  CG         2.2400   34.0250  -30.3460 C.ar  191  TYR191     -0.0201
     77  CD1        1.7180   35.3190  -30.3270 C.ar  191  TYR191     -0.0009
     78  CD2        3.5700   33.8480  -29.9380 C.ar  191  TYR191     -0.0009
     79  CE1        2.4990   36.3940  -29.9150 C.ar  191  TYR191      0.0417
     80  CE2        4.3410   34.9130  -29.5100 C.ar  191  TYR191      0.0417
     81  CZ         3.8090   36.1910  -29.5140 C.ar  191  TYR191      0.1957
     82  OH         4.6040   37.2570  -29.1200 O.3   191  TYR191     -0.2866
     83  N         -0.4320   36.5380  -32.9940 N.3   197  TRP197     -0.1241
     84  CA        -1.3540   35.4290  -33.3210 C.3   197  TRP197      0.1605
     85  C         -1.9250   35.6400  -34.7080 C.2   197  TRP197      0.2264
     86  O         -2.5160   36.7080  -34.9790 O.2   197  TRP197     -0.2867
     87  CB        -2.5400   35.3230  -32.3540 C.3   197  TRP197      0.0550
     88  CG        -2.2060   34.9830  -30.9780 C.ar  197  TRP197      0.0003
     89  CD1       -2.0310   35.8460  -29.9610 C.ar  197  TRP197      0.0946
     90  CD2       -2.0400   33.6660  -30.4270 C.ar  197  TRP197      0.0152
     91  NE1       -1.7320   35.1700  -28.8050 N.ar  197  TRP197     -0.2442
     92  CE2       -1.7440   33.8200  -29.0700 C.ar  197  TRP197      0.0810
     93  CE3       -2.1110   32.3690  -30.9560 C.ar  197  TRP197      0.0012
     94  CZ2       -1.5010   32.7220  -28.2280 C.ar  197  TRP197      0.0191
     95  CZ3       -1.8640   31.2940  -30.1260 C.ar  197  TRP197      0.0001
     96  CH2       -1.5640   31.4800  -28.7760 C.ar  197  TRP197      0.0015
@<TRIPOS>BOND
     1    86    85    2
     2    85    84    1
     3    84    83    1
     4    84    87    1
     5    73    74    2
     6    73    72    1
     7    71    72    1
     8    87    88    1
     9    72    75    1
    10    66    65    2
    11    88    90   ar
    12    88    89   ar
    13    93    90   ar
    14    93    95   ar
    15    75    76    1
    16    65    64    1
    17    90    92   ar
    18    76    77   ar
    19    76    78   ar
    20    77    79   ar
    21    63    64    1
    22    95    96   ar
    23    89    91   ar
    24    78    80   ar
    25    79    81   ar
    26    59    58    2
    27    81    80   ar
    28    81    82    1
    29    64    67    1
    30    58    57    1
    31    92    91   ar
    32    92    94   ar
    33    96    94   ar
    34    67    69    1
    35    67    68    1
    36    57    56    1
    37    57    60    1
    38    56    62    1
    39    55    53    1
    40    68    70    1
    41    62    61    1
    42    60    61    1
    43    54    53    1
    44    53    50    1
    45    50    51    1
    46    50    49    1
    47    51    52    2
    48    28    26   ar
    49    49    47   am
    50     8     6    1
    51    27    26   ar
    52    26    25    1
    53    24    25    1
    54    24    21    1
    55     3     2    1
    56     3     4    2
    57     5     6    1
    58     5     2    1
    59    47    48    2
    60    47    46    1
    61     6     7    1
    62     2     1    1
    63    20    21    1
    64    16    15    1
    65    16    17    2
    66    21    22    1
    67    14    13    1
    68    14    15    1
    69    19    17    1
    70    46    45    1
    71    13    10    1
    72    17    18    1
    73    35    34    1
    74    35    36    1
    75    22    23    2
    76    12    11    2
    77    10    11    1
    78    10     9    1
    79    34    33    1
    80    44    42   am
    81    43    42    2
    82    33    30    1
    83    42    41    1
    84    30    29    1
    85    30    31    1
    86    41    38    1
    87    31    32    2
    88    38    37    1
    89    38    39    1
    90    40    39    2
