@<TRIPOS>MOLECULE
tmp/4c1yB02.pdb
 116 111 0 0 0
SMALL
GASTEIGER

@<TRIPOS>ATOM
      1  N         14.6530   11.5630  -20.4930 N.3    21  ASN21      -0.1240
      2  CA        13.9390   10.3600  -20.0610 C.3    21  ASN21       0.1653
      3  C         13.7270   10.2960  -18.5300 C.2    21  ASN21       0.2266
      4  O         13.6640    9.2350  -17.9520 O.2    21  ASN21      -0.2867
      5  CB        14.7080    9.1550  -20.5610 C.3    21  ASN21       0.1155
      6  CG        16.0360    8.9490  -19.8270 C.2    21  ASN21       0.2627
      7  OD1       16.5260    9.8420  -19.1110 O.2    21  ASN21      -0.2716
      8  ND2       16.5880    7.7460  -19.9480 N.am   21  ASN21      -0.0877
      9  N         10.9360   11.3460  -15.9390 N.3    23  LEU23      -0.1245
     10  CA         9.5440   11.6010  -16.2520 C.3    23  LEU23       0.1561
     11  C          8.7510   11.8330  -15.0140 C.2    23  LEU23       0.2260
     12  O          8.9840   11.1730  -14.0000 O.2    23  LEU23      -0.2867
     13  CB         8.9340   10.3910  -16.9700 C.3    23  LEU23       0.0270
     14  CG         9.7850    9.6960  -18.0360 C.3    23  LEU23       0.0019
     15  CD1        8.9490    8.6050  -18.6700 C.3    23  LEU23       0.0001
     16  CD2       10.3130   10.6530  -19.1020 C.3    23  LEU23       0.0001
     17  N          9.4630    8.4830  -12.9710 N.3    39  TYR39      -0.1241
     18  CA        10.4010    7.5840  -13.6340 C.3    39  TYR39       0.1605
     19  C         11.8420    8.1250  -13.6290 C.2    39  TYR39       0.2264
     20  O         12.1740    9.0410  -14.3970 O.2    39  TYR39      -0.2867
     21  CB         9.9760    7.2870  -15.0720 C.3    39  TYR39       0.0534
     22  CG        10.8680    6.2610  -15.7680 C.ar   39  TYR39      -0.0201
     23  CD1       10.6400    4.9030  -15.6080 C.ar   39  TYR39      -0.0009
     24  CD2       11.9520    6.6550  -16.5770 C.ar   39  TYR39      -0.0009
     25  CE1       11.4430    3.9550  -16.2250 C.ar   39  TYR39       0.0417
     26  CE2       12.7670    5.7170  -17.1910 C.ar   39  TYR39       0.0417
     27  CZ        12.4950    4.3640  -17.0220 C.ar   39  TYR39       0.1957
     28  OH        13.2700    3.4080  -17.6460 O.3    39  TYR39      -0.2866
     29  N         10.1770    3.0810  -12.4880 N.3    43  TRP43      -0.1241
     30  CA         8.8540    3.7150  -12.1860 C.3    43  TRP43       0.1605
     31  C          8.4850    3.6530  -10.7150 C.2    43  TRP43       0.2264
     32  O          8.5560    2.5980  -10.1200 O.2    43  TRP43      -0.2867
     33  CB         7.7540    3.0070  -12.9750 C.3    43  TRP43       0.0550
     34  CG         7.5930    3.4870  -14.3920 C.ar   43  TRP43       0.0003
     35  CD1        7.9120    2.8260  -15.5170 C.ar   43  TRP43       0.0946
     36  CD2        7.0300    4.7230  -14.8030 C.ar   43  TRP43       0.0152
     37  NE1        7.6190    3.5660  -16.6200 N.ar   43  TRP43      -0.2442
     38  CE2        7.0750    4.7520  -16.2080 C.ar   43  TRP43       0.0810
     39  CE3        6.4960    5.8170  -14.1220 C.ar   43  TRP43       0.0012
     40  CZ2        6.6060    5.8250  -16.9370 C.ar   43  TRP43       0.0191
     41  CZ3        6.0490    6.8780  -14.8410 C.ar   43  TRP43       0.0001
     42  CH2        6.1050    6.8820  -16.2440 C.ar   43  TRP43       0.0015
     43  N         11.2310   14.2930  -26.4300 N.3   270  TRP270     -0.1241
     44  CA        12.5620   14.8330  -26.2840 C.3   270  TRP270      0.1605
     45  C         13.4270   14.3480  -27.4370 C.2   270  TRP270      0.2264
     46  O         12.9980   13.4980  -28.1990 O.2   270  TRP270     -0.2867
     47  CB        13.1610   14.4900  -24.9080 C.3   270  TRP270      0.0550
     48  CG        13.4270   13.0530  -24.6130 C.ar  270  TRP270      0.0003
     49  CD1       14.6290   12.3950  -24.7590 C.ar  270  TRP270      0.0946
     50  CD2       12.5150   12.0890  -24.0580 C.ar  270  TRP270      0.0152
     51  NE1       14.5090   11.0850  -24.3460 N.ar  270  TRP270     -0.2442
     52  CE2       13.2300   10.8710  -23.9080 C.ar  270  TRP270      0.0810
     53  CE3       11.1670   12.1250  -23.6940 C.ar  270  TRP270      0.0012
     54  CZ2       12.6370    9.7090  -23.4070 C.ar  270  TRP270      0.0191
     55  CZ3       10.5830   10.9670  -23.1880 C.ar  270  TRP270      0.0001
     56  CH2       11.3170    9.7780  -23.0520 C.ar  270  TRP270      0.0015
     57  N          6.3240    9.7340  -25.5990 N.3   281  ARG281     -0.1245
     58  CA         5.6050    8.8670  -24.6620 C.3   281  ARG281      0.1563
     59  C          4.1860    9.4130  -24.4680 C.2   281  ARG281      0.2260
     60  O          4.0490   10.5890  -24.1290 O.2   281  ARG281     -0.2867
     61  CB         6.2930    8.8320  -23.3020 C.3   281  ARG281      0.0307
     62  CG         7.7570    8.4460  -23.2980 C.3   281  ARG281      0.0489
     63  CD         7.9620    7.0120  -23.6790 C.3   281  ARG281      0.2205
     64  NE         9.3500    6.6040  -23.4440 N.pl3 281  ARG281     -0.0865
     65  CZ        10.2940    6.5360  -24.3630 C.cat 281  ARG281      0.5346
     66  NH1       10.0480    6.8410  -25.6230 N.pl3 281  ARG281      0.1354
     67  NH2       11.5060    6.1360  -24.0200 N.pl3 281  ARG281      0.1354
     68  N          1.1020    3.3200  -21.0600 N.3   295  GLU295     -0.1245
     69  CA         2.1040    4.1150  -21.7570 C.3   295  GLU295      0.1567
     70  C          2.3800    3.5220  -23.1220 C.2   295  GLU295      0.2260
     71  O          2.2890    2.3020  -23.3290 O.2   295  GLU295     -0.2867
     72  CB         3.4170    4.1570  -20.9410 C.3   295  GLU295      0.0388
     73  CG         4.6280    4.7740  -21.6260 C.3   295  GLU295      0.1160
     74  CD         5.8970    4.5700  -20.8350 C.2   295  GLU295      0.3649
     75  OE1        6.4230    3.4580  -20.8680 O.co2 295  GLU295     -0.2457
     76  OE2        6.3670    5.5050  -20.1610 O.co2 295  GLU295     -0.2457
     77  N          5.2240    4.2910  -26.5070 N.3   297  VAL297     -0.1245
     78  CA         6.6300    4.6560  -26.6190 C.3   297  VAL297      0.1561
     79  C          6.9160    4.7170  -28.1080 C.2   297  VAL297      0.2260
     80  O          6.3780    3.9260  -28.8600 O.2   297  VAL297     -0.2867
     81  CB         7.5210    3.5730  -25.9640 C.3   297  VAL297      0.0252
     82  CG1        8.9910    3.7420  -26.3410 C.3   297  VAL297      0.0019
     83  CG2        7.3220    3.5360  -24.4470 C.3   297  VAL297      0.0019
     84  N         10.6770    5.3370  -30.1420 N.3   299  ASN299     -0.1240
     85  CA        12.0840    5.6890  -30.1970 C.3   299  ASN299      0.1653
     86  C         12.6300    5.2210  -31.5270 C.2   299  ASN299      0.2266
     87  O         11.9390    4.5050  -32.2610 O.2   299  ASN299     -0.2867
     88  CB        12.8450    5.1230  -29.0100 C.3   299  ASN299      0.1155
     89  CG        12.8230    3.5980  -28.9350 C.2   299  ASN299      0.2627
     90  OD1       13.1370    3.0260  -27.8920 O.2   299  ASN299     -0.2716
     91  ND2       12.4450    2.9450  -30.0040 N.am  299  ASN299     -0.0877
     92  N         13.3750    1.0090  -31.7660 N.3   302  HIS302     -0.1241
     93  CA        12.2470    0.0730  -31.9550 C.3   302  HIS302      0.1621
     94  C         10.9220    0.6380  -32.4760 C.2   302  HIS302      0.2264
     95  O          9.9740   -0.1190  -32.6480 O.2   302  HIS302     -0.2867
     96  CB        11.9810   -0.6110  -30.6250 C.3   302  HIS302      0.0745
     97  CG        13.2290   -1.0890  -29.9610 C.ar  302  HIS302      0.0817
     98  ND1       14.2190   -1.7530  -30.6530 N.ar  302  HIS302     -0.2268
     99  CD2       13.6620   -0.9860  -28.6820 C.ar  302  HIS302      0.1154
    100  CE1       15.2070   -2.0420  -29.8280 C.ar  302  HIS302      0.1986
    101  NE2       14.8930   -1.5940  -28.6230 N.ar  302  HIS302     -0.2212
    102  N          4.6000    0.5750  -23.7550 N.3   307  GLY307     -0.1210
    103  CA         5.6270    0.6460  -22.7350 C.3   307  GLY307      0.1956
    104  C          5.1360    0.1890  -21.3870 C.2   307  GLY307      0.2611
    105  O          4.5200   -0.8730  -21.2560 O.2   307  GLY307     -0.2717
    106  N          5.4260    0.9550  -20.3520 N.am  308  ARG308     -0.1979
    107  CA         4.9670    0.5430  -19.0430 C.3   308  ARG308      0.1597
    108  C          3.4480    0.2620  -19.1020 C.2   308  ARG308      0.2287
    109  O          2.6260    1.1730  -19.3100 O.2   308  ARG308     -0.2864
    110  CB         5.2990    1.5760  -18.0010 C.3   308  ARG308      0.0334
    111  CG         4.7390    1.2630  -16.6260 C.3   308  ARG308      0.0492
    112  CD         5.4090    0.0570  -16.0100 C.3   308  ARG308      0.2205
    113  NE         4.9660   -0.0750  -14.6290 N.pl3 308  ARG308     -0.0865
    114  CZ         5.7460   -0.3430  -13.5870 C.cat 308  ARG308      0.5346
    115  NH1        7.0750   -0.4960  -13.7210 N.pl3 308  ARG308      0.1354
    116  NH2        5.1820   -0.4200  -12.3820 N.pl3 308  ARG308      0.1354
@<TRIPOS>BOND
     1    95    94    2
     2    94    93    1
     3    87    86    2
     4    93    92    1
     5    93    96    1
     6    86    85    1
     7    98    97   ar
     8    98   100   ar
     9    96    97    1
    10    85    84    1
    11    85    88    1
    12    91    89   am
    13    97    99   ar
    14   100   101   ar
    15    88    89    1
    16    89    90    2
    17    80    79    2
    18    99   101   ar
    19    46    45    2
    20    79    78    1
    21    45    44    1
    22    78    77    1
    23    78    81    1
    24    43    44    1
    25    82    81    1
    26    44    47    1
    27    81    83    1
    28    66    65    1
    29    57    58    1
    30    47    48    1
    31    49    48   ar
    32    49    51   ar
    33    58    59    1
    34    58    61    1
    35    48    50   ar
    36    59    60    2
    37    65    67    1
    38    65    64    2
    39    51    52   ar
    40    50    52   ar
    41    50    53   ar
    42    52    54   ar
    43   102   103    1
    44    53    55   ar
    45    63    64    1
    46    63    62    1
    47    54    56   ar
    48    71    70    2
    49    61    62    1
    50    55    56   ar
    51    70    69    1
    52   103   104    1
    53    69    68    1
    54    69    72    1
    55    73    72    1
    56    73    74    1
    57   104   105    2
    58   104   106   am
    59    75    74   ar
    60    74    76   ar
    61     5     2    1
    62     5     6    1
    63     1     2    1
    64   106   107    1
    65     2     3    1
    66     8     6   am
    67     6     7    2
    68   109   108    2
    69    16    14    1
    70   108   107    1
    71   107   110    1
    72    15    14    1
    73     3     4    2
    74    14    13    1
    75   110   111    1
    76    28    27    1
    77    26    27   ar
    78    26    24   ar
    79    27    25   ar
    80    13    10    1
    81    40    42   ar
    82    40    38   ar
    83   111   112    1
    84    37    38   ar
    85    37    35   ar
    86    24    22   ar
    87    10     9    1
    88    10    11    1
    89    42    41   ar
    90    25    23   ar
    91    38    36   ar
    92   112   113    1
    93    22    23   ar
    94    22    21    1
    95    35    34   ar
    96    21    18    1
    97    11    12    2
    98    41    39   ar
    99    36    34   ar
   100    36    39   ar
   101   113   114    2
   102    20    19    2
   103    34    33    1
   104   115   114    1
   105    18    19    1
   106    18    17    1
   107   114   116    1
   108    33    30    1
   109    29    30    1
   110    30    31    1
   111    31    32    2
