@<TRIPOS>MOLECULE
tmp/4c21B00.pdb
 103 99 0 0 0
SMALL
GASTEIGER

@<TRIPOS>ATOM
      1  N        -45.6050   27.4220   36.9360 N.3   200  MET200     -0.1245
      2  CA       -46.3310   26.3130   37.5760 C.3   200  MET200      0.1570
      3  C        -47.8390   26.5280   37.5970 C.2   200  MET200      0.2261
      4  O        -48.4910   26.2680   38.6040 O.2   200  MET200     -0.2867
      5  CB       -45.8460   26.0980   38.9960 C.3   200  MET200      0.0387
      6  CG       -44.3970   25.6650   39.0460 C.3   200  MET200      0.0595
      7  SD       -43.6870   25.5880   40.7040 S.3   200  MET200     -0.1393
      8  CE       -44.0870   27.2190   41.3690 C.3   200  MET200      0.0692
      9  N        -49.7810   29.0660   37.8080 N.3   202  ILE202     -0.1245
     10  CA       -50.2980   29.9970   38.7930 C.3   202  ILE202      0.1561
     11  C        -51.0790   31.1410   38.1490 C.2   202  ILE202      0.2260
     12  O        -50.5560   31.8410   37.2750 O.2   202  ILE202     -0.2867
     13  CB       -49.1640   30.5660   39.6480 C.3   202  ILE202      0.0252
     14  CG1      -48.6780   29.5060   40.6500 C.3   202  ILE202      0.0019
     15  CG2      -49.6150   31.8460   40.3510 C.3   202  ILE202      0.0019
     16  CD1      -47.3170   29.7950   41.2620 C.3   202  ILE202      0.0001
     17  N        -39.3100   28.9710   38.3630 N.3   317  GLN317     -0.1245
     18  CA       -39.8840   27.6360   38.2280 C.3   317  GLN317      0.1566
     19  C        -40.8320   27.5540   37.0350 C.2   317  GLN317      0.2260
     20  O        -41.5540   28.5240   36.7660 O.2   317  GLN317     -0.2867
     21  CB       -40.6280   27.2640   39.5020 C.3   317  GLN317      0.0367
     22  CG       -39.7220   27.2590   40.7190 C.3   317  GLN317      0.0905
     23  CD       -40.4770   27.0600   42.0250 C.2   317  GLN317      0.2608
     24  OE1      -40.7370   25.9210   42.4320 O.2   317  GLN317     -0.2717
     25  NE2      -40.8050   28.1790   42.7100 N.am  317  GLN317     -0.0878
     26  N        -42.2320   34.3380   41.0320 N.3   352  GLU352     -0.1245
     27  CA       -43.0100   33.4580   40.1760 C.3   352  GLU352      0.1567
     28  C        -43.8150   34.1740   39.0970 C.2   352  GLU352      0.2260
     29  O        -44.7970   33.6160   38.5600 O.2   352  GLU352     -0.2867
     30  CB       -43.8980   32.5460   40.9930 C.3   352  GLU352      0.0388
     31  CG       -43.1560   31.3860   41.6300 C.3   352  GLU352      0.1160
     32  CD       -43.8210   30.8730   42.9020 C.2   352  GLU352      0.3649
     33  OE1      -45.0390   31.1070   43.0550 O.co2 352  GLU352     -0.2457
     34  OE2      -43.1360   30.2410   43.7620 O.co2 352  GLU352     -0.2457
     35  N        -46.1620   33.6030   50.4540 N.3   376  ASP376     -0.1239
     36  CA       -47.1800   32.5540   50.4210 C.3   376  ASP376      0.1674
     37  C        -47.9350   32.6100   51.7330 C.2   376  ASP376      0.2266
     38  O        -47.3500   32.7950   52.8000 O.2   376  ASP376     -0.2867
     39  CB       -46.5640   31.1580   50.2880 C.3   376  ASP376      0.1410
     40  CG       -45.9090   30.9020   48.9320 C.2   376  ASP376      0.3668
     41  OD1      -46.2940   31.4850   47.9170 O.co2 376  ASP376     -0.2456
     42  OD2      -44.9980   30.0560   48.8640 O.co2 376  ASP376     -0.2456
     43  N        -41.5530   31.2920   49.0970 N.3   408  SER408     -0.1217
     44  CA       -40.6530   30.1920   48.7350 C.3   408  SER408      0.1889
     45  C        -39.2200   30.6480   48.3610 C.2   408  SER408      0.2288
     46  O        -38.6080   30.1490   47.4060 O.2   408  SER408     -0.2866
     47  CB       -41.2770   29.3550   47.6230 C.3   408  SER408      0.2089
     48  OG       -41.4510   30.1550   46.4610 O.3   408  SER408     -0.2183
     49  N        -36.2140   20.7750   44.9870 N.3   454  TYR454     -0.1227
     50  CA       -37.1250   21.7220   44.3400 C.3   454  TYR454      0.1736
     51  C        -36.4150   22.6260   43.3320 C.2   454  TYR454      0.2595
     52  O        -37.0080   23.0550   42.3590 O.2   454  TYR454     -0.2718
     53  CB       -37.7340   22.6590   45.3790 C.3   454  TYR454      0.0548
     54  CG       -38.8420   22.1160   46.2550 C.ar  454  TYR454     -0.0200
     55  CD1      -39.8090   21.2440   45.7650 C.ar  454  TYR454     -0.0009
     56  CD2      -38.9570   22.5560   47.5720 C.ar  454  TYR454     -0.0009
     57  CE1      -40.8440   20.8050   46.5730 C.ar  454  TYR454      0.0417
     58  CE2      -39.9970   22.1510   48.3850 C.ar  454  TYR454      0.0417
     59  CZ       -40.9350   21.2690   47.8870 C.ar  454  TYR454      0.1957
     60  OH       -41.9590   20.8680   48.7270 O.3   454  TYR454     -0.2866
     61  N        -35.1810   23.0090   43.6340 N.am  455  PHE455     -0.1976
     62  CA       -34.4470   23.9760   42.8330 C.3   455  PHE455      0.1639
     63  C        -33.1110   23.3810   42.3860 C.2   455  PHE455      0.2290
     64  O        -32.0410   23.7900   42.8770 O.2   455  PHE455     -0.2864
     65  CB       -34.1970   25.2300   43.6480 C.3   455  PHE455      0.0560
     66  CG       -35.4340   25.8420   44.1970 C.ar  455  PHE455     -0.0200
     67  CD1      -36.2920   26.5650   43.3790 C.ar  455  PHE455     -0.0042
     68  CD2      -35.7490   25.7090   45.5470 C.ar  455  PHE455     -0.0042
     69  CE1      -37.4520   27.1260   43.8990 C.ar  455  PHE455     -0.0003
     70  CE2      -36.8960   26.2750   46.0770 C.ar  455  PHE455     -0.0003
     71  CZ       -37.7580   26.9850   45.2520 C.ar  455  PHE455     -0.0000
     72  N        -36.5670   29.4980   54.5740 N.3   513  TRP513     -0.1241
     73  CA       -37.2370   30.6620   53.9600 C.3   513  TRP513      0.1605
     74  C        -37.5640   31.7470   55.0010 C.2   513  TRP513      0.2264
     75  O        -37.3210   31.5610   56.1860 O.2   513  TRP513     -0.2867
     76  CB       -38.4740   30.2270   53.1620 C.3   513  TRP513      0.0550
     77  CG       -38.1830   29.2220   52.0630 C.ar  513  TRP513      0.0003
     78  CD1      -36.9630   28.9710   51.4770 C.ar  513  TRP513      0.0946
     79  CD2      -39.1320   28.3510   51.3990 C.ar  513  TRP513      0.0152
     80  NE1      -37.0920   27.9850   50.5190 N.ar  513  TRP513     -0.2442
     81  CE2      -38.4060   27.5860   50.4500 C.ar  513  TRP513      0.0810
     82  CE3      -40.5160   28.1400   51.5190 C.ar  513  TRP513      0.0012
     83  CZ2      -39.0240   26.6350   49.6130 C.ar  513  TRP513      0.0191
     84  CZ3      -41.1350   27.1720   50.6910 C.ar  513  TRP513      0.0001
     85  CH2      -40.3790   26.4250   49.7720 C.ar  513  TRP513      0.0015
     86  N        -52.8800   32.1080   46.6940 N.3   541  ASN541     -0.1225
     87  CA       -51.8310   31.6560   47.6040 C.3   541  ASN541      0.1785
     88  C        -50.8800   32.7670   47.9860 C.2   541  ASN541      0.2597
     89  O        -50.1240   32.6050   48.9270 O.2   541  ASN541     -0.2718
     90  CB       -51.0380   30.4760   47.0230 C.3   541  ASN541      0.1169
     91  CG       -50.3740   30.8230   45.7140 C.2   541  ASN541      0.2627
     92  OD1      -51.0120   31.3600   44.7710 O.2   541  ASN541     -0.2716
     93  ND2      -49.0850   30.5570   45.6450 N.am  541  ASN541     -0.0877
     94  N        -50.9050   33.8930   47.2740 N.am  542  HIS542     -0.1975
     95  CA       -50.0040   34.9940   47.6340 C.3   542  HIS542      0.1656
     96  C        -50.6410   36.1800   48.3260 C.2   542  HIS542      0.2291
     97  O        -51.8260   36.4680   48.1460 O.2   542  HIS542     -0.2864
     98  CB       -49.1780   35.4740   46.4420 C.3   542  HIS542      0.0771
     99  CG       -48.2270   34.4420   45.9070 C.ar  542  HIS542      0.0820
    100  ND1      -48.0500   34.2160   44.5550 N.ar  542  HIS542     -0.2267
    101  CD2      -47.3750   33.6050   46.5410 C.ar  542  HIS542      0.1154
    102  CE1      -47.1410   33.2740   44.3810 C.ar  542  HIS542      0.1986
    103  NE2      -46.7070   32.8950   45.5700 N.ar  542  HIS542     -0.2212
@<TRIPOS>BOND
     1    20    19    2
     2     1     2    1
     3    19    18    1
     4    12    11    2
     5     2     3    1
     6     2     5    1
     7     3     4    2
     8     9    10    1
     9    11    10    1
    10    18    17    1
    11    18    21    1
    12    29    28    2
    13    10    13    1
    14     5     6    1
    15     6     7    1
    16    28    27    1
    17    21    22    1
    18    13    15    1
    19    13    14    1
    20    27    30    1
    21    27    26    1
    22    14    16    1
    23     7     8    1
    24    22    23    1
    25    30    31    1
    26    31    32    1
    27    23    24    2
    28    23    25   am
    29    52    51    2
    30    63    62    1
    31    63    64    2
    32    62    61    1
    33    62    65    1
    34    32    33   ar
    35    32    34   ar
    36    51    61   am
    37    51    50    1
    38    67    69   ar
    39    67    66   ar
    40    65    66    1
    41    69    71   ar
    42    66    68   ar
    43    50    49    1
    44    50    53    1
    45   102   100   ar
    46   102   103   ar
    47   100    99   ar
    48    92    91    2
    49    71    70   ar
    50    53    54    1
    51    68    70   ar
    52   103   101   ar
    53    93    91   am
    54    91    90    1
    55    55    54   ar
    56    55    57   ar
    57    99    98    1
    58    99   101   ar
    59    54    56   ar
    60    98    95    1
    61    48    47    1
    62    57    59   ar
    63    86    87    1
    64    90    87    1
    65    94    95    1
    66    94    88   am
    67    46    45    2
    68    56    58   ar
    69    87    88    1
    70    47    44    1
    71    95    96    1
    72    59    58   ar
    73    59    60    1
    74    41    40   ar
    75    88    89    2
    76    97    96    2
    77    45    44    1
    78    44    43    1
    79    42    40   ar
    80    40    39    1
    81    83    85   ar
    82    83    81   ar
    83    85    84   ar
    84    39    36    1
    85    36    35    1
    86    36    37    1
    87    81    80   ar
    88    81    79   ar
    89    80    78   ar
    90    84    82   ar
    91    79    82   ar
    92    79    77   ar
    93    78    77   ar
    94    37    38    2
    95    77    76    1
    96    76    73    1
    97    73    72    1
    98    73    74    1
    99    74    75    2
