@<TRIPOS>MOLECULE
tmp/4c22A00.pdb
 108 107 0 0 0
SMALL
GASTEIGER

@<TRIPOS>ATOM
      1  N        -28.2540   11.3540    8.5790 N.3   230  TRP230     -0.1241
      2  CA       -29.3450   11.5870    7.6210 C.3   230  TRP230      0.1605
      3  C        -29.3360   13.0190    7.0350 C.2   230  TRP230      0.2264
      4  O        -29.6150   13.2300    5.8440 O.2   230  TRP230     -0.2867
      5  CB       -30.7000   11.2710    8.2810 C.3   230  TRP230      0.0550
      6  CG       -31.8970   11.4090    7.3450 C.ar  230  TRP230      0.0003
      7  CD1      -32.4630   10.4200    6.5700 C.ar  230  TRP230      0.0946
      8  CD2      -32.6720   12.5980    7.1020 C.ar  230  TRP230      0.0152
      9  NE1      -33.5220   10.9260    5.8540 N.ar  230  TRP230     -0.2442
     10  CE2      -33.6740   12.2580    6.1590 C.ar  230  TRP230      0.0810
     11  CE3      -32.6070   13.9170    7.5780 C.ar  230  TRP230      0.0012
     12  CZ2      -34.6110   13.1980    5.6810 C.ar  230  TRP230      0.0191
     13  CZ3      -33.5370   14.8450    7.1120 C.ar  230  TRP230      0.0001
     14  CH2      -34.5340   14.4720    6.1660 C.ar  230  TRP230      0.0015
     15  N        -28.8880   14.2730    3.2130 N.3   234  ASN234     -0.1240
     16  CA       -30.1480   14.7100    2.5960 C.3   234  ASN234      0.1653
     17  C        -30.3840   16.2050    2.5060 C.2   234  ASN234      0.2266
     18  O        -31.1100   16.6600    1.6160 O.2   234  ASN234     -0.2867
     19  CB       -31.3270   14.0600    3.3020 C.3   234  ASN234      0.1155
     20  CG       -31.4560   12.5840    2.9700 C.2   234  ASN234      0.2627
     21  OD1      -31.9000   12.2100    1.8740 O.2   234  ASN234     -0.2716
     22  ND2      -31.0730   11.7340    3.9190 N.am  234  ASN234     -0.0877
     23  N        -41.7090   14.3010    7.1110 N.3   320  PHE320     -0.1227
     24  CA       -40.6690   13.2650    7.2250 C.3   320  PHE320      0.1736
     25  C        -39.4240   13.8000    7.9050 C.2   320  PHE320      0.2595
     26  O        -39.2090   15.0140    7.9790 O.2   320  PHE320     -0.2718
     27  CB       -40.2700   12.7250    5.8510 C.3   320  PHE320      0.0547
     28  CG       -39.8420   13.7990    4.8980 C.ar  320  PHE320     -0.0202
     29  CD1      -40.7820   14.4650    4.0990 C.ar  320  PHE320     -0.0042
     30  CD2      -38.4960   14.1850    4.8130 C.ar  320  PHE320     -0.0042
     31  CE1      -40.3940   15.4760    3.2300 C.ar  320  PHE320     -0.0003
     32  CE2      -38.1120   15.2070    3.9480 C.ar  320  PHE320     -0.0003
     33  CZ       -39.0630   15.8500    3.1590 C.ar  320  PHE320     -0.0000
     34  N        -38.5910   12.8840    8.3810 N.am  321  ASP321     -0.1960
     35  CA       -37.2350   13.2150    8.7820 C.3   321  ASP321      0.1840
     36  C        -36.4580   11.9180    8.8260 C.2   321  ASP321      0.2622
     37  O        -36.8850   10.9100    8.2640 O.2   321  ASP321     -0.2715
     38  CB       -37.2290   13.8930   10.1390 C.3   321  ASP321      0.1450
     39  CG       -38.1310   13.1950   11.1270 C.2   321  ASP321      0.3671
     40  OD1      -38.1280   11.9430   11.1220 O.co2 321  ASP321     -0.2456
     41  OD2      -38.8580   13.8800   11.8920 O.co2 321  ASP321     -0.2456
     42  N        -35.3300   11.9210    9.5120 N.am  322  TRP322     -0.1960
     43  CA       -34.5390   10.7020    9.6540 C.3   322  TRP322      0.1771
     44  C        -35.2890    9.4820   10.1790 C.2   322  TRP322      0.2620
     45  O        -34.7910    8.3710   10.1230 O.2   322  TRP322     -0.2715
     46  CB       -33.3370   10.9760   10.5400 C.3   322  TRP322      0.0590
     47  CG       -33.6710   11.7290   11.7280 C.ar  322  TRP322      0.0006
     48  CD1      -34.0160   11.2260   12.9470 C.ar  322  TRP322      0.0946
     49  CD2      -33.7210   13.1480   11.8460 C.ar  322  TRP322      0.0152
     50  NE1      -34.2470   12.2530   13.8390 N.ar  322  TRP322     -0.2442
     51  CE2      -34.0880   13.4450   13.1850 C.ar  322  TRP322      0.0810
     52  CE3      -33.4840   14.2010   10.9610 C.ar  322  TRP322      0.0012
     53  CZ2      -34.2310   14.7400   13.6470 C.ar  322  TRP322      0.0191
     54  CZ3      -33.6220   15.5090   11.4320 C.ar  322  TRP322      0.0001
     55  CH2      -33.9950   15.7600   12.7570 C.ar  322  TRP322      0.0015
     56  N        -36.4840    9.6770   10.7060 N.am  323  ASN323     -0.1958
     57  CA       -37.2700    8.5510   11.2050 C.3   323  ASN323      0.1819
     58  C        -38.3280    8.0730   10.1970 C.2   323  ASN323      0.2622
     59  O        -39.0740    7.1430   10.4740 O.2   323  ASN323     -0.2715
     60  CB       -37.8850    8.8830   12.5820 C.3   323  ASN323      0.1195
     61  CG       -36.8290    9.0600   13.6650 C.2   323  ASN323      0.2630
     62  OD1      -35.9740    8.1980   13.8610 O.2   323  ASN323     -0.2716
     63  ND2      -36.8730   10.1820   14.3620 N.am  323  ASN323     -0.0877
     64  N        -38.4050    8.6940    9.0260 N.am  324  GLY324     -0.1940
     65  CA       -39.4080    8.2810    8.0480 C.3   324  GLY324      0.2014
     66  C        -40.5540    9.2560    7.8840 C.2   324  GLY324      0.2638
     67  O        -40.6570   10.2320    8.6030 O.2   324  GLY324     -0.2714
     68  N        -41.3970    8.9880    6.8990 N.am  325  ILE325     -0.1977
     69  CA       -42.5690    9.7850    6.5790 C.3   325  ILE325      0.1596
     70  C        -43.5540    9.7380    7.7560 C.2   325  ILE325      0.2287
     71  O        -43.7380    8.6920    8.3710 O.2   325  ILE325     -0.2864
     72  CB       -43.1840    9.2230    5.2740 C.3   325  ILE325      0.0276
     73  CG1      -42.1400    9.2930    4.1390 C.3   325  ILE325      0.0022
     74  CG2      -44.4630    9.9560    4.8780 C.3   325  ILE325      0.0022
     75  CD1      -42.6430    8.8460    2.7820 C.3   325  ILE325      0.0001
     76  N        -41.8920    8.0830   -1.9560 N.3   417  GLU417     -0.1245
     77  CA       -40.4200    8.2050   -1.9140 C.3   417  GLU417      0.1567
     78  C        -39.7870    9.2510   -2.8190 C.2   417  GLU417      0.2260
     79  O        -38.9630   10.0590   -2.3790 O.2   417  GLU417     -0.2867
     80  CB       -39.7900    6.8690   -2.3070 C.3   417  GLU417      0.0388
     81  CG       -39.2570    6.0930   -1.1320 C.3   417  GLU417      0.1160
     82  CD       -38.6060    7.0100   -0.1170 C.2   417  GLU417      0.3649
     83  OE1      -37.7330    7.8290   -0.5060 O.co2 417  GLU417     -0.2457
     84  OE2      -38.9950    6.9180    1.0690 O.co2 417  GLU417     -0.2457
     85  N        -40.8490   12.8080   -1.7240 N.3   420  VAL420     -0.1231
     86  CA       -40.0560   13.2340   -0.5950 C.3   420  VAL420      0.1692
     87  C        -38.6580   13.6530   -1.0830 C.2   420  VAL420      0.2591
     88  O        -38.1760   14.7430   -0.7480 O.2   420  VAL420     -0.2718
     89  CB       -40.0190   12.1020    0.4700 C.3   420  VAL420      0.0266
     90  CG1      -38.9750   12.3450    1.5370 C.3   420  VAL420      0.0020
     91  CG2      -41.3930   11.9470    1.0870 C.3   420  VAL420      0.0020
     92  N        -38.0340   12.8000   -1.8960 N.am  421  GLN421     -0.1979
     93  CA       -36.7320   13.0980   -2.5020 C.3   421  GLN421      0.1601
     94  C        -36.7420   14.4240   -3.2680 C.2   421  GLN421      0.2287
     95  O        -35.8260   15.2370   -3.1140 O.2   421  GLN421     -0.2864
     96  CB       -36.2580   11.9400   -3.3940 C.3   421  GLN421      0.0394
     97  CG       -35.8470   10.6610   -2.6380 C.3   421  GLN421      0.0908
     98  CD       -34.5810   10.7800   -1.7420 C.2   421  GLN421      0.2608
     99  OE1      -34.3820    9.9610   -0.8230 O.2   421  GLN421     -0.2717
    100  NE2      -33.7220   11.7870   -2.0070 N.am  421  GLN421     -0.0878
    101  N        -36.6890   17.4560   -0.9400 N.3   424  LEU424     -0.1245
    102  CA       -35.3150   17.6200   -0.5280 C.3   424  LEU424      0.1561
    103  C        -34.4670   18.2420   -1.6150 C.2   424  LEU424      0.2260
    104  O        -33.7690   19.2120   -1.3360 O.2   424  LEU424     -0.2867
    105  CB       -34.7220   16.3030   -0.0470 C.3   424  LEU424      0.0270
    106  CG       -35.2600   15.9740    1.3510 C.3   424  LEU424      0.0019
    107  CD1      -34.7950   14.5960    1.7690 C.3   424  LEU424      0.0001
    108  CD2      -34.8280   17.0180    2.3710 C.3   424  LEU424      0.0001
@<TRIPOS>BOND
     1    96    97    1
     2    96    93    1
     3    94    95    2
     4    94    93    1
     5    78    79    2
     6    78    77    1
     7    97    98    1
     8    93    92    1
     9    80    77    1
    10    80    81    1
    11   100    98   am
    12    76    77    1
    13    92    87   am
    14    98    99    2
    15    85    86    1
    16   103   104    2
    17   103   102    1
    18    81    82    1
    19    87    88    2
    20    87    86    1
    21   101   102    1
    22    86    89    1
    23   102   105    1
    24    83    82   ar
    25    82    84   ar
    26   105   106    1
    27    89    91    1
    28    89    90    1
    29   106   107    1
    30   106   108    1
    31    18    17    2
    32    21    20    2
    33    17    16    1
    34    16    15    1
    35    16    19    1
    36    75    73    1
    37    20    19    1
    38    20    22   am
    39    33    31   ar
    40    33    32   ar
    41    31    29   ar
    42    32    30   ar
    43    29    28   ar
    44    73    72    1
    45    30    28   ar
    46    74    72    1
    47    28    27    1
    48    72    69    1
    49    12    10   ar
    50    12    14   ar
    51     4     3    2
    52    27    24    1
    53     9    10   ar
    54     9     7   ar
    55    10     8   ar
    56    14    13   ar
    57     7     6   ar
    58    69    68    1
    59    69    70    1
    60    68    66   am
    61     3     2    1
    62     8     6   ar
    63     8    11   ar
    64    23    24    1
    65    13    11   ar
    66    24    25    1
    67     6     5    1
    68     2     5    1
    69     2     1    1
    70    70    71    2
    71    66    65    1
    72    66    67    2
    73    25    26    2
    74    25    34   am
    75    65    64    1
    76    37    36    2
    77    34    35    1
    78    35    36    1
    79    35    38    1
    80    36    42   am
    81    64    58   am
    82    42    43    1
    83    43    44    1
    84    43    46    1
    85    45    44    2
    86    38    39    1
    87    44    56   am
    88    58    59    2
    89    58    57    1
    90    46    47    1
    91    56    57    1
    92    52    54   ar
    93    52    49   ar
    94    40    39   ar
    95    39    41   ar
    96    57    60    1
    97    54    55   ar
    98    47    49   ar
    99    47    48   ar
   100    49    51   ar
   101    60    61    1
   102    55    53   ar
   103    48    50   ar
   104    51    53   ar
   105    51    50   ar
   106    61    62    2
   107    61    63   am
