@<TRIPOS>MOLECULE
tmp/4c25A00.pdb
 110 108 0 0 0
SMALL
GASTEIGER

@<TRIPOS>ATOM
      1  N          6.5800   16.2570  -14.9350 N.3    29  THR29      -0.1203
      2  CA         6.7350   17.5590  -14.2630 C.3    29  THR29       0.1994
      3  C          7.9170   17.5950  -13.2870 C.2    29  THR29       0.2618
      4  O          8.1110   16.6660  -12.4810 O.2    29  THR29      -0.2717
      5  CB         5.4330   17.9860  -13.5350 C.3    29  THR29       0.1784
      6  OG1        4.2990   17.7640  -14.3890 O.3    29  THR29      -0.2211
      7  CG2        5.4810   19.4660  -13.1260 C.3    29  THR29       0.0376
      8  N          8.7100   18.6660  -13.3910 N.am   30  GLY30      -0.1942
      9  CA         9.8030   18.9600  -12.4550 C.3    30  GLY30       0.2014
     10  C         11.0090   18.0620  -12.6280 C.2    30  GLY30       0.2639
     11  O         12.0190   18.2180  -11.9380 O.2    30  GLY30      -0.2714
     12  N         10.8810   17.1050  -13.5440 N.am   31  GLY31      -0.1939
     13  CA        11.9760   16.2320  -13.9330 C.3    31  GLY31       0.2014
     14  C         12.8160   16.9010  -14.9960 C.2    31  GLY31       0.2638
     15  O         12.3390   17.7600  -15.7220 O.2    31  GLY31      -0.2714
     16  N         14.0820   16.5190  -15.0560 N.am   32  ASN32      -0.1972
     17  CA        15.0630   17.1140  -15.9870 C.3    32  ASN32       0.1688
     18  C         16.2660   16.2100  -16.1290 C.2    32  ASN32       0.2292
     19  O         16.6400   15.4760  -15.1830 O.2    32  ASN32      -0.2864
     20  CB        15.5240   18.5640  -15.5660 C.3    32  ASN32       0.1181
     21  CG        15.2440   18.9040  -14.0690 C.2    32  ASN32       0.2629
     22  OD1       14.2220   19.5230  -13.7380 O.2    32  ASN32      -0.2716
     23  ND2       16.1390   18.5090  -13.1800 N.am   32  ASN32      -0.0877
     24  N         17.9050   19.6660  -20.3840 N.3    46  THR46      -0.1204
     25  CA        16.5240   19.8240  -20.8720 C.3    46  THR46       0.1979
     26  C         15.9730   21.2550  -20.6000 C.2    46  THR46       0.2460
     27  O         16.3920   21.8950  -19.6230 O.2    46  THR46      -0.2732
     28  CB        15.5760   18.7000  -20.3220 C.3    46  THR46       0.1783
     29  OG1       15.7030   18.5570  -18.8920 O.3    46  THR46      -0.2211
     30  CG2       15.9200   17.3860  -20.9260 C.3    46  THR46       0.0376
     31  N         15.0450   21.7670  -21.4550 N.am   47  PRO47      -0.2717
     32  CA        14.4730   23.1000  -21.1970 C.3    47  PRO47       0.1536
     33  C         13.5070   23.1240  -20.0290 C.2    47  PRO47       0.2599
     34  O         13.0310   22.0860  -19.6240 O.2    47  PRO47      -0.2715
     35  CB        13.6800   23.3960  -22.4920 C.3    47  PRO47       0.0310
     36  CG        13.3430   22.0460  -23.0140 C.3    47  PRO47       0.0237
     37  CD        14.6010   21.2530  -22.7680 C.3    47  PRO47       0.0939
     38  N         13.2040   24.3120  -19.5140 N.am   48  SER48      -0.1936
     39  CA        12.1640   24.5080  -18.5010 C.3    48  SER48       0.2055
     40  C         10.7210   24.3310  -19.0080 C.2    48  SER48       0.2643
     41  O         10.3630   24.8190  -20.0850 O.2    48  SER48      -0.2714
     42  CB        12.2790   25.9070  -17.8940 C.3    48  SER48       0.2130
     43  OG        11.4440   25.9990  -16.7530 O.3    48  SER48      -0.2179
     44  N          9.9090   23.6460  -18.2040 N.am   49  GLY49      -0.1954
     45  CA         8.4470   23.6030  -18.3750 C.3    49  GLY49       0.1869
     46  C          7.9480   23.0620  -19.7090 C.2    49  GLY49       0.2309
     47  O          6.8370   23.3900  -20.1410 O.2    49  GLY49      -0.2863
     48  N         16.2810   24.1220  -17.7250 N.3    77  SER77      -0.1202
     49  CA        15.5660   23.5960  -16.5530 C.3    77  SER77       0.2020
     50  C         15.8230   24.4850  -15.3130 C.2    77  SER77       0.2619
     51  O         16.9420   24.9050  -15.0700 O.2    77  SER77      -0.2717
     52  CB        16.0360   22.1640  -16.2860 C.3    77  SER77       0.2103
     53  OG        16.0930   21.9100  -14.8820 O.3    77  SER77      -0.2182
     54  N         14.7780   24.7770  -14.5490 N.am   78  SER78      -0.1937
     55  CA        14.9490   25.4910  -13.2850 C.3    78  SER78       0.2055
     56  C         15.9820   24.8450  -12.3340 C.2    78  SER78       0.2642
     57  O         16.4140   25.4740  -11.3770 O.2    78  SER78      -0.2714
     58  CB        13.6020   25.6920  -12.5730 C.3    78  SER78       0.2130
     59  OG        13.3350   24.6270  -11.6870 O.3    78  SER78      -0.2179
     60  N         16.3660   23.6010  -12.6020 N.am   79  GLU79      -0.1976
     61  CA        17.3410   22.9100  -11.7760 C.3    79  GLU79       0.1602
     62  C         18.7430   22.8060  -12.4280 C.2    79  GLU79       0.2287
     63  O         19.5850   22.0170  -11.9780 O.2    79  GLU79      -0.2864
     64  CB        16.8170   21.5200  -11.3940 C.3    79  GLU79       0.0415
     65  CG        15.5090   21.5260  -10.5870 C.3    79  GLU79       0.1163
     66  CD        15.6710   21.9980   -9.1330 C.2    79  GLU79       0.3649
     67  OE1       16.7050   22.6220   -8.7950 O.co2  79  GLU79      -0.2457
     68  OE2       14.7430   21.7520   -8.3150 O.co2  79  GLU79      -0.2457
     69  N         17.0720   13.9730  -12.8980 N.3    98  HIS98      -0.1241
     70  CA        16.1540   14.3450  -11.8260 C.3    98  HIS98       0.1621
     71  C         14.7290   13.8780  -12.1660 C.2    98  HIS98       0.2264
     72  O         14.2710   13.9380  -13.3330 O.2    98  HIS98      -0.2867
     73  CB        16.1540   15.8660  -11.6480 C.3    98  HIS98       0.0745
     74  CG        15.1610   16.3650  -10.6450 C.ar   98  HIS98       0.0817
     75  ND1       15.1520   15.9420   -9.3290 N.ar   98  HIS98      -0.2268
     76  CD2       14.1440   17.2520  -10.7670 C.ar   98  HIS98       0.1154
     77  CE1       14.1610   16.5460   -8.6860 C.ar   98  HIS98       0.1986
     78  NE2       13.5340   17.3460   -9.5380 N.ar   98  HIS98      -0.2212
     79  N         10.6100   13.0740  -10.1480 N.3   100  HIS100     -0.1241
     80  CA         9.6610   12.8830   -9.0420 C.3   100  HIS100      0.1621
     81  C          8.9800   11.5220   -9.2370 C.2   100  HIS100      0.2264
     82  O          7.9690   11.4150   -9.9560 O.2   100  HIS100     -0.2867
     83  CB         8.6010   13.9920   -9.0050 C.3   100  HIS100      0.0745
     84  CG         9.1640   15.3820   -9.0410 C.ar  100  HIS100      0.0817
     85  ND1        8.3650   16.5000   -9.1300 N.ar  100  HIS100     -0.2268
     86  CD2       10.4410   15.8340   -9.0340 C.ar  100  HIS100      0.1154
     87  CE1        9.1220   17.5780   -9.1750 C.ar  100  HIS100      0.1986
     88  NE2       10.3870   17.2020   -9.1280 N.ar  100  HIS100     -0.2212
     89  N         12.7850   24.2830   -4.6380 N.3   136  TYR136     -0.1241
     90  CA        13.2270   23.8650   -5.9670 C.3   136  TYR136      0.1605
     91  C         13.9110   25.0350   -6.6310 C.2   136  TYR136      0.2264
     92  O         13.5780   26.1890   -6.3300 O.2   136  TYR136     -0.2867
     93  CB        12.0750   23.3890   -6.8510 C.3   136  TYR136      0.0534
     94  CG        11.2530   24.4820   -7.5050 C.ar  136  TYR136     -0.0201
     95  CD1       10.1840   25.0930   -6.8220 C.ar  136  TYR136     -0.0009
     96  CD2       11.5240   24.8960   -8.8140 C.ar  136  TYR136     -0.0009
     97  CE1        9.4200   26.0950   -7.4300 C.ar  136  TYR136      0.0417
     98  CE2       10.7780   25.8960   -9.4260 C.ar  136  TYR136      0.0417
     99  CZ         9.7290   26.4930   -8.7260 C.ar  136  TYR136      0.1957
    100  OH         8.9790   27.4720   -9.3460 O.3   136  TYR136     -0.2866
    101  N         10.5150   16.2870   -2.2820 N.3   160  HIS160     -0.1241
    102  CA        10.6880   16.7050   -3.6850 C.3   160  HIS160      0.1621
    103  C         10.8560   15.5740   -4.7060 C.2   160  HIS160      0.2264
    104  O         10.0560   15.4250   -5.6380 O.2   160  HIS160     -0.2867
    105  CB        11.9190   17.6270   -3.7740 C.3   160  HIS160      0.0745
    106  CG        12.1310   18.2220   -5.1240 C.ar  160  HIS160      0.0817
    107  ND1       12.8440   19.3860   -5.3110 N.ar  160  HIS160     -0.2268
    108  CD2       11.6890   17.8480   -6.3520 C.ar  160  HIS160      0.1154
    109  CE1       12.8350   19.6950   -6.6050 C.ar  160  HIS160      0.1986
    110  NE2       12.1500   18.7720   -7.2580 N.ar  160  HIS160     -0.2212
@<TRIPOS>BOND
     1    36    37    1
     2    36    35    1
     3    37    31    1
     4    35    32    1
     5    31    32    1
     6    31    26   am
     7    32    33    1
     8    30    28    1
     9    25    26    1
    10    25    24    1
    11    25    28    1
    12    26    27    2
    13    28    29    1
    14    47    46    2
    15    41    40    2
    16    33    34    2
    17    33    38   am
    18    46    45    1
    19    38    39    1
    20    40    39    1
    21    40    44   am
    22    39    42    1
    23    45    44    1
    24    42    43    1
    25    48    49    1
    26    49    52    1
    27    49    50    1
    28    52    53    1
    29    18    17    1
    30    18    19    2
    31    17    20    1
    32    17    16    1
    33    15    14    2
    34    20    21    1
    35    50    51    2
    36    50    54   am
    37    16    14   am
    38    14    13    1
    39     1     2    1
    40    54    55    1
    41     6     5    1
    42     2     5    1
    43     2     3    1
    44    21    22    2
    45    21    23   am
    46    13    12    1
    47    12    10   am
    48     5     7    1
    49     8     3   am
    50     8     9    1
    51    72    71    2
    52     3     4    2
    53    55    58    1
    54    55    56    1
    55    69    70    1
    56    10     9    1
    57    10    11    2
    58    60    56   am
    59    60    61    1
    60    58    59    1
    61    62    63    2
    62    62    61    1
    63    56    57    2
    64    71    70    1
    65    70    73    1
    66    61    64    1
    67    73    74    1
    68    64    65    1
    69    76    74   ar
    70    76    78   ar
    71    74    75   ar
    72    65    66    1
    73    79    80    1
    74    82    81    2
    75    78    77   ar
    76    98    96   ar
    77    98    99   ar
    78   100    99    1
    79    75    77   ar
    80    81    80    1
    81    87    85   ar
    82    87    88   ar
    83    66    67   ar
    84    66    68   ar
    85    85    84   ar
    86    88    86   ar
    87    80    83    1
    88    84    86   ar
    89    84    83    1
    90    96    94   ar
    91    99    97   ar
    92    94    93    1
    93    94    95   ar
    94    97    95   ar
    95   110   109   ar
    96   110   108   ar
    97    93    90    1
    98    91    92    2
    99    91    90    1
   100   109   107   ar
   101   108   106   ar
   102    90    89    1
   103   104   103    2
   104   107   106   ar
   105   106   105    1
   106   103   102    1
   107   105   102    1
   108   102   101    1
