@<TRIPOS>MOLECULE
tmp/4c28A01.pdb
 217 206 0 0 0
SMALL
GASTEIGER

@<TRIPOS>ATOM
      1  N          6.9140   20.3540  -21.2440 N.3    17  ILE17      -0.1245
      2  CA         5.5510   20.4950  -21.7420 C.3    17  ILE17       0.1561
      3  C          5.5090   20.6000  -23.2720 C.2    17  ILE17       0.2260
      4  O          4.5870   20.0250  -23.9340 O.2    17  ILE17      -0.2867
      5  CB         4.8350   21.7130  -21.1370 C.3    17  ILE17       0.0252
      6  CG1        4.3390   21.3830  -19.7280 C.3    17  ILE17       0.0019
      7  CG2        3.6090   22.1510  -21.9780 C.3    17  ILE17       0.0019
      8  CD1        4.0100   22.6310  -18.9410 C.3    17  ILE17       0.0001
      9  N          6.5520   16.9920  -24.8620 N.3    20  PHE20      -0.1227
     10  CA         5.6080   15.9600  -24.4550 C.3    20  PHE20       0.1736
     11  C          4.1800   16.2370  -24.9720 C.2    20  PHE20       0.2596
     12  O          3.4560   15.3050  -25.3520 O.2    20  PHE20      -0.2718
     13  CB         5.6380   15.7740  -22.9390 C.3    20  PHE20       0.0547
     14  CG         4.8310   14.5900  -22.4400 C.ar   20  PHE20      -0.0202
     15  CD1        5.2080   13.3030  -22.7640 C.ar   20  PHE20      -0.0042
     16  CD2        3.7720   14.7720  -21.5890 C.ar   20  PHE20      -0.0042
     17  CE1        4.4970   12.2170  -22.2890 C.ar   20  PHE20      -0.0003
     18  CE2        3.0380   13.6960  -21.1170 C.ar   20  PHE20      -0.0003
     19  CZ         3.4010   12.3800  -21.4770 C.ar   20  PHE20      -0.0000
     20  N          3.7690   17.5040  -24.9060 N.am   21  GLY21      -0.1957
     21  CA         2.4900   17.9560  -25.4900 C.3    21  GLY21       0.1869
     22  C          2.3790   17.6830  -26.9810 C.2    21  GLY21       0.2309
     23  O          1.4190   17.0720  -27.4630 O.2    21  GLY21      -0.2863
     24  N          6.5970   18.0560  -15.9190 N.3    44  ILE44      -0.1245
     25  CA         5.4830   18.8090  -16.4910 C.3    44  ILE44       0.1561
     26  C          5.1740   20.0110  -15.6180 C.2    44  ILE44       0.2260
     27  O          4.5800   19.8500  -14.5430 O.2    44  ILE44      -0.2867
     28  CB         4.2880   17.9230  -16.6710 C.3    44  ILE44       0.0252
     29  CG1        4.7520   16.7320  -17.5210 C.3    44  ILE44       0.0019
     30  CG2        3.1180   18.6800  -17.2890 C.3    44  ILE44       0.0019
     31  CD1        3.6300   15.8690  -18.0320 C.3    44  ILE44       0.0001
     32  N         -6.5490   12.2070   -9.6440 N.3    75  TYR75      -0.1241
     33  CA        -7.8770   12.3470  -10.2190 C.3    75  TYR75       0.1605
     34  C         -8.8610   13.2920   -9.5040 C.2    75  TYR75       0.2264
     35  O        -10.0680   13.2360   -9.7670 O.2    75  TYR75      -0.2867
     36  CB        -8.4440   10.9560  -10.5670 C.3    75  TYR75       0.0534
     37  CG        -7.6370   10.3160  -11.7260 C.ar   75  TYR75      -0.0201
     38  CD1       -7.3940   11.0270  -12.9410 C.ar   75  TYR75      -0.0009
     39  CD2       -7.0980    9.0330  -11.6110 C.ar   75  TYR75      -0.0009
     40  CE1       -6.6460   10.4700  -13.9810 C.ar   75  TYR75       0.0417
     41  CE2       -6.3520    8.4740  -12.6400 C.ar   75  TYR75       0.0417
     42  CZ        -6.1240    9.1810  -13.8230 C.ar   75  TYR75       0.1957
     43  OH        -5.3780    8.5930  -14.8350 O.3    75  TYR75      -0.2866
     44  N         -9.4770   16.2940  -10.1620 N.3    77  ILE77      -0.1231
     45  CA       -10.2580   16.9970  -11.1710 C.3    77  ILE77       0.1692
     46  C        -11.5850   16.3480  -11.4890 C.2    77  ILE77       0.2591
     47  O        -12.4690   17.0450  -11.9190 O.2    77  ILE77      -0.2718
     48  CB        -9.5330   17.2620  -12.5370 C.3    77  ILE77       0.0266
     49  CG1       -9.0880   16.0100  -13.2250 C.3    77  ILE77       0.0019
     50  CG2       -8.3170   18.1410  -12.3840 C.3    77  ILE77       0.0020
     51  CD1       -8.5210   16.2960  -14.5700 C.3    77  ILE77       0.0001
     52  N        -11.7310   15.0250  -11.2720 N.am   78  MET78      -0.1979
     53  CA       -12.9950   14.3600  -11.5340 C.3    78  MET78       0.1605
     54  C        -14.0200   14.5630  -10.4310 C.2    78  MET78       0.2287
     55  O        -15.1780   14.2320  -10.6380 O.2    78  MET78      -0.2864
     56  CB       -12.7940   12.8540  -11.7460 C.3    78  MET78       0.0413
     57  CG       -11.8800   12.5900  -12.9210 C.3    78  MET78       0.0598
     58  SD       -12.3130   13.3790  -14.4760 S.3    78  MET78      -0.1393
     59  CE       -13.9300   12.6880  -14.8100 C.3    78  MET78       0.0692
     60  N        -17.8010   12.9470  -10.8210 N.3    82  PHE82      -0.1241
     61  CA       -18.3120   11.7940  -10.0940 C.3    82  PHE82       0.1605
     62  C        -19.0250   12.1340   -8.7770 C.2    82  PHE82       0.2264
     63  O        -19.8750   11.3530   -8.3160 O.2    82  PHE82      -0.2867
     64  CB       -17.2040   10.8080   -9.7830 C.3    82  PHE82       0.0534
     65  CG       -16.4560   10.3380  -10.9710 C.ar   82  PHE82      -0.0203
     66  CD1      -17.0590   10.2150  -12.1770 C.ar   82  PHE82      -0.0042
     67  CD2      -15.1570    9.9770  -10.8490 C.ar   82  PHE82      -0.0042
     68  CE1      -16.3550    9.7760  -13.2880 C.ar   82  PHE82      -0.0003
     69  CE2      -14.4530    9.4750  -11.9340 C.ar   82  PHE82      -0.0003
     70  CZ       -15.0530    9.4000  -13.1520 C.ar   82  PHE82      -0.0000
     71  N        -12.7920    7.9850   -6.3760 N.3    88  TYR88      -0.1241
     72  CA       -11.4340    8.3800   -5.9040 C.3    88  TYR88       0.1605
     73  C        -11.4050    9.2280   -4.6390 C.2    88  TYR88       0.2264
     74  O        -10.5280    9.0440   -3.7820 O.2    88  TYR88      -0.2867
     75  CB       -10.7020    9.1560   -7.0290 C.3    88  TYR88       0.0534
     76  CG       -10.3030    8.2710   -8.1930 C.ar   88  TYR88      -0.0201
     77  CD1       -9.7140    7.0350   -7.9590 C.ar   88  TYR88      -0.0009
     78  CD2      -10.5510    8.6570   -9.5140 C.ar   88  TYR88      -0.0009
     79  CE1       -9.3730    6.2050   -8.9890 C.ar   88  TYR88       0.0417
     80  CE2      -10.1890    7.8300  -10.5720 C.ar   88  TYR88       0.0417
     81  CZ        -9.5930    6.6060  -10.3020 C.ar   88  TYR88       0.1957
     82  OH        -9.2160    5.7300  -11.3030 O.3    88  TYR88      -0.2866
     83  N        -16.6580    0.6320   -6.7830 N.3    99  LEU99      -0.1245
     84  CA       -16.2270    0.2150   -8.1460 C.3    99  LEU99       0.1561
     85  C        -16.5990   -1.2270   -8.3660 C.2    99  LEU99       0.2260
     86  O        -17.0910   -1.5630   -9.4180 O.2    99  LEU99      -0.2867
     87  CB       -14.7190    0.4650   -8.3820 C.3    99  LEU99       0.0270
     88  CG       -14.3190    1.9490   -8.4230 C.3    99  LEU99       0.0019
     89  CD1      -12.8550    2.1870   -8.8240 C.3    99  LEU99       0.0001
     90  CD2      -15.2320    2.7880   -9.3220 C.3    99  LEU99       0.0001
     91  N        -13.2300   20.1660  -17.8940 N.3   180  LEU180     -0.1245
     92  CA       -12.0330   19.6190  -17.2840 C.3   180  LEU180      0.1561
     93  C        -10.7870   20.2190  -17.8970 C.2   180  LEU180      0.2260
     94  O        -10.7230   20.4820  -19.0950 O.2   180  LEU180     -0.2867
     95  CB       -12.0320   18.1160  -17.4920 C.3   180  LEU180      0.0270
     96  CG       -13.1770   17.3640  -16.8280 C.3   180  LEU180      0.0019
     97  CD1      -13.1850   15.9310  -17.3340 C.3   180  LEU180      0.0001
     98  CD2      -13.0320   17.4380  -15.3110 C.3   180  LEU180      0.0001
     99  N         -7.2280   18.7710  -18.3670 N.3   182  PRO182     -0.2102
    100  CA        -6.4870   17.5120  -18.2060 C.3   182  PRO182      0.1504
    101  C         -5.1350   17.7750  -17.5410 C.2   182  PRO182      0.2575
    102  O         -4.7580   17.0320  -16.6320 O.2   182  PRO182     -0.2718
    103  CB        -6.3350   17.0090  -19.6380 C.3   182  PRO182      0.0282
    104  CG        -7.5480   17.5760  -20.3420 C.3   182  PRO182      0.0208
    105  CD        -7.7050   18.9410  -19.7530 C.3   182  PRO182      0.0893
    106  N         -4.4690   18.8650  -17.9460 N.am  183  ALA183     -0.1980
    107  CA        -3.1490   19.1680  -17.4070 C.3   183  ALA183      0.1597
    108  C         -3.1310   19.5400  -15.9200 C.2   183  ALA183      0.2287
    109  O         -2.0700   19.6260  -15.3180 O.2   183  ALA183     -0.2864
    110  CB        -2.5260   20.2630  -18.2500 C.3   183  ALA183      0.0319
    111  N         -4.0570   17.8170  -13.6640 N.3   185  VAL185     -0.1231
    112  CA        -3.4690   16.6410  -12.9940 C.3   185  VAL185      0.1692
    113  C         -2.0270   16.9070  -12.5400 C.2   185  VAL185      0.2592
    114  O         -1.5950   16.4600  -11.4660 O.2   185  VAL185     -0.2718
    115  CB        -3.4850   15.4000  -13.9390 C.3   185  VAL185      0.0266
    116  CG1       -2.5870   14.3080  -13.4150 C.3   185  VAL185      0.0020
    117  CG2       -4.8760   14.8740  -13.9990 C.3   185  VAL185      0.0020
    118  N         -1.2560   17.5970  -13.3730 N.am  186  PHE186     -0.1962
    119  CA         0.1030   17.9570  -12.9960 C.3   186  PHE186      0.1771
    120  C          0.2610   19.3620  -12.4230 C.2   186  PHE186      0.2619
    121  O          1.1460   19.5900  -11.6360 O.2   186  PHE186     -0.2715
    122  CB         1.0160   17.8290  -14.1980 C.3   186  PHE186      0.0574
    123  CG         0.9480   16.4750  -14.8580 C.ar  186  PHE186     -0.0200
    124  CD1        1.4850   15.3840  -14.2460 C.ar  186  PHE186     -0.0042
    125  CD2        0.3230   16.3130  -16.0750 C.ar  186  PHE186     -0.0042
    126  CE1        1.3850   14.1370  -14.8400 C.ar  186  PHE186     -0.0003
    127  CE2        0.2610   15.0780  -16.6910 C.ar  186  PHE186     -0.0003
    128  CZ         0.7840   14.0010  -16.0800 C.ar  186  PHE186     -0.0000
    129  N         -0.5730   20.3040  -12.8700 N.am  187  MET187     -0.1977
    130  CA        -0.4600   21.7430  -12.5190 C.3   187  MET187      0.1605
    131  C         -1.8090   22.2330  -12.0460 C.2   187  MET187      0.2287
    132  O         -2.5930   22.7440  -12.8420 O.2   187  MET187     -0.2864
    133  CB        -0.0250   22.5150  -13.7590 C.3   187  MET187      0.0413
    134  CG         1.3420   22.0490  -14.2240 C.3   187  MET187      0.0598
    135  SD         1.7100   22.6940  -15.8430 S.3   187  MET187     -0.1393
    136  CE         0.8810   21.5500  -16.8320 C.3   187  MET187      0.0692
    137  N        -19.5860    7.6360  -14.1670 N.3   253  ALA253     -0.1245
    138  CA       -18.2990    7.0280  -14.4440 C.3   253  ALA253      0.1562
    139  C        -18.4400    6.0720  -15.5940 C.2   253  ALA253      0.2260
    140  O        -17.5620    5.9760  -16.4520 O.2   253  ALA253     -0.2867
    141  CB       -17.7510    6.3080  -13.2270 C.3   253  ALA253      0.0290
    142  N        -19.1680    7.9590  -18.9400 N.3   256  PHE256     -0.1227
    143  CA       -18.0780    8.8740  -19.2690 C.3   256  PHE256      0.1736
    144  C        -16.8540    8.0560  -19.7890 C.2   256  PHE256      0.2595
    145  O        -16.2000    8.4080  -20.7700 O.2   256  PHE256     -0.2718
    146  CB       -17.7590    9.7270  -18.0220 C.3   256  PHE256      0.0547
    147  CG       -16.9060   10.9420  -18.2670 C.ar  256  PHE256     -0.0202
    148  CD1      -15.5650   10.8140  -18.6010 C.ar  256  PHE256     -0.0042
    149  CD2      -17.4110   12.2220  -18.0540 C.ar  256  PHE256     -0.0042
    150  CE1      -14.7290   11.9290  -18.8410 C.ar  256  PHE256     -0.0003
    151  CE2      -16.5860   13.3620  -18.2530 C.ar  256  PHE256     -0.0003
    152  CZ       -15.2290   13.2050  -18.6540 C.ar  256  PHE256     -0.0000
    153  N        -16.5980    6.9340  -19.1430 N.am  257  ALA257     -0.1980
    154  CA       -15.3800    6.1730  -19.3500 C.3   257  ALA257      0.1597
    155  C        -15.3940    5.5440  -20.6970 C.2   257  ALA257      0.2287
    156  O        -14.3880    5.4530  -21.3700 O.2   257  ALA257     -0.2864
    157  CB       -15.2770    5.0870  -18.2980 C.3   257  ALA257      0.0319
    158  N        -13.2220    6.2650  -25.3530 N.3   261  THR261     -0.1218
    159  CA       -12.4190    5.0660  -25.4840 C.3   261  THR261      0.1862
    160  C        -13.0100    4.0560  -26.5140 C.2   261  THR261      0.2287
    161  O        -12.3010    3.5200  -27.3960 O.2   261  THR261     -0.2866
    162  CB       -12.1870    4.3940  -24.1000 C.3   261  THR261      0.1770
    163  OG1      -13.4150    4.1990  -23.4100 O.3   261  THR261     -0.2211
    164  CG2      -11.2660    5.2270  -23.2370 C.3   261  THR261      0.0375
    165  N         -5.8860    5.8480  -23.9500 N.3   322  LEU322     -0.1231
    166  CA        -5.3110    6.4290  -22.7650 C.3   322  LEU322      0.1693
    167  C         -3.8200    6.1380  -22.8070 C.2   322  LEU322      0.2592
    168  O         -3.3760    4.9740  -22.7920 O.2   322  LEU322     -0.2718
    169  CB        -5.9530    5.8300  -21.5100 C.3   322  LEU322      0.0284
    170  CG        -7.4840    5.8470  -21.4660 C.3   322  LEU322      0.0019
    171  CD1       -8.0790    5.2500  -20.1950 C.3   322  LEU322      0.0001
    172  CD2       -7.8960    7.2860  -21.4820 C.3   322  LEU322      0.0001
    173  N         -3.0450    7.1950  -22.9700 N.am  323  LEU323     -0.1966
    174  CA        -1.6020    7.0760  -23.1640 C.3   323  LEU323      0.1728
    175  C         -0.7970    6.7660  -21.9010 C.2   323  LEU323      0.2616
    176  O          0.2830    6.1670  -22.0050 O.2   323  LEU323     -0.2715
    177  CB        -1.0730    8.3560  -23.7630 C.3   323  LEU323      0.0311
    178  CG        -1.8100    8.9210  -24.9930 C.3   323  LEU323      0.0022
    179  CD1       -0.9660   10.1240  -25.4340 C.3   323  LEU323      0.0001
    180  CD2       -1.9930    7.9470  -26.1540 C.3   323  LEU323      0.0001
    181  N         -1.3520    7.1530  -20.7360 N.am  324  MET324     -0.1977
    182  CA        -0.6990    7.1960  -19.4590 C.3   324  MET324      0.1605
    183  C         -1.6920    6.6450  -18.4250 C.2   324  MET324      0.2287
    184  O         -2.8270    7.1080  -18.3750 O.2   324  MET324     -0.2864
    185  CB        -0.4870    8.6340  -18.9690 C.3   324  MET324      0.0413
    186  CG         0.3760    9.6110  -19.6990 C.3   324  MET324      0.0598
    187  SD         2.1260    9.2680  -19.3570 S.3   324  MET324     -0.1393
    188  CE         2.3210    8.3630  -20.8590 C.3   324  MET324      0.0692
    189  N         -1.5810    6.6900  -14.1760 N.3   326  MET326     -0.1245
    190  CA        -0.7870    7.4790  -13.2490 C.3   326  MET326      0.1570
    191  C         -1.1650    7.2980  -11.7850 C.2   326  MET326      0.2261
    192  O         -2.3230    7.0410  -11.4810 O.2   326  MET326     -0.2867
    193  CB        -0.9240    8.9500  -13.6020 C.3   326  MET326      0.0387
    194  CG        -0.4980    9.2350  -15.0390 C.3   326  MET326      0.0595
    195  SD        -1.0900   10.8580  -15.4830 S.3   326  MET326     -0.1393
    196  CE        -2.8090   10.5990  -15.8400 C.3   326  MET326      0.0692
    197  N         -9.2990   -2.2620  -15.9580 N.3   388  CYS388     -0.1235
    198  CA       -10.5880   -1.7560  -16.4680 C.3   388  CYS388      0.1677
    199  C        -11.7250   -2.7020  -16.1420 C.2   388  CYS388      0.2270
    200  O        -11.6220   -3.8780  -16.4410 O.2   388  CYS388     -0.2867
    201  CB       -10.5010   -1.4890  -17.9730 C.3   388  CYS388      0.0956
    202  SG       -11.9960   -0.6480  -18.5780 S.3   388  CYS388     -0.0801
    203  N         -7.3140   14.4770  -24.4100 N.3   426  MET426     -0.1230
    204  CA        -6.9880   13.6080  -23.3380 C.3   426  MET426      0.1702
    205  C         -7.2480   12.1560  -23.6560 C.2   426  MET426      0.2592
    206  O         -6.4860   11.3000  -23.2230 O.2   426  MET426     -0.2718
    207  CB        -7.7040   14.0440  -22.0330 C.3   426  MET426      0.0401
    208  CG        -9.1970   13.8830  -21.9590 C.3   426  MET426      0.0596
    209  SD        -9.8150   14.4630  -20.3440 S.3   426  MET426     -0.1393
    210  CE       -11.5180   13.8620  -20.5880 C.3   426  MET426      0.0692
    211  N         -8.3340   11.8530  -24.3690 N.am  427  VAL427     -0.1980
    212  CA        -8.4820   10.5210  -24.9170 C.3   427  VAL427      0.1595
    213  C         -8.0950   10.6850  -26.3630 C.2   427  VAL427      0.2287
    214  O         -8.7080   11.4370  -27.0880 O.2   427  VAL427     -0.2864
    215  CB        -9.8920    9.9230  -24.7450 C.3   427  VAL427      0.0276
    216  CG1       -9.8900    8.4300  -25.0770 C.3   427  VAL427      0.0022
    217  CG2      -10.3510   10.0900  -23.3360 C.3   427  VAL427      0.0022
@<TRIPOS>BOND
     1    23    22    2
     2   161   160    2
     3   214   213    2
     4    22    21    1
     5   160   159    1
     6   213   212    1
     7   180   178    1
     8    21    20    1
     9   159   158    1
    10   159   162    1
    11   179   178    1
    12    12    11    2
    13   216   215    1
    14   178   177    1
    15    11    20   am
    16    11    10    1
    17   212   215    1
    18   212   211    1
    19     9    10    1
    20   215   217    1
    21    10    13    1
    22   203   204    1
    23   211   205   am
    24   162   163    1
    25   162   164    1
    26   165   166    1
    27     4     3    2
    28   177   174    1
    29   205   204    1
    30   205   206    2
    31   204   207    1
    32     3     2    1
    33   174   173    1
    34   174   175    1
    35   173   167   am
    36    13    14    1
    37   167   168    2
    38   167   166    1
    39   166   169    1
    40    15    14   ar
    41    15    17   ar
    42    14    16   ar
    43    17    19   ar
    44   207   208    1
    45   176   175    2
    46     7     5    1
    47   208   209    1
    48   175   181   am
    49     2     1    1
    50     2     5    1
    51    16    18   ar
    52   169   170    1
    53   172   170    1
    54    19    18   ar
    55   170   171    1
    56   156   155    2
    57     5     6    1
    58   188   187    1
    59   145   144    2
    60   181   182    1
    61   155   154    1
    62   210   209    1
    63   104   105    1
    64   104   103    1
    65   144   143    1
    66   144   153   am
    67   105    99    1
    68     6     8    1
    69   186   187    1
    70   186   185    1
    71   103   100    1
    72   182   185    1
    73   182   183    1
    74   154   153    1
    75   154   157    1
    76   143   142    1
    77   143   146    1
    78    94    93    2
    79   150   152   ar
    80   150   148   ar
    81   152   151   ar
    82   148   147   ar
    83   202   201    1
    84   183   184    2
    85    99   100    1
    86   147   149   ar
    87   147   146    1
    88   151   149   ar
    89   110   107    1
    90   100   101    1
    91    31    29    1
    92   201   198    1
    93   106   101   am
    94   106   107    1
    95    93    92    1
    96    91    92    1
    97   101   102    2
    98    29    28    1
    99    95    92    1
   100    95    96    1
   101   107   108    1
   102    97    96    1
   103    30    28    1
   104   136   135    1
   105    96    98    1
   106   127   128   ar
   107   127   125   ar
   108    28    25    1
   109    25    24    1
   110    25    26    1
   111   198   199    1
   112   198   197    1
   113   140   139    2
   114   200   199    2
   115   128   126   ar
   116   125   123   ar
   117   108   109    2
   118   135   134    1
   119   196   195    1
   120    26    27    2
   121   139   138    1
   122   195   194    1
   123   194   193    1
   124   123   124   ar
   125   123   122    1
   126   126   124   ar
   127    43    42    1
   128    59    58    1
   129    51    49    1
   130    58    57    1
   131   138   137    1
   132   138   141    1
   133   134   133    1
   134   122   119    1
   135   189   190    1
   136   117   115    1
   137    40    42   ar
   138    40    38   ar
   139   115   116    1
   140   115   112    1
   141    42    41   ar
   142   133   130    1
   143   111   112    1
   144   193   190    1
   145   118   119    1
   146   118   113   am
   147    68    70   ar
   148    68    66   ar
   149   190   191    1
   150    49    48    1
   151    70    69   ar
   152   119   120    1
   153   112   113    1
   154    38    37   ar
   155    57    56    1
   156   129   130    1
   157   129   120   am
   158   132   131    2
   159    41    39   ar
   160   113   114    2
   161    48    50    1
   162    48    45    1
   163   130   131    1
   164   120   121    2
   165    66    65   ar
   166    69    67   ar
   167    47    46    2
   168   191   192    2
   169    56    53    1
   170    37    39   ar
   171    37    36    1
   172    53    52    1
   173    53    54    1
   174    46    52   am
   175    46    45    1
   176    82    81    1
   177    45    44    1
   178    65    67   ar
   179    65    64    1
   180    60    61    1
   181    55    54    2
   182    80    81   ar
   183    80    78   ar
   184    36    33    1
   185    81    79   ar
   186    33    32    1
   187    33    34    1
   188    61    64    1
   189    61    62    1
   190    35    34    2
   191    78    76   ar
   192    86    85    2
   193    90    88    1
   194    79    77   ar
   195    89    88    1
   196    62    63    2
   197    88    87    1
   198    87    84    1
   199    85    84    1
   200    76    77   ar
   201    76    75    1
   202    84    83    1
   203    75    72    1
   204    71    72    1
   205    72    73    1
   206    73    74    2
