@<TRIPOS>MOLECULE
tmp/4c29A00.pdb
 85 79 0 0 0
SMALL
GASTEIGER

@<TRIPOS>ATOM
      1  N         12.1280   -7.0650  -44.2680 N.3   123  GLN123     -0.1231
      2  CA        12.7180   -8.2360  -43.6340 C.3   123  GLN123      0.1698
      3  C         14.0020   -7.8540  -42.9060 C.2   123  GLN123      0.2592
      4  O         15.0110   -7.5550  -43.5420 O.2   123  GLN123     -0.2718
      5  CB        12.9990   -9.3200  -44.6760 C.3   123  GLN123      0.0381
      6  CG        13.7300  -10.5360  -44.1390 C.3   123  GLN123      0.0905
      7  CD        13.8450  -11.6340  -45.1720 C.2   123  GLN123      0.2608
      8  OE1       13.4800  -11.4490  -46.3340 O.2   123  GLN123     -0.2717
      9  NE2       14.3480  -12.7880  -44.7550 N.am  123  GLN123     -0.0878
     10  N         13.9570   -7.8800  -41.5770 N.am  124  GLU124     -0.1979
     11  CA        15.0960   -7.5120  -40.7390 C.3   124  GLU124      0.1602
     12  C         16.3010   -8.4150  -40.9940 C.2   124  GLU124      0.2287
     13  O         16.1430   -9.5580  -41.4190 O.2   124  GLU124     -0.2864
     14  CB        14.7000   -7.5710  -39.2610 C.3   124  GLU124      0.0415
     15  CG        14.4070   -8.9870  -38.7720 C.3   124  GLU124      0.1163
     16  CD        14.0040   -9.0440  -37.3110 C.2   124  GLU124      0.3649
     17  OE1       13.8570   -7.9730  -36.6890 O.co2 124  GLU124     -0.2457
     18  OE2       13.8170  -10.1650  -36.7880 O.co2 124  GLU124     -0.2457
     19  N         19.0930  -11.0860  -40.3720 N.3   126  GLN126     -0.1245
     20  CA        18.9680  -12.3320  -39.6180 C.3   126  GLN126      0.1566
     21  C         19.4820  -12.2620  -38.1810 C.2   126  GLN126      0.2260
     22  O         18.8820  -12.8540  -37.2810 O.2   126  GLN126     -0.2867
     23  CB        19.6920  -13.4610  -40.3590 C.3   126  GLN126      0.0367
     24  CG        19.6440  -14.8060  -39.6490 C.3   126  GLN126      0.0905
     25  CD        18.2250  -15.2610  -39.3500 C.2   126  GLN126      0.2608
     26  OE1       17.4340  -15.5060  -40.2590 O.2   126  GLN126     -0.2717
     27  NE2       17.9000  -15.3810  -38.0680 N.am  126  GLN126     -0.0878
     28  N         17.0230  -11.5960  -35.5550 N.3   129  SER129     -0.1217
     29  CA        15.8780  -12.4960  -35.4800 C.3   129  SER129      0.1889
     30  C         16.0870  -13.6490  -34.5050 C.2   129  SER129      0.2288
     31  O         15.2840  -14.5810  -34.4690 O.2   129  SER129     -0.2866
     32  CB        15.5560  -13.0570  -36.8670 C.3   129  SER129      0.2089
     33  OG        15.2190  -12.0240  -37.7780 O.3   129  SER129     -0.2183
     34  N         13.1210  -13.9440  -32.0740 N.3   132  PHE132     -0.1227
     35  CA        11.8090  -13.6840  -32.6700 C.3   132  PHE132      0.1736
     36  C         10.7280  -14.6320  -32.1540 C.2   132  PHE132      0.2595
     37  O          9.6880  -14.1920  -31.6630 O.2   132  PHE132     -0.2718
     38  CB        11.8830  -13.7690  -34.1980 C.3   132  PHE132      0.0547
     39  CG        10.5530  -13.5820  -34.8770 C.ar  132  PHE132     -0.0202
     40  CD1       10.0360  -12.3140  -35.0730 C.ar  132  PHE132     -0.0042
     41  CD2        9.8210  -14.6770  -35.3190 C.ar  132  PHE132     -0.0042
     42  CE1        8.8130  -12.1370  -35.6910 C.ar  132  PHE132     -0.0003
     43  CE2        8.5980  -14.5070  -35.9380 C.ar  132  PHE132     -0.0003
     44  CZ         8.0910  -13.2340  -36.1230 C.ar  132  PHE132     -0.0000
     45  N         10.9800  -15.9310  -32.2630 N.am  133  VAL133     -0.1980
     46  CA         9.9930  -16.9360  -31.8840 C.3   133  VAL133      0.1595
     47  C          9.6430  -16.8220  -30.3980 C.2   133  VAL133      0.2287
     48  O          8.4910  -17.0170  -30.0090 O.2   133  VAL133     -0.2864
     49  CB        10.4850  -18.3580  -32.2060 C.3   133  VAL133      0.0276
     50  CG1        9.3940  -19.3660  -31.9230 C.3   133  VAL133      0.0022
     51  CG2       10.8900  -18.4490  -33.6650 C.3   133  VAL133      0.0022
     52  N          8.7240  -10.0200  -44.6390 N.3   156  ASN156     -0.1240
     53  CA         9.3680  -11.2270  -44.1280 C.3   156  ASN156      0.1653
     54  C          8.4000  -12.4030  -44.0810 C.2   156  ASN156      0.2266
     55  O          7.7030  -12.6120  -43.0860 O.2   156  ASN156     -0.2867
     56  CB         9.9560  -10.9720  -42.7390 C.3   156  ASN156      0.1155
     57  CG        10.9810  -12.0130  -42.3360 C.2   156  ASN156      0.2627
     58  OD1       10.8940  -13.1780  -42.7240 O.2   156  ASN156     -0.2716
     59  ND2       11.9620  -11.5960  -41.5460 N.am  156  ASN156     -0.0877
     60  N          8.9010  -15.6320  -43.9480 N.3   158  LYS158     -0.1231
     61  CA         9.2330  -16.6410  -42.9440 C.3   158  LYS158      0.1693
     62  C          8.6000  -16.3080  -41.6070 C.2   158  LYS158      0.2591
     63  O          8.0020  -17.1630  -40.9610 O.2   158  LYS158     -0.2718
     64  CB        10.7470  -16.7730  -42.7640 C.3   158  LYS158      0.0285
     65  CG        11.4520  -17.5640  -43.8430 C.3   158  LYS158      0.0035
     66  CD        12.8530  -17.9370  -43.3910 C.3   158  LYS158      0.0206
     67  CE        13.6300  -18.6270  -44.4950 C.3   158  LYS158      0.1093
     68  NZ        14.9440  -19.1350  -44.0110 N.3   158  LYS158     -0.1314
     69  N          8.7510  -15.0590  -41.1880 N.am  159  GLN159     -0.1979
     70  CA         8.2240  -14.6320  -39.9040 C.3   159  GLN159      0.1601
     71  C          6.6990  -14.5710  -39.9150 C.2   159  GLN159      0.2287
     72  O          6.0530  -14.8130  -38.8950 O.2   159  GLN159     -0.2864
     73  CB         8.8210  -13.2840  -39.5130 C.3   159  GLN159      0.0394
     74  CG        10.2980  -13.3790  -39.1730 C.3   159  GLN159      0.0908
     75  CD        10.8440  -12.1060  -38.5680 C.2   159  GLN159      0.2608
     76  OE1       10.1730  -11.0720  -38.5590 O.2   159  GLN159     -0.2717
     77  NE2       12.0680  -12.1720  -38.0560 N.am  159  GLN159     -0.0878
     78  N          5.6560  -18.0770  -39.3870 N.3   162  LEU162     -0.1245
     79  CA         5.9830  -18.4720  -38.0190 C.3   162  LEU162      0.1561
     80  C          4.9100  -18.0160  -37.0370 C.2   162  LEU162      0.2260
     81  O          4.5670  -18.7330  -36.0980 O.2   162  LEU162     -0.2867
     82  CB         7.3470  -17.9150  -37.6090 C.3   162  LEU162      0.0270
     83  CG         8.5600  -18.6890  -38.1280 C.3   162  LEU162      0.0019
     84  CD1        9.8590  -18.0130  -37.7040 C.3   162  LEU162      0.0001
     85  CD2        8.5170  -20.1300  -37.6280 C.3   162  LEU162      0.0001
@<TRIPOS>BOND
     1     8     7    2
     2     7     9   am
     3     7     6    1
     4     5     6    1
     5     5     2    1
     6    52    53    1
     7    67    68    1
     8    67    66    1
     9     1     2    1
    10    53    54    1
    11    53    56    1
    12    54    55    2
    13    60    61    1
    14    65    66    1
    15    65    64    1
    16     2     3    1
    17     4     3    2
    18    61    64    1
    19    61    62    1
    20     3    10   am
    21    56    57    1
    22    58    57    2
    23    57    59   am
    24    62    69   am
    25    62    63    2
    26    10    11    1
    27    13    12    2
    28    69    70    1
    29    12    11    1
    30    11    14    1
    31    19    20    1
    32    23    24    1
    33    23    20    1
    34    26    25    2
    35    71    70    1
    36    71    72    2
    37    70    73    1
    38    24    25    1
    39    20    21    1
    40    73    74    1
    41    78    79    1
    42    25    27   am
    43    14    15    1
    44    74    75    1
    45    15    16    1
    46    75    76    2
    47    75    77   am
    48    21    22    2
    49    83    84    1
    50    83    85    1
    51    83    82    1
    52    79    82    1
    53    79    80    1
    54    33    32    1
    55    16    18   ar
    56    16    17   ar
    57    80    81    2
    58    32    29    1
    59    44    43   ar
    60    44    42   ar
    61    43    41   ar
    62    42    40   ar
    63    28    29    1
    64    29    30    1
    65    41    39   ar
    66    40    39   ar
    67    39    38    1
    68    30    31    2
    69    38    35    1
    70    51    49    1
    71    35    36    1
    72    35    34    1
    73    45    36   am
    74    45    46    1
    75    49    50    1
    76    49    46    1
    77    36    37    2
    78    46    47    1
    79    47    48    2
