@<TRIPOS>MOLECULE
tmp/4c2jC00.pdb
 220 207 0 0 0
SMALL
GASTEIGER

@<TRIPOS>ATOM
      1  N          5.1530  -17.4610   31.5350 N.3    21  TYR21      -0.1241
      2  CA         5.2090  -18.6540   30.6820 C.3    21  TYR21       0.1605
      3  C          4.7710  -19.8590   31.4820 C.2    21  TYR21       0.2264
      4  O          5.3730  -20.1500   32.5020 O.2    21  TYR21      -0.2867
      5  CB         6.6240  -18.8470   30.1950 C.3    21  TYR21       0.0534
      6  CG         6.9390  -20.0440   29.3360 C.ar   21  TYR21      -0.0201
      7  CD1        6.4400  -20.1610   28.0460 C.ar   21  TYR21      -0.0009
      8  CD2        7.8040  -21.0320   29.7870 C.ar   21  TYR21      -0.0009
      9  CE1        6.8000  -21.2400   27.2300 C.ar   21  TYR21       0.0417
     10  CE2        8.1900  -22.0950   28.9540 C.ar   21  TYR21       0.0417
     11  CZ         7.6840  -22.2060   27.6990 C.ar   21  TYR21       0.1957
     12  OH         7.9750  -23.2790   26.8670 O.3    21  TYR21      -0.2866
     13  N          2.4440  -16.9730   24.3550 N.3   122  MET122     -0.1245
     14  CA         3.7240  -17.6520   24.1320 C.3   122  MET122      0.1570
     15  C          3.6860  -18.9890   24.8260 C.2   122  MET122      0.2261
     16  O          4.3180  -19.9290   24.3450 O.2   122  MET122     -0.2867
     17  CB         4.8820  -16.7460   24.6310 C.3   122  MET122      0.0387
     18  CG         4.9340  -15.4340   23.8730 C.3   122  MET122      0.0595
     19  SD         6.2580  -14.2910   24.3440 S.3   122  MET122     -0.1393
     20  CE         7.6490  -14.9840   23.4500 C.3   122  MET122      0.0692
     21  N         11.0050  -21.0720   20.4440 N.3   149  TRP149     -0.1241
     22  CA        12.4420  -20.9540   20.5500 C.3   149  TRP149      0.1605
     23  C         13.0950  -20.7170   19.1820 C.2   149  TRP149      0.2264
     24  O         13.9730  -19.8290   19.0610 O.2   149  TRP149     -0.2867
     25  CB        13.0510  -22.2070   21.1950 C.3   149  TRP149      0.0550
     26  CG        14.4190  -22.0150   21.7010 C.ar  149  TRP149      0.0003
     27  CD1       15.5390  -22.6500   21.2800 C.ar  149  TRP149      0.0946
     28  CD2       14.8360  -21.1200   22.7620 C.ar  149  TRP149      0.0152
     29  NE1       16.6310  -22.2130   22.0240 N.ar  149  TRP149     -0.2442
     30  CE2       16.2120  -21.2850   22.9360 C.ar  149  TRP149      0.0810
     31  CE3       14.1620  -20.2370   23.5990 C.ar  149  TRP149      0.0012
     32  CZ2       16.9380  -20.5630   23.8830 C.ar  149  TRP149      0.0191
     33  CZ3       14.8830  -19.5130   24.5210 C.ar  149  TRP149      0.0001
     34  CH2       16.2580  -19.6940   24.6700 C.ar  149  TRP149      0.0015
     35  N         12.9150  -17.1580   17.8980 N.3   152  LEU152     -0.1245
     36  CA        13.7690  -16.1810   18.5630 C.3   152  LEU152      0.1561
     37  C         15.1880  -16.1320   18.0120 C.2   152  LEU152      0.2260
     38  O         16.0450  -15.5040   18.6170 O.2   152  LEU152     -0.2867
     39  CB        13.8140  -16.4560   20.0710 C.3   152  LEU152      0.0270
     40  CG        12.4390  -16.3480   20.7460 C.3   152  LEU152      0.0019
     41  CD1       12.5190  -16.7040   22.2260 C.3   152  LEU152      0.0001
     42  CD2       11.8570  -14.9550   20.5880 C.3   152  LEU152      0.0001
     43  N         18.0180  -13.6020   19.1560 N.3   161  MET161     -0.1245
     44  CA        17.7690  -12.2240   19.5770 C.3   161  MET161      0.1570
     45  C         18.7190  -11.7290   20.6540 C.2   161  MET161      0.2261
     46  O         19.2170  -10.6150   20.5660 O.2   161  MET161     -0.2867
     47  CB        16.3240  -12.0600   20.0300 C.3   161  MET161      0.0387
     48  CG        15.3030  -12.2090   18.9160 C.3   161  MET161      0.0595
     49  SD        15.4530  -10.9990   17.6210 S.3   161  MET161     -0.1393
     50  CE        16.4000  -11.8570   16.3700 C.3   161  MET161      0.0692
     51  N         12.4180   -3.8420   37.8770 N.3   187  GLN187     -0.1245
     52  CA        11.6320   -4.5430   38.9430 C.3   187  GLN187      0.1566
     53  C         11.1550   -3.5420   39.9970 C.2   187  GLN187      0.2260
     54  O          9.9660   -3.5570   40.3800 O.2   187  GLN187     -0.2867
     55  CB        12.4200   -5.6400   39.6330 C.3   187  GLN187      0.0367
     56  CG        12.9580   -6.7230   38.7260 C.3   187  GLN187      0.0905
     57  CD        11.9120   -7.6960   38.2700 C.2   187  GLN187      0.2608
     58  OE1       10.7480   -7.6030   38.6350 O.2   187  GLN187     -0.2717
     59  NE2       12.3310   -8.6640   37.4450 N.am  187  GLN187     -0.0878
     60  N          4.8080  -12.0140   36.0590 N.3   218  HIS218     -0.1241
     61  CA         6.2280  -12.2940   35.8470 C.3   218  HIS218      0.1621
     62  C          7.0970  -11.5160   36.8190 C.2   218  HIS218      0.2264
     63  O          8.2450  -11.8630   37.0040 O.2   218  HIS218     -0.2867
     64  CB         6.6000  -11.9690   34.3950 C.3   218  HIS218      0.0745
     65  CG         7.9910  -12.3480   34.0390 C.ar  218  HIS218      0.0817
     66  ND1        8.3930  -13.6640   33.9050 N.ar  218  HIS218     -0.2268
     67  CD2        9.0920  -11.5930   33.8290 C.ar  218  HIS218      0.1154
     68  CE1        9.6760  -13.6940   33.6060 C.ar  218  HIS218      0.1986
     69  NE2       10.1250  -12.4540   33.5580 N.ar  218  HIS218     -0.2212
     70  N          9.1650   -9.7550   39.7290 N.3   220  ARG220     -0.1245
     71  CA         9.8410  -10.3480   40.8730 C.3   220  ARG220      0.1563
     72  C         10.2740   -9.2040   41.7670 C.2   220  ARG220      0.2260
     73  O         11.4440   -8.7990   41.7650 O.2   220  ARG220     -0.2867
     74  CB        11.0340  -11.1820   40.4180 C.3   220  ARG220      0.0307
     75  CG        10.6050  -12.4880   39.7360 C.3   220  ARG220      0.0489
     76  CD        11.8010  -13.2340   39.1630 C.3   220  ARG220      0.2205
     77  NE        12.5460  -13.8880   40.2390 N.pl3 220  ARG220     -0.0865
     78  CZ        12.8190  -15.1930   40.3220 C.cat 220  ARG220      0.5346
     79  NH1       12.4630  -16.0350   39.3660 N.pl3 220  ARG220      0.1354
     80  NH2       13.4930  -15.6510   41.3760 N.pl3 220  ARG220      0.1354
     81  N         13.5170   -9.0540   43.9270 N.3   223  THR223     -0.1218
     82  CA        14.8000   -9.0980   43.2640 C.3   223  THR223      0.1862
     83  C         15.8070   -8.1980   43.9890 C.2   223  THR223      0.2287
     84  O         15.4870   -7.0620   44.3220 O.2   223  THR223     -0.2866
     85  CB        14.6530   -8.6400   41.7800 C.3   223  THR223      0.1770
     86  OG1       13.8640   -9.6050   41.0710 O.3   223  THR223     -0.2211
     87  CG2       16.0080   -8.4800   41.0890 C.3   223  THR223      0.0375
     88  N         21.2880  -11.1320   43.8670 N.3   227  GLN227     -0.1231
     89  CA        20.6550  -12.2460   43.1550 C.3   227  GLN227      0.1698
     90  C         20.9680  -12.1890   41.6520 C.2   227  GLN227      0.2592
     91  O         21.3780  -13.1800   41.0780 O.2   227  GLN227     -0.2718
     92  CB        19.1540  -12.1900   43.3620 C.3   227  GLN227      0.0381
     93  CG        18.7120  -12.6560   44.7420 C.3   227  GLN227      0.0905
     94  CD        17.2420  -12.4060   44.9880 C.2   227  GLN227      0.2608
     95  OE1       16.5790  -11.7210   44.2180 O.2   227  GLN227     -0.2717
     96  NE2       16.7220  -12.9780   46.0540 N.am  227  GLN227     -0.0878
     97  N         20.8100  -11.0090   41.0500 N.am  228  LEU228     -0.1980
     98  CA        21.0450  -10.8210   39.6250 C.3   228  LEU228      0.1596
     99  C         22.5050  -11.0980   39.2440 C.2   228  LEU228      0.2287
    100  O         22.7880  -11.8020   38.2580 O.2   228  LEU228     -0.2864
    101  CB        20.6600   -9.4170   39.2090 C.3   228  LEU228      0.0297
    102  CG        19.1820   -9.1220   39.2680 C.3   228  LEU228      0.0022
    103  CD1       18.9210   -7.6520   39.0140 C.3   228  LEU228      0.0001
    104  CD2       18.4090   -9.9820   38.2780 C.3   228  LEU228      0.0001
    105  N         23.4680  -14.7850   38.5910 N.3   231  LEU231     -0.1245
    106  CA        22.9040  -15.5430   37.5050 C.3   231  LEU231      0.1561
    107  C         23.9800  -15.7130   36.4250 C.2   231  LEU231      0.2260
    108  O         24.8150  -14.8350   36.2150 O.2   231  LEU231     -0.2867
    109  CB        21.6650  -14.8460   36.9380 C.3   231  LEU231      0.0270
    110  CG        20.4950  -14.6920   37.9130 C.3   231  LEU231      0.0019
    111  CD1       19.3850  -13.9070   37.2520 C.3   231  LEU231      0.0001
    112  CD2       19.9630  -16.0270   38.3770 C.3   231  LEU231      0.0001
    113  N         23.2690  -16.5570   29.6820 N.3   234  VAL234     -0.1231
    114  CA        22.5640  -17.6540   29.0420 C.3   234  VAL234      0.1692
    115  C         23.0600  -17.9860   27.6230 C.2   234  VAL234      0.2592
    116  O         22.9800  -19.1290   27.1900 O.2   234  VAL234     -0.2718
    117  CB        21.0350  -17.3610   29.0550 C.3   234  VAL234      0.0266
    118  CG1       20.2680  -18.3590   28.2120 C.3   234  VAL234      0.0020
    119  CG2       20.5470  -17.4070   30.4900 C.3   234  VAL234      0.0020
    120  N         23.5220  -16.9940   26.8830 N.am  235  PHE235     -0.1976
    121  CA        23.7700  -17.1580   25.4600 C.3   235  PHE235      0.1639
    122  C         25.2250  -16.9790   25.0920 C.2   235  PHE235      0.2290
    123  O         25.6200  -17.3830   24.0210 O.2   235  PHE235     -0.2864
    124  CB        22.9530  -16.1490   24.6500 C.3   235  PHE235      0.0560
    125  CG        21.4940  -16.2610   24.8700 C.ar  235  PHE235     -0.0200
    126  CD1       20.8880  -15.5630   25.8840 C.ar  235  PHE235     -0.0042
    127  CD2       20.7180  -17.0790   24.0550 C.ar  235  PHE235     -0.0042
    128  CE1       19.5240  -15.6680   26.1000 C.ar  235  PHE235     -0.0003
    129  CE2       19.3610  -17.2060   24.2920 C.ar  235  PHE235     -0.0003
    130  CZ        18.7640  -16.4840   25.2960 C.ar  235  PHE235     -0.0000
    131  N         21.3850  -12.4370   30.8980 N.3   242  THR242     -0.1203
    132  CA        21.0140  -13.5000   31.7900 C.3   242  THR242      0.1994
    133  C         19.4800  -13.6450   31.7850 C.2   242  THR242      0.2618
    134  O         18.7430  -12.8470   31.1860 O.2   242  THR242     -0.2717
    135  CB        21.4180  -13.1900   33.2160 C.3   242  THR242      0.1784
    136  OG1       20.5440  -12.1940   33.7590 O.3   242  THR242     -0.2211
    137  CG2       22.8650  -12.7140   33.2930 C.3   242  THR242      0.0376
    138  N         19.0000  -14.6530   32.4830 N.am  243  ALA243     -0.1965
    139  CA        17.5390  -14.8250   32.6780 C.3   243  ALA243      0.1728
    140  C         16.9770  -13.7180   33.5630 C.2   243  ALA243      0.2616
    141  O         15.7880  -13.4410   33.5380 O.2   243  ALA243     -0.2715
    142  CB        17.2420  -16.1870   33.2850 C.3   243  ALA243      0.0334
    143  N         17.8360  -13.0140   34.2820 N.am  244  GLY244     -0.1955
    144  CA        17.4070  -11.9110   35.1260 C.3   244  GLY244      0.1869
    145  C         17.3290  -10.5520   34.4880 C.2   244  GLY244      0.2309
    146  O         16.6530   -9.6600   34.9930 O.2   244  GLY244     -0.2863
    147  N         17.0120  -10.1940   30.8350 N.3   246  ALA246     -0.1231
    148  CA        16.2520  -10.2570   29.5900 C.3   246  ALA246      0.1694
    149  C         14.7350  -10.1350   29.8870 C.2   246  ALA246      0.2593
    150  O         14.2920  -10.4630   30.9670 O.2   246  ALA246     -0.2718
    151  CB        16.5300  -11.5930   28.9310 C.3   246  ALA246      0.0304
    152  N         13.9460   -9.7280   28.8820 N.am  247  SER247     -0.1938
    153  CA        12.4980   -9.7240   29.0080 C.3   247  SER247      0.2055
    154  C         12.0230  -11.1270   29.1930 C.2   247  SER247      0.2644
    155  O         12.6420  -12.0680   28.7260 O.2   247  SER247     -0.2714
    156  CB        11.8200   -9.1390   27.7890 C.3   247  SER247      0.2130
    157  OG        12.2340   -9.7740   26.6130 O.3   247  SER247     -0.2179
    158  N         10.9260  -11.2730   29.9230 N.am  248  GLY248     -0.1939
    159  CA        10.3830  -12.5810   30.1020 C.3   248  GLY248      0.2014
    160  C          9.4990  -12.9940   28.9400 C.2   248  GLY248      0.2638
    161  O          8.9500  -12.1450   28.2420 O.2   248  GLY248     -0.2714
    162  N          9.3970  -14.3080   28.7390 N.am  249  VAL249     -0.1977
    163  CA         8.4230  -14.9170   27.8660 C.3   249  VAL249      0.1596
    164  C          7.0900  -14.8100   28.6040 C.2   249  VAL249      0.2287
    165  O          7.0390  -15.0540   29.8030 O.2   249  VAL249     -0.2864
    166  CB         8.7720  -16.3920   27.6270 C.3   249  VAL249      0.0276
    167  CG1        7.6580  -17.1140   26.8970 C.3   249  VAL249      0.0022
    168  CG2       10.0690  -16.5010   26.8320 C.3   249  VAL249      0.0022
    169  N         19.4600   -5.5580   15.8310 N.3   288  MET288     -0.1245
    170  CA        18.0670   -5.1820   15.6990 C.3   288  MET288      0.1570
    171  C         17.5510   -4.3310   16.8560 C.2   288  MET288      0.2261
    172  O         16.6390   -3.5280   16.6750 O.2   288  MET288     -0.2867
    173  CB        17.1940   -6.4430   15.5110 C.3   288  MET288      0.0387
    174  CG        17.1640   -7.3480   16.6790 C.3   288  MET288      0.0595
    175  SD        15.8160   -6.9320   17.8320 S.3   288  MET288     -0.1393
    176  CE        16.3620   -7.7150   19.3290 C.3   288  MET288      0.0692
    177  N         13.4640   -5.3300   25.7180 N.3   318  ALA318     -0.1231
    178  CA        13.6850   -6.6570   25.1870 C.3   318  ALA318      0.1694
    179  C         14.8470   -7.3590   25.8890 C.2   318  ALA318      0.2592
    180  O         14.7330   -8.5290   26.3070 O.2   318  ALA318     -0.2718
    181  CB        13.9220   -6.5970   23.6890 C.3   318  ALA318      0.0304
    182  N         15.9300   -6.6180   26.0690 N.am  319  PHE319     -0.1976
    183  CA        17.1010   -7.0670   26.8860 C.3   319  PHE319      0.1639
    184  C         17.7210   -5.8360   27.5260 C.2   319  PHE319      0.2290
    185  O         17.7640   -4.7570   26.9120 O.2   319  PHE319     -0.2864
    186  CB        18.1360   -7.7360   26.0270 C.3   319  PHE319      0.0560
    187  CG        17.6190   -8.8370   25.2100 C.ar  319  PHE319     -0.0200
    188  CD1       17.5700  -10.1240   25.7300 C.ar  319  PHE319     -0.0042
    189  CD2       17.1760   -8.6140   23.9230 C.ar  319  PHE319     -0.0042
    190  CE1       17.0390  -11.1750   24.9800 C.ar  319  PHE319     -0.0003
    191  CE2       16.6280   -9.6620   23.1730 C.ar  319  PHE319     -0.0003
    192  CZ        16.5640  -10.9410   23.7030 C.ar  319  PHE319     -0.0000
    193  N          7.3420   -9.8720   28.0270 N.3   348  HIS348     -0.1241
    194  CA         7.2210   -9.4080   26.6810 C.3   348  HIS348      0.1621
    195  C          6.4110  -10.3880   25.8010 C.2   348  HIS348      0.2264
    196  O          6.9680  -11.1500   25.0400 O.2   348  HIS348     -0.2867
    197  CB         8.5980   -9.1560   26.1060 C.3   348  HIS348      0.0745
    198  CG         8.5890   -8.6960   24.6950 C.ar  348  HIS348      0.0817
    199  ND1        7.5200   -8.0370   24.1300 N.ar  348  HIS348     -0.2268
    200  CD2        9.4980   -8.8420   23.7240 C.ar  348  HIS348      0.1154
    201  CE1        7.7860   -7.7880   22.8700 C.ar  348  HIS348      0.1986
    202  NE2        8.9820   -8.2760   22.5970 N.ar  348  HIS348     -0.2212
    203  N          5.0560  -11.0320   22.6940 N.3   350  LEU350     -0.1245
    204  CA         5.5310  -10.3670   21.5000 C.3   350  LEU350      0.1561
    205  C          4.5520   -9.3540   20.8890 C.2   350  LEU350      0.2260
    206  O          4.8720   -8.1800   20.8100 O.2   350  LEU350     -0.2867
    207  CB         5.9970  -11.3670   20.4200 C.3   350  LEU350      0.0270
    208  CG         6.9720  -12.4740   20.8830 C.3   350  LEU350      0.0019
    209  CD1        7.2970  -13.4040   19.7330 C.3   350  LEU350      0.0001
    210  CD2        8.2510  -11.8390   21.4620 C.3   350  LEU350      0.0001
    211  N         12.1050   -2.3400   19.5610 N.3   378  CYS378     -0.1235
    212  CA        12.9200   -2.9440   18.5570 C.3   378  CYS378      0.1677
    213  C         12.1870   -4.1510   18.0160 C.2   378  CYS378      0.2270
    214  O         11.3000   -4.7020   18.6740 O.2   378  CYS378     -0.2867
    215  CB        14.2650   -3.3870   19.1250 C.3   378  CYS378      0.0956
    216  SG        14.1750   -4.6360   20.4260 S.3   378  CYS378     -0.0801
    217  N         12.7420   -7.8440   15.9530 N.3   380  GLY380     -0.1225
    218  CA        13.5690   -8.9290   15.3950 C.3   380  GLY380      0.1811
    219  C         13.5760   -8.9010   13.8810 C.2   380  GLY380      0.2280
    220  O         12.5540   -8.5960   13.2570 O.2   380  GLY380     -0.2866
@<TRIPOS>BOND
     1   220   219    2
     2   219   218    1
     3   218   217    1
     4   173   170    1
     5   173   174    1
     6   170   169    1
     7   170   171    1
     8    50    49    1
     9   172   171    2
    10   174   175    1
    11    49    48    1
    12   175   176    1
    13    35    36    1
    14    37    36    1
    15    37    38    2
    16   213   212    1
    17   213   214    2
    18   212   215    1
    19   212   211    1
    20    36    39    1
    21    48    47    1
    22    24    23    2
    23   215   216    1
    24    43    44    1
    25    23    22    1
    26    44    47    1
    27    44    45    1
    28   209   208    1
    29    39    40    1
    30   207   208    1
    31   207   204    1
    32    21    22    1
    33    22    25    1
    34    46    45    2
    35    42    40    1
    36    40    41    1
    37   206   205    2
    38   208   210    1
    39   205   204    1
    40    25    26    1
    41    27    26   ar
    42    27    29   ar
    43   204   203    1
    44    26    28   ar
    45    29    30   ar
    46   202   201   ar
    47   202   200   ar
    48    28    30   ar
    49    28    31   ar
    50   201   199   ar
    51    30    32   ar
    52   191   192   ar
    53   191   189   ar
    54    20    19    1
    55    31    33   ar
    56   181   178    1
    57   192   190   ar
    58   200   198   ar
    59    18    19    1
    60    18    17    1
    61    32    34   ar
    62   189   187   ar
    63   123   122    2
    64   127   129   ar
    65   127   125   ar
    66   199   198   ar
    67    14    13    1
    68    14    17    1
    69    14    15    1
    70   129   130   ar
    71    16    15    2
    72    33    34   ar
    73   124   125    1
    74   124   121    1
    75   198   197    1
    76   125   126   ar
    77   190   188   ar
    78   196   195    2
    79   122   121    1
    80   178   177    1
    81   178   179    1
    82   187   188   ar
    83   187   186    1
    84   130   128   ar
    85   121   120    1
    86   195   194    1
    87   126   128   ar
    88   179   182   am
    89   179   180    2
    90   186   183    1
    91   182   183    1
    92   197   194    1
    93   157   156    1
    94   194   193    1
    95   168   166    1
    96    12    11    1
    97   120   115   am
    98   183   184    1
    99   167   166    1
   100   185   184    2
   101   116   115    2
   102     9    11   ar
   103     9     7   ar
   104   115   114    1
   105   166   163    1
   106    11    10   ar
   107   156   153    1
   108   163   164    1
   109   163   162    1
   110     7     6   ar
   111   118   117    1
   112   161   160    2
   113   164   165    2
   114   155   154    2
   115   162   160   am
   116   152   153    1
   117   152   149   am
   118   151   148    1
   119   160   159    1
   120    10     8   ar
   121   153   154    1
   122   114   117    1
   123   114   113    1
   124   117   119    1
   125   154   158   am
   126     6     8   ar
   127     6     5    1
   128   148   149    1
   129   148   147    1
   130   149   150    2
   131   158   159    1
   132     5     2    1
   133     2     3    1
   134     2     1    1
   135   131   132    1
   136   134   133    2
   137     3     4    2
   138   133   132    1
   139   133   138   am
   140   132   135    1
   141   138   139    1
   142   139   142    1
   143   139   140    1
   144   135   137    1
   145   135   136    1
   146   141   140    2
   147    69    68   ar
   148    69    67   ar
   149   140   143   am
   150    68    66   ar
   151    67    65   ar
   152    66    65   ar
   153    65    64    1
   154   143   144    1
   155    64    61    1
   156   145   146    2
   157   145   144    1
   158    61    60    1
   159    61    62    1
   160   108   107    2
   161   107   106    1
   162    62    63    2
   163   109   106    1
   164   109   110    1
   165   111   110    1
   166    59    57   am
   167   106   105    1
   168    51    52    1
   169   110   112    1
   170   100    99    2
   171    57    58    2
   172    57    56    1
   173   104   102    1
   174    56    55    1
   175    52    55    1
   176    52    53    1
   177   103   102    1
   178    76    75    1
   179    76    77    1
   180   101   102    1
   181   101    98    1
   182    99    98    1
   183    79    78    1
   184    98    97    1
   185    70    71    1
   186    75    74    1
   187    53    54    2
   188    77    78    2
   189    78    80    1
   190    74    71    1
   191    71    72    1
   192    97    90   am
   193    86    85    1
   194    91    90    2
   195    87    85    1
   196    90    89    1
   197    73    72    2
   198    85    82    1
   199    89    92    1
   200    89    88    1
   201    82    81    1
   202    82    83    1
   203    92    93    1
   204    83    84    2
   205    95    94    2
   206    93    94    1
   207    94    96   am
