@<TRIPOS>MOLECULE
tmp/4c2oA00.pdb
 106 107 0 0 0
SMALL
GASTEIGER

@<TRIPOS>ATOM
      1  N         -2.5690    3.9730  -21.0390 N.3   178  GLY178     -0.1225
      2  CA        -1.5930    4.1410  -22.1130 C.3   178  GLY178      0.1811
      3  C         -1.1040    5.5880  -22.1620 C.2   178  GLY178      0.2280
      4  O          0.0900    5.8510  -22.2310 O.2   178  GLY178     -0.2866
      5  N          1.3170    5.9610  -19.3600 N.3   181  TRP181     -0.1227
      6  CA         2.6220    5.3810  -19.6970 C.3   181  TRP181      0.1737
      7  C          3.4450    6.2560  -20.6430 C.2   181  TRP181      0.2595
      8  O          4.6330    6.4790  -20.4310 O.2   181  TRP181     -0.2718
      9  CB         2.4030    4.0090  -20.3260 C.3   181  TRP181      0.0564
     10  CG         1.9940    2.9560  -19.3400 C.ar  181  TRP181      0.0003
     11  CD1        1.7280    3.1200  -18.0140 C.ar  181  TRP181      0.0946
     12  CD2        1.8240    1.5730  -19.6140 C.ar  181  TRP181      0.0152
     13  NE1        1.4230    1.9170  -17.4430 N.ar  181  TRP181     -0.2442
     14  CE2        1.4670    0.9480  -18.4090 C.ar  181  TRP181      0.0810
     15  CE3        1.9470    0.7910  -20.7730 C.ar  181  TRP181      0.0012
     16  CZ2        1.2160   -0.4170  -18.3260 C.ar  181  TRP181      0.0191
     17  CZ3        1.7000   -0.5630  -20.6830 C.ar  181  TRP181      0.0001
     18  CH2        1.3570   -1.1550  -19.4690 C.ar  181  TRP181      0.0015
     19  N          2.8070    6.7400  -21.6880 N.am  182  ARG182     -0.1980
     20  CA         3.4880    7.5110  -22.7160 C.3   182  ARG182      0.1597
     21  C          3.9810    8.8340  -22.1630 C.2   182  ARG182      0.2287
     22  O          4.9900    9.3800  -22.6200 O.2   182  ARG182     -0.2864
     23  CB         2.5450    7.7310  -23.8890 C.3   182  ARG182      0.0334
     24  CG         2.2790    6.4400  -24.6580 C.3   182  ARG182      0.0492
     25  CD         1.5900    6.7150  -25.9720 C.3   182  ARG182      0.2205
     26  NE         0.3300    7.4190  -25.8100 N.pl3 182  ARG182     -0.0865
     27  CZ        -0.8360    6.8390  -25.5000 C.cat 182  ARG182      0.5346
     28  NH1       -0.9010    5.5280  -25.2840 N.pl3 182  ARG182      0.1354
     29  NH2       -1.9350    7.5850  -25.3700 N.pl3 182  ARG182      0.1354
     30  N          3.0950   -4.6100  -30.4460 N.3   425  VAL425     -0.1231
     31  CA         2.7190   -4.7880  -29.0470 C.3   425  VAL425      0.1692
     32  C          2.2850   -3.4360  -28.4720 C.2   425  VAL425      0.2592
     33  O          1.2290   -3.3440  -27.8380 O.2   425  VAL425     -0.2718
     34  CB         3.8550   -5.4000  -28.2190 C.3   425  VAL425      0.0266
     35  CG1        3.4810   -5.4550  -26.7400 C.3   425  VAL425      0.0020
     36  CG2        4.1970   -6.7960  -28.7530 C.3   425  VAL425      0.0020
     37  N          3.0640   -2.3990  -28.7950 N.am  426  THR426     -0.1953
     38  CA         2.7830   -1.0370  -28.3830 C.3   426  THR426      0.1897
     39  C          1.3920   -0.5980  -28.8520 C.2   426  THR426      0.2313
     40  O          0.5570   -0.1610  -28.0540 O.2   426  THR426     -0.2863
     41  CB         3.8780   -0.0710  -28.9070 C.3   426  THR426      0.1794
     42  OG1        5.1280   -0.3710  -28.2620 O.3   426  THR426     -0.2208
     43  CG2        3.5170    1.3740  -28.6440 C.3   426  THR426      0.0378
     44  N         -1.7820   -2.6500  -27.2220 N.3   429  ARG429     -0.1231
     45  CA        -2.1340   -2.2940  -25.8520 C.3   429  ARG429      0.1694
     46  C         -2.5990   -0.8550  -25.7430 C.2   429  ARG429      0.2592
     47  O         -3.5050   -0.5450  -24.9650 O.2   429  ARG429     -0.2718
     48  CB        -0.9720   -2.5890  -24.9200 C.3   429  ARG429      0.0321
     49  CG        -1.3030   -2.4150  -23.4660 C.3   429  ARG429      0.0489
     50  CD        -0.4140   -3.2620  -22.5680 C.3   429  ARG429      0.2205
     51  NE         0.9940   -3.1740  -22.9340 N.pl3 429  ARG429     -0.0865
     52  CZ         1.9650   -3.8280  -22.3180 C.cat 429  ARG429      0.5346
     53  NH1        1.6990   -4.6240  -21.2830 N.pl3 429  ARG429      0.1354
     54  NH2        3.2040   -3.7070  -22.7720 N.pl3 429  ARG429      0.1354
     55  N         -2.0210    0.0160  -26.5660 N.am  430  TRP430     -0.1976
     56  CA        -2.4810    1.4060  -26.6980 C.3   430  TRP430      0.1640
     57  C         -3.9900    1.4340  -26.9630 C.2   430  TRP430      0.2290
     58  O         -4.7490    2.1640  -26.2960 O.2   430  TRP430     -0.2864
     59  CB        -1.6870    2.0490  -27.8380 C.3   430  TRP430      0.0576
     60  CG        -1.6990    3.5280  -28.0580 C.ar  430  TRP430      0.0006
     61  CD1       -2.7670    4.3850  -27.9940 C.ar  430  TRP430      0.0946
     62  CD2       -0.5770    4.3170  -28.5090 C.ar  430  TRP430      0.0152
     63  NE1       -2.3670    5.6640  -28.3270 N.ar  430  TRP430     -0.2442
     64  CE2       -1.0280    5.6530  -28.6330 C.ar  430  TRP430      0.0810
     65  CE3        0.7690    4.0270  -28.7610 C.ar  430  TRP430      0.0012
     66  CZ2       -0.1790    6.7050  -29.0220 C.ar  430  TRP430      0.0191
     67  CZ3        1.6230    5.0620  -29.1580 C.ar  430  TRP430      0.0001
     68  CH2        1.1420    6.3930  -29.2750 C.ar  430  TRP430      0.0015
     69  N         -6.1550    0.0150  -24.0690 N.3   433  PHE433     -0.1241
     70  CA        -6.2970    1.0320  -23.0220 C.3   433  PHE433      0.1605
     71  C         -7.2190    2.1810  -23.4360 C.2   433  PHE433      0.2264
     72  O         -8.0120    2.6720  -22.6130 O.2   433  PHE433     -0.2867
     73  CB        -4.9410    1.5760  -22.5640 C.3   433  PHE433      0.0534
     74  CG        -4.1360    0.6160  -21.7190 C.ar  433  PHE433     -0.0203
     75  CD1       -4.7360   -0.3630  -20.9500 C.ar  433  PHE433     -0.0042
     76  CD2       -2.7360    0.7350  -21.6680 C.ar  433  PHE433     -0.0042
     77  CE1       -3.9860   -1.2200  -20.1600 C.ar  433  PHE433     -0.0003
     78  CE2       -1.9790   -0.1240  -20.8880 C.ar  433  PHE433     -0.0003
     79  CZ        -2.6060   -1.1050  -20.1320 C.ar  433  PHE433     -0.0000
     80  N          5.4050   -1.9680  -19.7440 N.3   480  PRO480     -0.2102
     81  CA         5.3060   -1.2190  -21.0060 C.3   480  PRO480      0.1504
     82  C          6.3080   -1.6930  -22.0770 C.2   480  PRO480      0.2576
     83  O          7.4290   -2.1030  -21.7490 O.2   480  PRO480     -0.2718
     84  CB         5.6220    0.2200  -20.5820 C.3   480  PRO480      0.0282
     85  CG         5.2420    0.2630  -19.1290 C.3   480  PRO480      0.0208
     86  CD         5.6530   -1.0730  -18.6020 C.3   480  PRO480      0.0893
     87  N          5.9110   -1.6140  -23.3410 N.am  481  TYR481     -0.1963
     88  CA         6.7020   -2.1670  -24.4490 C.3   481  TYR481      0.1771
     89  C          7.3280   -1.1410  -25.3790 C.2   481  TYR481      0.2619
     90  O          8.2690   -1.4800  -26.0980 O.2   481  TYR481     -0.2715
     91  CB         5.8650   -3.1480  -25.2860 C.3   481  TYR481      0.0574
     92  CG         6.7210   -4.3260  -25.7340 C.ar  481  TYR481     -0.0198
     93  CD1        7.0610   -5.3070  -24.8270 C.ar  481  TYR481     -0.0009
     94  CD2        7.2560   -4.4040  -27.0250 C.ar  481  TYR481     -0.0009
     95  CE1        7.8710   -6.3810  -25.1790 C.ar  481  TYR481      0.0417
     96  CE2        8.0630   -5.4900  -27.3890 C.ar  481  TYR481      0.0417
     97  CZ         8.3630   -6.4700  -26.4590 C.ar  481  TYR481      0.1957
     98  OH         9.1860   -7.5390  -26.7910 O.3   481  TYR481     -0.2866
     99  N          6.7870    0.0790  -25.3940 N.am  482  ILE482     -0.1977
    100  CA         7.3050    1.1680  -26.2250 C.3   482  ILE482      0.1596
    101  C          8.8020    1.4320  -25.9690 C.2   482  ILE482      0.2287
    102  O          9.5480    1.7920  -26.8960 O.2   482  ILE482     -0.2864
    103  CB         6.4320    2.4600  -26.0600 C.3   482  ILE482      0.0276
    104  CG1        7.0400    3.6670  -26.7540 C.3   482  ILE482      0.0022
    105  CG2        6.2440    2.8540  -24.6090 C.3   482  ILE482      0.0022
    106  CD1        6.0150    4.7700  -26.9340 C.3   482  ILE482      0.0001
@<TRIPOS>BOND
     1    30    31    1
     2    68    67   ar
     3    68    66   ar
     4    67    65   ar
     5    31    32    1
     6    31    34    1
     7    66    64   ar
     8    41    43    1
     9    41    38    1
    10    41    42    1
    11    39    38    1
    12    39    40    2
    13    37    32   am
    14    37    38    1
    15    65    62   ar
    16    36    34    1
    17    64    62   ar
    18    64    63   ar
    19    62    60   ar
    20    32    33    2
    21    63    61   ar
    22    34    35    1
    23    60    61   ar
    24    60    59    1
    25    59    56    1
    26    96    94   ar
    27    96    97   ar
    28    44    45    1
    29    94    92   ar
    30    57    56    1
    31    57    58    2
    32   106   104    1
    33   102   101    2
    34    98    97    1
    35   104   103    1
    36    56    55    1
    37    55    46   am
    38    97    95   ar
    39   100   103    1
    40   100   101    1
    41   100    99    1
    42    90    89    2
    43   103   105    1
    44    25    26    1
    45    25    24    1
    46    45    46    1
    47    45    48    1
    48    26    27    2
    49    46    47    2
    50    92    91    1
    51    92    93   ar
    52    27    29    1
    53    27    28    1
    54    99    89   am
    55    89    88    1
    56    91    88    1
    57    95    93   ar
    58    48    49    1
    59    24    23    1
    60    88    87    1
    61    69    70    1
    62    23    20    1
    63    49    50    1
    64    71    70    1
    65    71    72    2
    66    87    82   am
    67    70    73    1
    68    51    50    1
    69    51    52    2
    70    54    52    1
    71    20    21    1
    72    20    19    1
    73    22    21    2
    74    73    74    1
    75    52    53    1
    76     4     3    2
    77     3     2    1
    78     2     1    1
    79    82    83    2
    80    82    81    1
    81    74    76   ar
    82    74    75   ar
    83    19     7   am
    84    76    78   ar
    85    81    84    1
    86    81    80    1
    87    75    77   ar
    88    78    79   ar
    89    15    17   ar
    90    15    12   ar
    91    17    18   ar
    92     7     8    2
    93     7     6    1
    94    84    85    1
    95     9     6    1
    96     9    10    1
    97    77    79   ar
    98    80    86    1
    99     6     5    1
   100    12    10   ar
   101    12    14   ar
   102    18    16   ar
   103    10    11   ar
   104    85    86    1
   105    14    16   ar
   106    14    13   ar
   107    11    13   ar
