@<TRIPOS>MOLECULE
tmp/4c2uA00.pdb
 168 158 0 0 0
SMALL
GASTEIGER

@<TRIPOS>ATOM
      1  N         18.6370   71.0260  -92.5310 N.3     9  ALA9       -0.1231
      2  CA        18.8880   70.2190  -91.3460 C.3     9  ALA9        0.1694
      3  C         20.1400   69.3290  -91.3850 C.2     9  ALA9        0.2592
      4  O         20.4500   68.6600  -90.3930 O.2     9  ALA9       -0.2718
      5  CB        17.6440   69.4030  -91.0140 C.3     9  ALA9        0.0304
      6  N         20.8720   69.3200  -92.5010 N.am   10  LEU10      -0.1966
      7  CA        22.0290   68.4270  -92.6230 C.3    10  LEU10       0.1728
      8  C         23.1680   69.0310  -93.4200 C.2    10  LEU10       0.2616
      9  O         22.9510   69.8680  -94.2860 O.2    10  LEU10      -0.2715
     10  CB        21.6130   67.1110  -93.3030 C.3    10  LEU10       0.0311
     11  CG        20.3700   66.3390  -92.8920 C.3    10  LEU10       0.0022
     12  CD1       19.9070   65.5190  -94.0790 C.3    10  LEU10       0.0001
     13  CD2       20.6750   65.4740  -91.6610 C.3    10  LEU10       0.0001
     14  N         24.3820   68.5830  -93.1580 N.am   11  ASN11      -0.1972
     15  CA        25.4730   69.0070  -93.9800 C.3    11  ASN11       0.1688
     16  C         25.3550   68.3820  -95.3590 C.2    11  ASN11       0.2292
     17  O         24.6210   67.4290  -95.5300 O.2    11  ASN11      -0.2864
     18  CB        26.8140   68.7450  -93.3080 C.3    11  ASN11       0.1181
     19  CG        27.2260   67.2830  -93.3480 C.2    11  ASN11       0.2629
     20  OD1       27.1500   66.5970  -94.3950 O.2    11  ASN11      -0.2716
     21  ND2       27.7100   66.8060  -92.2070 N.am   11  ASN11      -0.0877
     22  N         25.7480   64.4890  -95.7340 N.3    14  GLN14      -0.1245
     23  CA        24.5910   63.9000  -95.1040 C.3    14  GLN14       0.1566
     24  C         23.3650   64.0930  -96.0130 C.2    14  GLN14       0.2260
     25  O         22.5270   63.1850  -96.1830 O.2    14  GLN14      -0.2867
     26  CB        24.2930   64.5590  -93.7650 C.3    14  GLN14       0.0367
     27  CG        25.3200   64.3480  -92.6900 C.3    14  GLN14       0.0905
     28  CD        25.0260   65.1750  -91.4260 C.2    14  GLN14       0.2608
     29  OE1       24.5650   66.3280  -91.5080 O.2    14  GLN14      -0.2717
     30  NE2       25.2850   64.5900  -90.2610 N.am   14  GLN14      -0.0878
     31  N         31.8670   57.5700  -85.1790 N.3    31  ALA31      -0.1231
     32  CA        30.8630   57.8020  -84.1410 C.3    31  ALA31       0.1694
     33  C         30.4170   59.2590  -84.0710 C.2    31  ALA31       0.2593
     34  O         31.1980   60.1670  -84.3460 O.2    31  ALA31      -0.2718
     35  CB        31.4330   57.3920  -82.8150 C.3    31  ALA31       0.0304
     36  N         29.1620   59.4750  -83.6920 N.am   32  GLY32      -0.1942
     37  CA        28.6490   60.8130  -83.4720 C.3    32  GLY32       0.2014
     38  C         28.5490   61.6250  -84.7450 C.2    32  GLY32       0.2640
     39  O         28.3230   62.8310  -84.6910 O.2    32  GLY32      -0.2714
     40  N         28.6600   60.9730  -85.9010 N.am   33  SER33      -0.1935
     41  CA        28.6610   61.6970  -87.1560 C.3    33  SER33       0.2055
     42  C         27.2980   61.8780  -87.8330 C.2    33  SER33       0.2644
     43  O         27.2280   62.2460  -88.9870 O.2    33  SER33      -0.2714
     44  CB        29.6190   61.0180  -88.1230 C.3    33  SER33       0.2130
     45  OG        29.1330   59.7470  -88.4630 O.3    33  SER33      -0.2179
     46  N         26.2110   61.5640  -87.1390 N.am   34  GLY34      -0.1939
     47  CA        24.8560   61.6900  -87.7230 C.3    34  GLY34       0.2014
     48  C         24.3960   60.6230  -88.7220 C.2    34  GLY34       0.2639
     49  O         23.5980   60.9270  -89.5910 O.2    34  GLY34      -0.2714
     50  N         24.8500   59.3620  -88.5780 N.am   35  LYS35      -0.1963
     51  CA        24.3160   58.2700  -89.4250 C.3    35  LYS35       0.1728
     52  C         22.8230   58.0740  -89.2140 C.2    35  LYS35       0.2617
     53  O         22.0570   58.0740  -90.1550 O.2    35  LYS35      -0.2715
     54  CB        25.0550   56.9720  -89.1640 C.3    35  LYS35       0.0311
     55  CG        26.5410   57.0410  -89.4360 C.3    35  LYS35       0.0038
     56  CD        27.2180   55.7000  -89.2750 C.3    35  LYS35       0.0206
     57  CE        27.3690   55.2720  -87.7810 C.3    35  LYS35       0.1093
     58  NZ        28.0510   56.2130  -86.8420 N.3    35  LYS35      -0.1314
     59  N         22.4210   57.9480  -87.9670 N.am   36  THR36      -0.1937
     60  CA        21.0540   57.7680  -87.5540 C.3    36  THR36       0.2028
     61  C         20.1950   58.9630  -87.9150 C.2    36  THR36       0.2642
     62  O         19.0660   58.8070  -88.3810 O.2    36  THR36      -0.2714
     63  CB        21.0200   57.5170  -86.0420 C.3    36  THR36       0.1808
     64  OG1       21.8640   56.3890  -85.7520 O.3    36  THR36      -0.2208
     65  CG2       19.5970   57.2520  -85.5030 C.3    36  THR36       0.0379
     66  N         20.7060   60.1660  -87.7220 N.am   37  ARG37      -0.1977
     67  CA        19.9700   61.3300  -88.1730 C.3    37  ARG37       0.1597
     68  C         19.7110   61.2930  -89.6800 C.2    37  ARG37       0.2287
     69  O         18.6470   61.6560  -90.1520 O.2    37  ARG37      -0.2864
     70  CB        20.7470   62.5800  -87.8360 C.3    37  ARG37       0.0334
     71  CG        20.2120   63.8180  -88.4970 C.3    37  ARG37       0.0492
     72  CD        20.2240   64.9270  -87.5160 C.3    37  ARG37       0.2205
     73  NE        20.1380   66.2120  -88.1570 N.pl3  37  ARG37      -0.0865
     74  CZ        19.6870   67.2830  -87.5280 C.cat  37  ARG37       0.5346
     75  NH1       19.2940   67.1660  -86.2640 N.pl3  37  ARG37       0.1354
     76  NH2       19.6090   68.4510  -88.1570 N.pl3  37  ARG37       0.1354
     77  N         10.5100   60.6310  -84.4960 N.3    73  ARG73      -0.1245
     78  CA        11.2350   61.6940  -85.0850 C.3    73  ARG73       0.1563
     79  C         10.8660   61.8510  -86.5570 C.2    73  ARG73       0.2260
     80  O         10.8780   62.9640  -87.0980 O.2    73  ARG73      -0.2867
     81  CB        12.7410   61.4520  -84.8940 C.3    73  ARG73       0.0307
     82  CG        13.1620   61.5210  -83.4360 C.3    73  ARG73       0.0489
     83  CD        14.5300   62.1110  -83.2260 C.3    73  ARG73       0.2205
     84  NE        14.7950   63.2920  -84.0580 N.pl3  73  ARG73      -0.0865
     85  CZ        16.0160   63.6500  -84.4570 C.cat  73  ARG73       0.5346
     86  NH1       17.0570   62.9100  -84.0990 N.pl3  73  ARG73       0.1354
     87  NH2       16.1990   64.7380  -85.2110 N.pl3  73  ARG73       0.1354
     88  N         20.3000   49.8360  -89.8890 N.3   221  ASP221     -0.1225
     89  CA        21.2200   50.5900  -89.0790 C.3   221  ASP221      0.1805
     90  C         22.1580   49.6060  -88.3670 C.2   221  ASP221      0.2597
     91  O         21.8480   48.4370  -88.2960 O.2   221  ASP221     -0.2718
     92  CB        20.4400   51.4590  -88.0920 C.3   221  ASP221      0.1424
     93  CG        21.2640   52.6140  -87.5320 C.2   221  ASP221      0.3668
     94  OD1       22.4860   52.6860  -87.7770 O.co2 221  ASP221     -0.2456
     95  OD2       20.7120   53.4520  -86.8030 O.co2 221  ASP221     -0.2456
     96  N         23.2660   50.0760  -87.8170 N.am  222  GLU222     -0.1979
     97  CA        24.1470   49.2050  -87.0420 C.3   222  GLU222      0.1602
     98  C         24.6010   47.9930  -87.8690 C.2   222  GLU222      0.2287
     99  O         24.7290   46.9000  -87.3530 O.2   222  GLU222     -0.2864
    100  CB        23.4440   48.7430  -85.7450 C.3   222  GLU222      0.0415
    101  CG        22.9610   49.8940  -84.8460 C.3   222  GLU222      0.1163
    102  CD        24.0780   50.7090  -84.1900 C.2   222  GLU222      0.3649
    103  OE1       25.2070   50.2680  -84.2750 O.co2 222  GLU222     -0.2457
    104  OE2       23.8490   51.8130  -83.6090 O.co2 222  GLU222     -0.2457
    105  N         32.8070   50.5150  -84.2680 N.3   252  GLN252     -0.1245
    106  CA        31.8820   50.2760  -83.1770 C.3   252  GLN252      0.1566
    107  C         31.2240   48.8880  -83.2350 C.2   252  GLN252      0.2260
    108  O         30.1770   48.6560  -82.6130 O.2   252  GLN252     -0.2867
    109  CB        30.8630   51.4110  -83.0420 C.3   252  GLN252      0.0367
    110  CG        31.4660   52.8490  -82.8710 C.3   252  GLN252      0.0905
    111  CD        30.3260   53.8880  -82.7940 C.2   252  GLN252      0.2608
    112  OE1       29.6360   53.9750  -81.7740 O.2   252  GLN252     -0.2717
    113  NE2       30.0760   54.6240  -83.9060 N.am  252  GLN252     -0.0878
    114  N         29.3580   65.4700  -84.4810 N.3   284  TYR284     -0.1227
    115  CA        28.5490   66.6100  -83.9670 C.3   284  TYR284      0.1736
    116  C         28.1780   66.4270  -82.5080 C.2   284  TYR284      0.2595
    117  O         27.4560   67.2250  -81.9320 O.2   284  TYR284     -0.2718
    118  CB        27.2330   66.7960  -84.7580 C.3   284  TYR284      0.0548
    119  CG        27.4350   67.3550  -86.1620 C.ar  284  TYR284     -0.0200
    120  CD1       27.7610   66.4930  -87.2290 C.ar  284  TYR284     -0.0009
    121  CD2       27.3330   68.7470  -86.4340 C.ar  284  TYR284     -0.0009
    122  CE1       27.9690   66.9750  -88.5270 C.ar  284  TYR284      0.0417
    123  CE2       27.5480   69.2470  -87.7530 C.ar  284  TYR284      0.0417
    124  CZ        27.8620   68.3330  -88.7790 C.ar  284  TYR284      0.1957
    125  OH        28.0910   68.7240  -90.0570 O.3   284  TYR284     -0.2866
    126  N         28.6660   65.3630  -81.9080 N.am  285  ARG285     -0.1980
    127  CA        28.1280   64.9340  -80.6380 C.3   285  ARG285      0.1597
    128  C         29.0020   65.4100  -79.5090 C.2   285  ARG285      0.2287
    129  O         28.5250   65.7630  -78.4500 O.2   285  ARG285     -0.2864
    130  CB        28.0810   63.4040  -80.6040 C.3   285  ARG285      0.0334
    131  CG        27.7800   62.8240  -79.2240 C.3   285  ARG285      0.0492
    132  CD        27.8470   61.3610  -79.2250 C.3   285  ARG285      0.2205
    133  NE        26.7140   60.7220  -79.9320 N.pl3 285  ARG285     -0.0865
    134  CZ        26.7680   59.4890  -80.4490 C.cat 285  ARG285      0.5346
    135  NH1       27.8750   58.7980  -80.3550 N.pl3 285  ARG285      0.1354
    136  NH2       25.7190   58.9400  -81.0350 N.pl3 285  ARG285      0.1354
    137  N         24.6540   53.2030  -79.7100 N.3   569  GLY569     -0.1225
    138  CA        23.7090   54.1310  -80.2760 C.3   569  GLY569      0.1811
    139  C         23.3640   55.4140  -79.4830 C.2   569  GLY569      0.2280
    140  O         22.9340   56.3960  -80.0950 O.2   569  GLY569     -0.2866
    141  N         23.6690   58.5930  -76.2720 N.3   571  GLU571     -0.1245
    142  CA        24.4980   59.7770  -76.0470 C.3   571  GLU571      0.1567
    143  C         24.0470   60.5100  -74.7900 C.2   571  GLU571      0.2260
    144  O         22.8650   60.5590  -74.4950 O.2   571  GLU571     -0.2867
    145  CB        24.4530   60.7070  -77.2570 C.3   571  GLU571      0.0388
    146  CG        23.1140   61.5240  -77.4130 C.3   571  GLU571      0.1160
    147  CD        23.1780   62.4510  -78.6140 C.2   571  GLU571      0.3649
    148  OE1       24.1300   62.2670  -79.4240 O.co2 571  GLU571     -0.2457
    149  OE2       22.3080   63.3690  -78.7660 O.co2 571  GLU571     -0.2457
    150  N         30.1390   58.0660  -76.2430 N.3   611  ARG611     -0.1245
    151  CA        28.8350   58.3590  -75.6870 C.3   611  ARG611      0.1563
    152  C         28.7650   59.7890  -75.1260 C.2   611  ARG611      0.2260
    153  O         27.7080   60.4160  -75.1780 O.2   611  ARG611     -0.2867
    154  CB        28.4160   57.3240  -74.6240 C.3   611  ARG611      0.0307
    155  CG        28.3100   55.8580  -75.0790 C.3   611  ARG611      0.0489
    156  CD        27.6000   55.6740  -76.4150 C.3   611  ARG611      0.2205
    157  NE        28.4890   55.6790  -77.5880 N.pl3 611  ARG611     -0.0865
    158  CZ        28.0660   55.7480  -78.8610 C.cat 611  ARG611      0.5346
    159  NH1       26.7600   55.8230  -79.1690 N.pl3 611  ARG611      0.1354
    160  NH2       28.9400   55.7340  -79.8490 N.pl3 611  ARG611      0.1354
    161  N         28.9970   63.8040  -74.4230 N.3   613  MET613     -0.1245
    162  CA        28.8150   65.0180  -75.2200 C.3   613  MET613      0.1570
    163  C         29.5700   66.1870  -74.5970 C.2   613  MET613      0.2261
    164  O         30.2850   66.8820  -75.3230 O.2   613  MET613     -0.2867
    165  CB        27.3220   65.3690  -75.4110 C.3   613  MET613      0.0387
    166  CG        26.4740   64.1950  -75.8880 C.3   613  MET613      0.0595
    167  SD        24.7080   64.4910  -75.8500 S.3   613  MET613     -0.1393
    168  CE        24.6490   65.7490  -77.1480 C.3   613  MET613      0.0692
@<TRIPOS>BOND
     1    25    24    2
     2    24    23    1
     3    22    23    1
     4    17    16    2
     5    16    15    1
     6    23    26    1
     7    20    19    2
     8     9     8    2
     9    12    11    1
    10    15    18    1
    11    15    14    1
    12    26    27    1
    13     8    14   am
    14     8     7    1
    15    19    18    1
    16    19    21   am
    17    10    11    1
    18    10     7    1
    19    11    13    1
    20    27    28    1
    21     7     6    1
    22     1     2    1
    23     6     3   am
    24    29    28    2
    25    28    30   am
    26     3     2    1
    27     3     4    2
    28     2     5    1
    29    53    52    2
    30    69    68    2
    31   125   124    1
    32    88    89    1
    33    68    67    1
    34    49    48    2
    35    55    56    1
    36    55    54    1
    37    51    52    1
    38    51    54    1
    39    51    50    1
    40    56    57    1
    41    52    59   am
    42    89    90    1
    43    89    92    1
    44    43    42    2
    45   124   122   ar
    46   124   123   ar
    47    48    50   am
    48    48    47    1
    49   122   120   ar
    50    71    70    1
    51    71    72    1
    52    45    44    1
    53    62    61    2
    54    90    91    2
    55    90    96   am
    56    67    70    1
    57    67    66    1
    58    73    74    2
    59    73    72    1
    60    76    74    1
    61    44    41    1
    62    92    93    1
    63    59    60    1
    64    61    66   am
    65    61    60    1
    66    98    99    2
    67    98    97    1
    68    42    41    1
    69    42    46   am
    70    96    97    1
    71    57    58    1
    72    94    93   ar
    73   123   121   ar
    74    47    46    1
    75    60    63    1
    76    93    95   ar
    77    74    75    1
    78   120   119   ar
    79    41    40    1
    80    80    79    2
    81    97   100    1
    82    79    78    1
    83   121   119   ar
    84   119   118    1
    85    63    64    1
    86    63    65    1
    87    40    38   am
    88   100   101    1
    89    87    85    1
    90    31    32    1
    91    78    81    1
    92    78    77    1
    93    81    82    1
    94   101   102    1
    95   118   115    1
    96    38    39    2
    97    38    37    1
    98   114   115    1
    99    85    86    1
   100    85    84    2
   101    34    33    2
   102   103   102   ar
   103   105   106    1
   104   102   104   ar
   105    32    33    1
   106    32    35    1
   107    33    36   am
   108    84    83    1
   109   115   116    1
   110   113   111   am
   111    36    37    1
   112    82    83    1
   113   107   106    1
   114   107   108    2
   115   106   109    1
   116   109   110    1
   117   110   111    1
   118   111   112    2
   119   116   117    2
   120   116   126   am
   121   126   127    1
   122   136   134    1
   123   127   130    1
   124   127   128    1
   125   130   131    1
   126   134   135    1
   127   134   133    2
   128   138   137    1
   129   138   139    1
   130   140   139    2
   131   133   132    1
   132   160   158    1
   133   128   129    2
   134   148   147   ar
   135   132   131    1
   136   159   158    1
   137   158   157    2
   138   149   147   ar
   139   147   146    1
   140   157   156    1
   141   146   145    1
   142   145   142    1
   143   168   167    1
   144   156   155    1
   145   141   142    1
   146   150   151    1
   147   142   143    1
   148   166   167    1
   149   166   165    1
   150   151   152    1
   151   151   154    1
   152   165   162    1
   153   164   163    2
   154   162   163    1
   155   162   161    1
   156   153   152    2
   157   155   154    1
   158   143   144    2
