@<TRIPOS>MOLECULE
tmp/4c2vB00.pdb
 211 197 0 0 0
SMALL
GASTEIGER

@<TRIPOS>ATOM
      1  N         48.5690   23.1570   66.0770 N.3    22  ARG22      -0.1245
      2  CA        48.8320   24.4350   65.4760 C.3    22  ARG22       0.1563
      3  C         47.5540   25.0600   64.9090 C.2    22  ARG22       0.2260
      4  O         46.5480   24.3560   64.7340 O.2    22  ARG22      -0.2867
      5  CB        49.9320   24.2900   64.4080 C.3    22  ARG22       0.0307
      6  CG        50.1200   22.9030   63.7670 C.3    22  ARG22       0.0489
      7  CD        48.9690   22.4990   62.8420 C.3    22  ARG22       0.2205
      8  NE        49.0320   21.0790   62.4580 N.pl3  22  ARG22      -0.0865
      9  CZ        48.2880   20.5160   61.4970 C.cat  22  ARG22       0.5346
     10  NH1       47.4100   21.2410   60.7890 N.pl3  22  ARG22       0.1354
     11  NH2       48.4220   19.2160   61.2400 N.pl3  22  ARG22       0.1354
     12  N         44.9390   26.3160   62.1970 N.3    24  LEU24      -0.1245
     13  CA        44.5180   25.5830   61.0130 C.3    24  LEU24       0.1561
     14  C         44.8310   26.3730   59.7170 C.2    24  LEU24       0.2260
     15  O         44.8310   25.8190   58.6230 O.2    24  LEU24      -0.2867
     16  CB        43.0330   25.1140   61.1740 C.3    24  LEU24       0.0270
     17  CG        42.9320   23.8730   62.1130 C.3    24  LEU24       0.0019
     18  CD1       43.7430   22.7250   61.5740 C.3    24  LEU24       0.0001
     19  CD2       41.4650   23.4470   62.3090 C.3    24  LEU24       0.0001
     20  N         41.8440   31.7790   59.9800 N.3    29  PHE29      -0.1241
     21  CA        41.9660   30.6900   60.9480 C.3    29  PHE29       0.1605
     22  C         43.2860   30.5250   61.7140 C.2    29  PHE29       0.2264
     23  O         43.3790   29.5230   62.3530 O.2    29  PHE29      -0.2867
     24  CB        41.8700   29.3080   60.2380 C.3    29  PHE29       0.0534
     25  CG        40.7210   29.1290   59.2720 C.ar   29  PHE29      -0.0203
     26  CD1       40.9800   29.0320   57.9040 C.ar   29  PHE29      -0.0042
     27  CD2       39.4150   28.9500   59.7040 C.ar   29  PHE29      -0.0042
     28  CE1       39.9590   28.8230   56.9870 C.ar   29  PHE29      -0.0003
     29  CE2       38.3860   28.7370   58.7660 C.ar   29  PHE29      -0.0003
     30  CZ        38.6560   28.6820   57.4150 C.ar   29  PHE29      -0.0000
     31  N         42.0670   29.5950   65.1560 N.3    32  VAL32      -0.1245
     32  CA        41.3870   28.2380   65.2390 C.3    32  VAL32       0.1561
     33  C         42.4770   27.2030   65.2540 C.2    32  VAL32       0.2260
     34  O         43.2670   27.0540   64.3000 O.2    32  VAL32      -0.2867
     35  CB        40.4100   27.9910   64.0740 C.3    32  VAL32       0.0252
     36  CG1       39.3430   29.0640   63.9860 C.3    32  VAL32       0.0019
     37  CG2       39.7770   26.6040   64.2530 C.3    32  VAL32       0.0019
     38  N         38.5630   21.1950   66.7040 N.3    45  ALA45      -0.1245
     39  CA        39.1720   22.4810   66.5470 C.3    45  ALA45       0.1562
     40  C         38.7530   23.3290   67.7190 C.2    45  ALA45       0.2260
     41  O         37.6540   23.1380   68.2670 O.2    45  ALA45      -0.2867
     42  CB        38.7380   23.0720   65.2570 C.3    45  ALA45       0.0290
     43  N         38.4860   27.3020   68.6350 N.3    47  LYS47      -0.1245
     44  CA        38.5600   28.7420   68.2810 C.3    47  LYS47       0.1561
     45  C         38.7140   29.5840   69.5420 C.2    47  LYS47       0.2260
     46  O         37.9420   29.4640   70.4490 O.2    47  LYS47      -0.2867
     47  CB        37.3160   29.1520   67.5030 C.3    47  LYS47       0.0271
     48  CG        37.4300   30.6010   66.9890 C.3    47  LYS47       0.0035
     49  CD        36.4230   30.8830   65.9070 C.3    47  LYS47       0.0206
     50  CE        36.6000   32.2810   65.3180 C.3    47  LYS47       0.1093
     51  NZ        35.5240   32.5090   64.3400 N.3    47  LYS47      -0.1314
     52  N         39.0350   33.2910   71.1090 N.3    49  LEU49      -0.1245
     53  CA        38.6740   34.7060   70.9300 C.3    49  LEU49       0.1561
     54  C         39.1090   35.4820   72.1840 C.2    49  LEU49       0.2260
     55  O         38.9570   35.0550   73.3030 O.2    49  LEU49      -0.2867
     56  CB        37.1880   34.8020   70.7590 C.3    49  LEU49       0.0270
     57  CG        36.6180   34.0590   69.5590 C.3    49  LEU49       0.0019
     58  CD1       35.1230   34.0850   69.7770 C.3    49  LEU49       0.0001
     59  CD2       36.9660   34.6490   68.1880 C.3    49  LEU49       0.0001
     60  N         28.6940   37.9560   68.4700 N.3    63  LEU63      -0.1245
     61  CA        29.2140   36.6400   68.9120 C.3    63  LEU63       0.1561
     62  C         28.1960   35.8890   69.7360 C.2    63  LEU63       0.2260
     63  O         28.0370   34.6560   69.6370 O.2    63  LEU63      -0.2867
     64  CB        30.5060   36.8380   69.7270 C.3    63  LEU63       0.0270
     65  CG        31.5530   35.6990   69.8600 C.3    63  LEU63       0.0019
     66  CD1       32.1250   35.4790   71.2760 C.3    63  LEU63       0.0001
     67  CD2       31.2390   34.3840   69.2010 C.3    63  LEU63       0.0001
     68  N         25.6020   34.3910   67.5700 N.3    66  GLU66      -0.1231
     69  CA        26.1850   33.2510   66.8140 C.3    66  GLU66       0.1699
     70  C         26.3860   31.9660   67.6730 C.2    66  GLU66       0.2592
     71  O         25.9770   30.8850   67.2850 O.2    66  GLU66      -0.2718
     72  CB        27.4430   33.6620   66.1660 C.3    66  GLU66       0.0402
     73  CG        28.1020   32.5700   65.3410 C.3    66  GLU66       0.1161
     74  CD        29.1880   33.1380   64.4550 C.2    66  GLU66       0.3649
     75  OE1       29.6790   32.3940   63.5890 O.co2  66  GLU66      -0.2457
     76  OE2       29.6020   34.3290   64.6510 O.co2  66  GLU66      -0.2457
     77  N         26.8980   32.1050   68.8810 N.am   67  ILE67      -0.1980
     78  CA        26.9630   30.9860   69.7790 C.3    67  ILE67       0.1595
     79  C         25.6050   30.4280   70.1560 C.2    67  ILE67       0.2287
     80  O         25.3970   29.1820   70.1540 O.2    67  ILE67      -0.2864
     81  CB        27.7320   31.3680   71.1000 C.3    67  ILE67       0.0276
     82  CG1       29.1360   31.7370   70.7730 C.3    67  ILE67       0.0022
     83  CG2       27.6610   30.2120   72.1240 C.3    67  ILE67       0.0022
     84  CD1       29.9130   32.3690   71.9740 C.3    67  ILE67       0.0001
     85  N         24.4560   28.3890   66.9130 N.3    70  GLN70      -0.1245
     86  CA        25.2350   27.2400   66.4440 C.3    70  GLN70       0.1566
     87  C         25.3240   26.1390   67.4610 C.2    70  GLN70       0.2260
     88  O         25.4200   24.9580   67.0530 O.2    70  GLN70      -0.2867
     89  CB        26.6200   27.7190   65.8870 C.3    70  GLN70       0.0367
     90  CG        27.4070   26.6110   65.1050 C.3    70  GLN70       0.0905
     91  CD        28.7740   27.0520   64.5420 C.2    70  GLN70       0.2608
     92  OE1       29.1990   28.2040   64.7450 O.2    70  GLN70      -0.2717
     93  NE2       29.5090   26.1520   63.8360 N.am   70  GLN70      -0.0878
     94  N         28.5370   22.3000   60.5980 N.3    79  LEU79      -0.1245
     95  CA        29.6710   22.1880   61.4430 C.3    79  LEU79       0.1561
     96  C         29.2900   22.2760   62.9150 C.2    79  LEU79       0.2260
     97  O         28.7190   23.2530   63.3600 O.2    79  LEU79      -0.2867
     98  CB        30.7350   23.2460   61.0830 C.3    79  LEU79       0.0270
     99  CG        32.1250   22.8760   61.6390 C.3    79  LEU79       0.0019
    100  CD1       32.8870   21.7770   60.8380 C.3    79  LEU79       0.0001
    101  CD2       32.9770   24.1400   61.7330 C.3    79  LEU79       0.0001
    102  N         29.2070   22.6990   66.9370 N.3    81  MET81      -0.1245
    103  CA        29.8220   23.2400   68.1320 C.3    81  MET81       0.1570
    104  C         29.5250   22.3610   69.2860 C.2    81  MET81       0.2261
    105  O         28.3750   22.2280   69.7150 O.2    81  MET81      -0.2867
    106  CB        29.2910   24.6670   68.3990 C.3    81  MET81       0.0387
    107  CG        29.9740   25.2770   69.6120 C.3    81  MET81       0.0595
    108  SD        29.3500   26.9830   69.9780 S.3    81  MET81      -0.1393
    109  CE        29.8810   27.8960   68.5620 C.3    81  MET81       0.0692
    110  N         35.6750   28.1170   71.7730 N.3    93  LEU93      -0.1245
    111  CA        34.6290   27.3770   71.0850 C.3    93  LEU93       0.1561
    112  C         35.2100   26.0730   70.6100 C.2    93  LEU93       0.2260
    113  O         36.2130   26.0070   69.9180 O.2    93  LEU93      -0.2867
    114  CB        34.0630   28.1290   69.8680 C.3    93  LEU93       0.0270
    115  CG        33.6720   29.5590   70.1840 C.3    93  LEU93       0.0019
    116  CD1       33.2510   30.1580   68.8260 C.3    93  LEU93       0.0001
    117  CD2       32.6510   29.6780   71.2740 C.3    93  LEU93       0.0001
    118  N         34.8390   23.0840   68.3380 N.3    95  LEU95      -0.1231
    119  CA        34.2090   22.9190   67.0300 C.3    95  LEU95       0.1693
    120  C         34.6220   21.6210   66.3810 C.2    95  LEU95       0.2592
    121  O         35.7910   21.1660   66.4720 O.2    95  LEU95      -0.2718
    122  CB        34.5990   24.1000   66.1020 C.3    95  LEU95       0.0284
    123  CG        34.2740   25.5020   66.5800 C.3    95  LEU95       0.0019
    124  CD1       34.9140   26.5420   65.7370 C.3    95  LEU95       0.0001
    125  CD2       32.8050   25.7210   66.6280 C.3    95  LEU95       0.0001
    126  N         33.7460   21.1030   65.5500 N.am   96  GLU96      -0.1966
    127  CA        34.0510   19.9740   64.6680 C.3    96  GLU96       0.1733
    128  C         35.2210   20.3000   63.7700 C.2    96  GLU96       0.2616
    129  O         35.2770   21.3940   63.1740 O.2    96  GLU96      -0.2715
    130  CB        32.8480   19.6550   63.8430 C.3    96  GLU96       0.0429
    131  CG        32.9660   18.5200   62.8620 C.3    96  GLU96       0.1163
    132  CD        31.7150   18.2560   62.1070 C.2    96  GLU96       0.3649
    133  OE1       31.7630   17.3060   61.2510 O.co2  96  GLU96      -0.2457
    134  OE2       30.6540   18.8530   62.3240 O.co2  96  GLU96      -0.2457
    135  N         36.2180   19.4170   63.6570 N.am   97  PHE97      -0.1960
    136  CA        37.2730   19.5720   62.6620 C.3    97  PHE97       0.1771
    137  C         36.7760   18.9940   61.3070 C.2    97  PHE97       0.2619
    138  O         36.2470   17.8650   61.2370 O.2    97  PHE97      -0.2715
    139  CB        38.5320   18.7710   63.1350 C.3    97  PHE97       0.0574
    140  CG        39.6800   18.7800   62.1650 C.ar   97  PHE97      -0.0200
    141  CD1       40.2010   19.9190   61.7100 C.ar   97  PHE97      -0.0042
    142  CD2       40.2550   17.5720   61.7550 C.ar   97  PHE97      -0.0042
    143  CE1       41.2910   19.8920   60.8280 C.ar   97  PHE97      -0.0003
    144  CE2       41.3420   17.5600   60.9000 C.ar   97  PHE97      -0.0003
    145  CZ        41.8480   18.7140   60.4370 C.ar   97  PHE97      -0.0000
    146  N         36.9390   19.8120   60.2740 N.am   98  ALA98      -0.1964
    147  CA        36.6130   19.4720   58.8830 C.3    98  ALA98       0.1714
    148  C         37.8540   19.1400   58.0810 C.2    98  ALA98       0.2463
    149  O         38.5590   20.0600   57.6850 O.2    98  ALA98      -0.2730
    150  CB        35.9250   20.7120   58.2650 C.3    98  ALA98       0.0333
    151  N         38.1830   17.8670   58.0370 N.am   99  PRO99      -0.2641
    152  CA        39.5800   17.5340   57.5920 C.3    99  PRO99       0.1762
    153  C         39.9410   17.9350   56.1440 C.2    99  PRO99       0.2642
    154  O         41.1670   18.1070   55.8250 O.2    99  PRO99      -0.2712
    155  CB        39.7010   15.9990   57.7700 C.2    99  PRO99      -0.0003
    156  CG        38.4340   15.5320   58.2750 C.2    99  PRO99      -0.0071
    157  CD        37.4590   16.6350   58.4680 C.3    99  PRO99       0.1204
    158  N         38.9450   18.0410   55.2820 N.am  100  ARG100     -0.1961
    159  CA        39.2110   18.4430   53.8990 C.3   100  ARG100      0.1729
    160  C         39.2080   19.9830   53.7070 C.2   100  ARG100      0.2617
    161  O         39.4980   20.4480   52.5930 O.2   100  ARG100     -0.2715
    162  CB        38.3160   17.7180   52.9080 C.3   100  ARG100      0.0348
    163  CG        38.6120   16.2230   52.7280 C.3   100  ARG100      0.0492
    164  CD        37.9810   15.6370   51.5170 C.3   100  ARG100      0.2205
    165  NE        38.1160   14.2000   51.5350 N.pl3 100  ARG100     -0.0865
    166  CZ        37.5900   13.3450   50.6390 C.cat 100  ARG100      0.5346
    167  NH1       36.9500   13.7860   49.5850 N.pl3 100  ARG100      0.1354
    168  NH2       37.7810   12.0550   50.7630 N.pl3 100  ARG100      0.1354
    169  N         38.9450   20.7690   54.7780 N.am  101  GLY101     -0.1940
    170  CA        39.1320   22.1900   54.7490 C.3   101  GLY101      0.2014
    171  C         38.1530   23.0080   53.9610 C.2   101  GLY101      0.2638
    172  O         36.9850   22.6350   53.8580 O.2   101  GLY101     -0.2714
    173  N         38.6520   24.1180   53.3990 N.am  102  GLU102     -0.1977
    174  CA        37.8010   25.1330   52.7800 C.3   102  GLU102      0.1602
    175  C         37.2630   24.7290   51.4250 C.2   102  GLU102      0.2287
    176  O         38.0400   24.4450   50.4950 O.2   102  GLU102     -0.2864
    177  CB        38.5910   26.4670   52.6730 C.3   102  GLU102      0.0415
    178  CG        38.9100   27.0200   54.0190 C.3   102  GLU102      0.1163
    179  CD        39.7300   28.2560   53.9480 C.2   102  GLU102      0.3649
    180  OE1       40.9690   28.1100   53.7980 O.co2 102  GLU102     -0.2457
    181  OE2       39.1180   29.3690   54.0870 O.co2 102  GLU102     -0.2457
    182  N         38.5700   26.9710   48.3930 N.3   105  LYS105     -0.1245
    183  CA        39.9000   26.6570   47.8260 C.3   105  LYS105      0.1561
    184  C         39.8190   25.4840   46.8500 C.2   105  LYS105      0.2260
    185  O         40.4450   25.4890   45.7890 O.2   105  LYS105     -0.2867
    186  CB        40.8990   26.3480   48.9240 C.3   105  LYS105      0.0271
    187  CG        41.1670   27.5530   49.7240 C.3   105  LYS105      0.0035
    188  CD        42.2850   27.3580   50.7100 C.3   105  LYS105      0.0206
    189  CE        42.5820   28.7510   51.2900 C.3   105  LYS105      0.1093
    190  NZ        43.8670   28.8370   52.0090 N.3   105  LYS105     -0.1314
    191  N         32.7400   24.2840   54.6720 N.3   148  LEU148     -0.1245
    192  CA        33.9280   23.4260   54.8280 C.3   148  LEU148      0.1561
    193  C         33.5280   22.0240   54.3170 C.2   148  LEU148      0.2260
    194  O         32.3930   21.7420   53.9460 O.2   148  LEU148     -0.2867
    195  CB        34.3810   23.3870   56.2920 C.3   148  LEU148      0.0270
    196  CG        34.7900   24.6730   56.9110 C.3   148  LEU148      0.0019
    197  CD1       35.0390   24.4920   58.3980 C.3   148  LEU148      0.0001
    198  CD2       36.0150   25.2700   56.2800 C.3   148  LEU148      0.0001
    199  N         29.4930   26.2230   57.9170 N.3   158  ALA158     -0.1231
    200  CA        30.4730   26.5360   58.9670 C.3   158  ALA158      0.1694
    201  C         30.3150   27.8400   59.7010 C.2   158  ALA158      0.2592
    202  O         30.3700   27.8910   60.9240 O.2   158  ALA158     -0.2718
    203  CB        31.8570   26.3630   58.4850 C.3   158  ALA158      0.0304
    204  N         30.0230   28.8750   58.9670 N.am  159  ASP159     -0.1974
    205  CA        29.9820   30.2540   59.4610 C.3   159  ASP159      0.1709
    206  C         28.5450   30.7170   59.5720 C.2   159  ASP159      0.2293
    207  O         27.8670   30.8570   58.5460 O.2   159  ASP159     -0.2864
    208  CB        30.7750   31.1320   58.4840 C.3   159  ASP159      0.1436
    209  CG        31.1170   32.4950   59.0150 C.2   159  ASP159      0.3671
    210  OD1       30.2590   33.0480   59.6970 O.co2 159  ASP159     -0.2456
    211  OD2       32.3190   32.9660   58.7720 O.co2 159  ASP159     -0.2456
@<TRIPOS>BOND
     1   185   184    2
     2   184   183    1
     3   183   182    1
     4   183   186    1
     5   186   187    1
     6   167   166    1
     7   187   188    1
     8   176   175    2
     9   166   168    1
    10   166   165    2
    11   188   189    1
    12   189   190    1
    13   175   174    1
    14   164   165    1
    15   164   163    1
    16   161   160    2
    17   177   174    1
    18   177   178    1
    19   163   162    1
    20   174   173    1
    21   162   159    1
    22   173   171   am
    23   160   159    1
    24   160   169   am
    25   180   179   ar
    26   172   171    2
    27   159   158    1
    28   194   193    2
    29   179   178    1
    30   179   181   ar
    31   171   170    1
    32   193   192    1
    33   191   192    1
    34   170   169    1
    35   192   195    1
    36   158   153   am
    37   154   153    2
    38   153   152    1
    39   198   196    1
    40   195   196    1
    41   196   197    1
    42    28    30   ar
    43    28    26   ar
    44    30    29   ar
    45   152   155    1
    46   152   151    1
    47   149   148    2
    48   155   156    2
    49    26    25   ar
    50   199   200    1
    51   151   148   am
    52   151   157    1
    53   148   147    1
    54   150   147    1
    55   156   157    1
    56   208   209    1
    57   208   205    1
    58   203   200    1
    59   207   206    2
    60    15    14    2
    61    29    27   ar
    62   211   209   ar
    63   147   146    1
    64   200   201    1
    65   204   205    1
    66   204   201   am
    67   209   210   ar
    68    25    27   ar
    69    25    24    1
    70   205   206    1
    71   201   202    2
    72    14    13    1
    73    20    21    1
    74    24    21    1
    75   146   137   am
    76   145   143   ar
    77   145   144   ar
    78    94    95    1
    79    10     9    1
    80   143   141   ar
    81   100    99    1
    82   144   142   ar
    83    21    22    1
    84    13    16    1
    85    13    12    1
    86    98    95    1
    87    98    99    1
    88    16    17    1
    89   138   137    2
    90    11     9    1
    91   133   132   ar
    92   137   136    1
    93    95    96    1
    94     9     8    2
    95    18    17    1
    96    99   101    1
    97   141   140   ar
    98    22    23    2
    99   142   140   ar
   100   132   134   ar
   101   132   131    1
   102    17    19    1
   103   140   139    1
   104     8     7    1
   105   136   139    1
   106   136   135    1
   107     7     6    1
   108   131   130    1
   109    96    97    2
   110   129   128    2
   111    75    74   ar
   112   135   128   am
   113     6     5    1
   114   128   127    1
   115    93    91   am
   116   130   127    1
   117    36    35    1
   118    35    37    1
   119    35    32    1
   120    34    33    2
   121    51    50    1
   122     5     2    1
   123    74    76   ar
   124    74    73    1
   125    91    92    2
   126    91    90    1
   127   127   126    1
   128     4     3    2
   129     3     2    1
   130    90    89    1
   131    31    32    1
   132    32    33    1
   133    42    39    1
   134    50    49    1
   135    73    72    1
   136     2     1    1
   137   126   120   am
   138   124   123    1
   139    89    86    1
   140    49    48    1
   141   122   123    1
   142   122   119    1
   143    72    69    1
   144   120   121    2
   145   120   119    1
   146    86    85    1
   147    86    87    1
   148    39    38    1
   149    39    40    1
   150   123   125    1
   151    69    68    1
   152    69    70    1
   153   102   103    1
   154    48    47    1
   155   119   118    1
   156    88    87    2
   157    71    70    2
   158    47    44    1
   159    70    77   am
   160    40    41    2
   161   103   106    1
   162   103   104    1
   163    59    57    1
   164    44    43    1
   165    44    45    1
   166   106   107    1
   167    60    61    1
   168   109   108    1
   169   116   115    1
   170    77    78    1
   171    61    64    1
   172    61    62    1
   173    67    65    1
   174   104   105    2
   175    45    46    2
   176    57    58    1
   177    57    56    1
   178   107   108    1
   179    63    62    2
   180    64    65    1
   181    78    79    1
   182    78    81    1
   183    65    66    1
   184   114   115    1
   185   114   111    1
   186   113   112    2
   187    80    79    2
   188   115   117    1
   189   112   111    1
   190    56    53    1
   191    82    81    1
   192    82    84    1
   193    53    52    1
   194    53    54    1
   195   111   110    1
   196    81    83    1
   197    54    55    2
