@<TRIPOS>MOLECULE
tmp/4c2wB00.pdb
 124 119 0 0 0
SMALL
GASTEIGER

@<TRIPOS>ATOM
      1  N         44.7700   53.0840   62.5430 N.3    22  LEU22      -0.1231
      2  CA        44.3300   52.4180   61.3520 C.3    22  LEU22       0.1693
      3  C         44.7030   53.2660   60.1440 C.2    22  LEU22       0.2592
      4  O         44.7900   52.7420   59.0330 O.2    22  LEU22      -0.2718
      5  CB        42.8560   52.0450   61.4170 C.3    22  LEU22       0.0284
      6  CG        42.5080   50.9260   62.4260 C.3    22  LEU22       0.0019
      7  CD1       41.0030   50.6950   62.4470 C.3    22  LEU22       0.0001
      8  CD2       43.1990   49.6410   62.0630 C.3    22  LEU22       0.0001
      9  N         44.9230   54.5550   60.3680 N.am   23  GLY23      -0.1957
     10  CA        45.2850   55.4630   59.2370 C.3    23  GLY23       0.1869
     11  C         46.0680   56.6490   59.7400 C.2    23  GLY23       0.2309
     12  O         46.1860   56.8560   60.9470 O.2    23  GLY23      -0.2863
     13  N         41.4440   58.8120   59.9800 N.3    27  PHE27      -0.1241
     14  CA        41.3680   57.7270   60.9970 C.3    27  PHE27       0.1605
     15  C         42.6220   57.6480   61.8740 C.2    27  PHE27       0.2264
     16  O         42.9590   56.5890   62.4440 O.2    27  PHE27      -0.2867
     17  CB        41.1030   56.4020   60.2870 C.3    27  PHE27       0.0534
     18  CG        39.7850   56.3690   59.6000 C.ar   27  PHE27      -0.0203
     19  CD1       38.5950   56.5370   60.3410 C.ar   27  PHE27      -0.0042
     20  CD2       39.7070   56.2080   58.2130 C.ar   27  PHE27      -0.0042
     21  CE1       37.3540   56.5370   59.7110 C.ar   27  PHE27      -0.0003
     22  CE2       38.4680   56.2100   57.5780 C.ar   27  PHE27      -0.0003
     23  CZ        37.2950   56.3730   58.3210 C.ar   27  PHE27      -0.0000
     24  N         41.9110   56.3390   65.2560 N.3    30  VAL30      -0.1245
     25  CA        41.2150   55.0490   65.4530 C.3    30  VAL30       0.1561
     26  C         42.3030   53.9920   65.4830 C.2    30  VAL30       0.2260
     27  O         43.1410   53.9390   64.5820 O.2    30  VAL30      -0.2867
     28  CB        40.2290   54.7830   64.3190 C.3    30  VAL30       0.0252
     29  CG1       39.5070   53.4350   64.5700 C.3    30  VAL30       0.0019
     30  CG2       39.1730   55.8810   64.1930 C.3    30  VAL30       0.0019
     31  N         38.2660   48.0150   66.6740 N.3    43  ALA43      -0.1245
     32  CA        38.8580   49.3170   66.4630 C.3    43  ALA43       0.1562
     33  C         38.4560   50.1940   67.6820 C.2    43  ALA43       0.2260
     34  O         37.3600   50.0880   68.2540 O.2    43  ALA43      -0.2867
     35  CB        38.3840   49.8860   65.1680 C.3    43  ALA43       0.0290
     36  N         28.3990   48.9660   60.5740 N.3    77  LEU77      -0.1245
     37  CA        29.5350   48.8890   61.4250 C.3    77  LEU77       0.1561
     38  C         29.0860   49.0070   62.8780 C.2    77  LEU77       0.2260
     39  O         28.4860   49.9700   63.3170 O.2    77  LEU77      -0.2867
     40  CB        30.5840   49.9830   61.0780 C.3    77  LEU77       0.0270
     41  CG        31.9620   49.6980   61.7190 C.3    77  LEU77       0.0019
     42  CD1       32.6840   48.7150   60.8460 C.3    77  LEU77       0.0001
     43  CD2       32.7940   50.9750   61.7080 C.3    77  LEU77       0.0001
     44  N         34.5790   49.9870   68.3070 N.3    93  LEU93      -0.1231
     45  CA        33.9630   49.8100   67.0270 C.3    93  LEU93       0.1693
     46  C         34.3820   48.4600   66.3860 C.2    93  LEU93       0.2592
     47  O         35.5070   47.9640   66.5640 O.2    93  LEU93      -0.2718
     48  CB        34.2870   50.9680   66.0650 C.3    93  LEU93       0.0284
     49  CG        33.9410   52.3530   66.5470 C.3    93  LEU93       0.0019
     50  CD1       34.5350   53.3490   65.5770 C.3    93  LEU93       0.0001
     51  CD2       32.4500   52.4930   66.5270 C.3    93  LEU93       0.0001
     52  N         33.5340   47.9450   65.5380 N.am   94  GLU94      -0.1966
     53  CA        33.8560   46.8030   64.6640 C.3    94  GLU94       0.1733
     54  C         35.0290   47.1160   63.7630 C.2    94  GLU94       0.2616
     55  O         35.1240   48.1870   63.1340 O.2    94  GLU94      -0.2715
     56  CB        32.6210   46.3850   63.8890 C.3    94  GLU94       0.0429
     57  CG        32.8110   45.2660   62.8860 C.3    94  GLU94       0.1163
     58  CD        31.5640   44.9320   62.1360 C.2    94  GLU94       0.3649
     59  OE1       30.4830   45.5800   62.2830 O.co2  94  GLU94      -0.2457
     60  OE2       31.6390   43.9580   61.2810 O.co2  94  GLU94      -0.2457
     61  N         35.9840   46.1980   63.7030 N.am   95  PHE95      -0.1960
     62  CA        37.0350   46.2640   62.7310 C.3    95  PHE95       0.1771
     63  C         36.5900   45.7130   61.4000 C.2    95  PHE95       0.2619
     64  O         36.1740   44.5470   61.2700 O.2    95  PHE95      -0.2715
     65  CB        38.2720   45.4670   63.2520 C.3    95  PHE95       0.0574
     66  CG        39.4500   45.4970   62.3170 C.ar   95  PHE95      -0.0200
     67  CD1       40.0660   46.6830   61.9180 C.ar   95  PHE95      -0.0042
     68  CD2       39.9490   44.3380   61.8570 C.ar   95  PHE95      -0.0042
     69  CE1       41.1490   46.6600   61.0610 C.ar   95  PHE95      -0.0003
     70  CE2       41.0300   44.3040   61.0110 C.ar   95  PHE95      -0.0003
     71  CZ        41.6220   45.4230   60.5920 C.ar   95  PHE95      -0.0000
     72  N         36.7040   46.5290   60.3610 N.am   96  ALA96      -0.1964
     73  CA        36.4070   46.1160   58.9860 C.3    96  ALA96       0.1714
     74  C         37.6780   45.8150   58.1750 C.2    96  ALA96       0.2463
     75  O         38.4100   46.7330   57.6930 O.2    96  ALA96      -0.2730
     76  CB        35.6420   47.3120   58.3600 C.3    96  ALA96       0.0333
     77  N         38.0530   44.5190   58.0930 N.am   97  PRO97      -0.2641
     78  CA        39.4450   44.1940   57.6770 C.3    97  PRO97       0.1762
     79  C         39.7730   44.5790   56.2410 C.2    97  PRO97       0.2642
     80  O         40.9760   44.7090   55.9140 O.2    97  PRO97      -0.2712
     81  CB        39.5120   42.6450   57.8160 C.2    97  PRO97      -0.0003
     82  CG        38.2080   42.2110   58.3150 C.2    97  PRO97      -0.0071
     83  CD        37.2800   43.3590   58.5650 C.3    97  PRO97       0.1204
     84  N         38.7680   44.6340   55.3660 N.am   98  ARG98      -0.1961
     85  CA        39.0110   44.9930   53.9520 C.3    98  ARG98       0.1729
     86  C         38.9830   46.5120   53.6760 C.2    98  ARG98       0.2617
     87  O         39.2090   46.9720   52.5580 O.2    98  ARG98      -0.2715
     88  CB        38.1660   44.1980   53.0160 C.3    98  ARG98       0.0348
     89  CG        38.5040   42.7090   52.9080 C.3    98  ARG98       0.0492
     90  CD        37.8100   42.1490   51.7020 C.3    98  ARG98       0.2205
     91  NE        37.8270   40.6950   51.6270 N.pl3  98  ARG98      -0.0865
     92  CZ        37.2510   39.9790   50.6590 C.cat  98  ARG98       0.5346
     93  NH1       36.6450   40.6000   49.6270 N.pl3  98  ARG98       0.1354
     94  NH2       37.3210   38.6490   50.7110 N.pl3  98  ARG98       0.1354
     95  N         38.7630   47.2900   54.7240 N.am   99  GLY99      -0.1940
     96  CA        38.9180   48.7360   54.7100 C.3    99  GLY99       0.2014
     97  C         37.9440   49.5240   53.9080 C.2    99  GLY99       0.2638
     98  O         36.7930   49.1470   53.7950 O.2    99  GLY99      -0.2714
     99  N         38.4460   50.6170   53.3060 N.am  100  GLU100     -0.1977
    100  CA        37.5320   51.6150   52.7040 C.3   100  GLU100      0.1602
    101  C         37.0200   51.2050   51.3520 C.2   100  GLU100      0.2287
    102  O         37.7870   50.8700   50.4310 O.2   100  GLU100     -0.2864
    103  CB        38.2560   52.9260   52.6140 C.3   100  GLU100      0.0415
    104  CG        38.4970   53.4980   53.9840 C.3   100  GLU100      0.1163
    105  CD        39.3110   54.7590   53.9860 C.2   100  GLU100      0.3649
    106  OE1       40.5460   54.6810   53.7590 O.co2 100  GLU100     -0.2457
    107  OE2       38.6930   55.8170   54.2280 O.co2 100  GLU100     -0.2457
    108  N         38.3540   53.3840   48.2250 N.3   103  LYS103     -0.1245
    109  CA        39.6820   53.0790   47.6980 C.3   103  LYS103      0.1561
    110  C         39.6120   51.8990   46.7510 C.2   103  LYS103      0.2260
    111  O         40.2650   51.8860   45.7230 O.2   103  LYS103     -0.2867
    112  CB        40.6870   52.7980   48.8320 C.3   103  LYS103      0.0271
    113  CG        41.0360   54.0400   49.6600 C.3   103  LYS103      0.0035
    114  CD        42.0940   53.7690   50.7520 C.3   103  LYS103      0.0206
    115  CE        43.3900   54.5770   50.6080 C.3   103  LYS103      0.1093
    116  NZ        44.4200   53.9100   49.7390 N.3   103  LYS103     -0.1314
    117  N         32.6120   50.8510   54.6480 N.3   146  LEU146     -0.1245
    118  CA        33.7630   49.9290   54.8440 C.3   146  LEU146      0.1561
    119  C         33.3600   48.5210   54.4110 C.2   146  LEU146      0.2260
    120  O         32.2360   48.2530   54.0260 O.2   146  LEU146     -0.2867
    121  CB        34.2140   49.9350   56.2850 C.3   146  LEU146      0.0270
    122  CG        34.6710   51.2540   56.8700 C.3   146  LEU146      0.0019
    123  CD1       34.9390   51.1430   58.3450 C.3   146  LEU146      0.0001
    124  CD2       35.8780   51.9550   56.1660 C.3   146  LEU146      0.0001
@<TRIPOS>BOND
     1   111   110    2
     2   110   109    1
     3   109   108    1
     4   109   112    1
     5   112   113    1
     6    93    92    1
     7   113   114    1
     8   116   115    1
     9   102   101    2
    10   115   114    1
    11    92    94    1
    12    92    91    2
    13   101   100    1
    14    91    90    1
    15    90    89    1
    16    87    86    2
    17   103   100    1
    18   103   104    1
    19   100    99    1
    20    89    88    1
    21    88    85    1
    22    99    97   am
    23    86    85    1
    24    86    95   am
    25   106   105   ar
    26    98    97    2
    27    97    96    1
    28    85    84    1
    29   104   105    1
    30   105   107   ar
    31   120   119    2
    32   119   118    1
    33   117   118    1
    34    96    95    1
    35   118   121    1
    36    84    79   am
    37    80    79    2
    38   124   122    1
    39    79    78    1
    40   121   122    1
    41   122   123    1
    42    22    20   ar
    43    22    23   ar
    44    78    81    1
    45    78    77    1
    46    75    74    2
    47    81    82    2
    48    77    74   am
    49    77    83    1
    50    74    73    1
    51    20    18   ar
    52    82    83    1
    53    23    21   ar
    54    76    73    1
    55    73    72    1
    56     4     3    2
    57    10    11    1
    58    10     9    1
    59    18    17    1
    60    18    19   ar
    61    21    19   ar
    62    11    12    2
    63    13    14    1
    64     3     9   am
    65     3     2    1
    66    17    14    1
    67    72    63   am
    68    36    37    1
    69    71    70   ar
    70    71    69   ar
    71    42    41    1
    72    14    15    1
    73    70    68   ar
    74    69    67   ar
    75    40    37    1
    76    40    41    1
    77    64    63    2
    78    60    58   ar
    79     2     5    1
    80     2     1    1
    81    63    62    1
    82     5     6    1
    83    37    38    1
    84    43    41    1
    85    68    66   ar
    86    15    16    2
    87    67    66   ar
    88     8     6    1
    89    58    59   ar
    90    58    57    1
    91    66    65    1
    92     6     7    1
    93    62    65    1
    94    62    61    1
    95    38    39    2
    96    57    56    1
    97    55    54    2
    98    61    54   am
    99    54    53    1
   100    56    53    1
   101    30    28    1
   102    28    29    1
   103    28    25    1
   104    27    26    2
   105    53    52    1
   106    35    32    1
   107    24    25    1
   108    25    26    1
   109    52    46   am
   110    50    49    1
   111    48    49    1
   112    48    45    1
   113    46    47    2
   114    46    45    1
   115    32    31    1
   116    32    33    1
   117    51    49    1
   118    45    44    1
   119    33    34    2
