@<TRIPOS>MOLECULE
tmp/4c31B00.pdb
 84 80 0 0 0
SMALL
GASTEIGER

@<TRIPOS>ATOM
      1  N         24.4590  -34.3790  -36.2670 N.3     5  LEU5       -0.1245
      2  CA        25.1410  -34.5470  -37.5470 C.3     5  LEU5        0.1561
      3  C         26.3990  -33.6920  -37.5900 C.2     5  LEU5        0.2260
      4  O         27.4430  -34.1250  -38.0840 O.2     5  LEU5       -0.2867
      5  CB        24.2220  -34.1730  -38.7120 C.3     5  LEU5        0.0270
      6  CG        23.1480  -35.1870  -39.1120 C.3     5  LEU5        0.0019
      7  CD1       22.1980  -34.5770  -40.1310 C.3     5  LEU5        0.0001
      8  CD2       23.7750  -36.4600  -39.6700 C.3     5  LEU5        0.0001
      9  N         29.2540  -35.4190  -36.0830 N.3     8  GLN8       -0.1231
     10  CA        29.8820  -36.4090  -36.9550 C.3     8  GLN8        0.1698
     11  C         30.7970  -35.7380  -37.9800 C.2     8  GLN8        0.2592
     12  O         31.9000  -36.2230  -38.2470 O.2     8  GLN8       -0.2718
     13  CB        28.8220  -37.2520  -37.6690 C.3     8  GLN8        0.0381
     14  CG        28.1430  -38.2830  -36.7760 C.3     8  GLN8        0.0905
     15  CD        27.8960  -39.6050  -37.4880 C.2     8  GLN8        0.2608
     16  OE1       27.0690  -39.6920  -38.3960 O.2     8  GLN8       -0.2717
     17  NE2       28.6180  -40.6430  -37.0780 N.am    8  GLN8       -0.0878
     18  N         30.3460  -34.6210  -38.5440 N.am    9  ILE9       -0.1980
     19  CA        31.1850  -33.8400  -39.4480 C.3     9  ILE9        0.1595
     20  C         32.4690  -33.4180  -38.7340 C.2     9  ILE9        0.2287
     21  O         33.5700  -33.7380  -39.1860 O.2     9  ILE9       -0.2864
     22  CB        30.4440  -32.5920  -39.9740 C.3     9  ILE9        0.0276
     23  CG1       29.2840  -33.0140  -40.8780 C.3     9  ILE9        0.0022
     24  CG2       31.3940  -31.6750  -40.7470 C.3     9  ILE9        0.0022
     25  CD1       28.3750  -31.8710  -41.3020 C.3     9  ILE9        0.0001
     26  N         34.9060  -36.3770  -37.9340 N.3    12  TYR12      -0.1241
     27  CA        35.6950  -36.8950  -39.0450 C.3    12  TYR12       0.1605
     28  C         36.6260  -35.8280  -39.6200 C.2    12  TYR12       0.2264
     29  O         37.7020  -36.1460  -40.1310 O.2    12  TYR12      -0.2867
     30  CB        34.7640  -37.4440  -40.1370 C.3    12  TYR12       0.0534
     31  CG        33.9850  -38.6840  -39.7240 C.ar   12  TYR12      -0.0201
     32  CD1       34.6240  -39.7640  -39.1220 C.ar   12  TYR12      -0.0009
     33  CD2       32.6120  -38.7710  -39.9330 C.ar   12  TYR12      -0.0009
     34  CE1       33.9180  -40.8980  -38.7430 C.ar   12  TYR12       0.0417
     35  CE2       31.8970  -39.9010  -39.5550 C.ar   12  TYR12       0.0417
     36  CZ        32.5560  -40.9600  -38.9620 C.ar   12  TYR12       0.1957
     37  OH        31.8550  -42.0840  -38.5860 O.3    12  TYR12      -0.2866
     38  N         39.6840  -36.0050  -37.2040 N.3    15  GLU15      -0.1231
     39  CA        40.3560  -37.3020  -37.2020 C.3    15  GLU15       0.1699
     40  C         41.0910  -37.5960  -38.5060 C.2    15  GLU15       0.2592
     41  O         42.1480  -38.2350  -38.5090 O.2    15  GLU15      -0.2718
     42  CB        39.3370  -38.4060  -36.9400 C.3    15  GLU15       0.0402
     43  CG        38.7630  -38.3900  -35.5460 C.3    15  GLU15       0.1161
     44  CD        37.5940  -39.3370  -35.4020 C.2    15  GLU15       0.3649
     45  OE1       37.4030  -40.1890  -36.2980 O.co2  15  GLU15      -0.2457
     46  OE2       36.8580  -39.2170  -34.4000 O.co2  15  GLU15      -0.2457
     47  N         40.5110  -37.1490  -39.6140 N.am   16  SER16      -0.1952
     48  CA        41.0970  -37.3590  -40.9330 C.3    16  SER16       0.1924
     49  C         42.2780  -36.4170  -41.1740 C.2    16  SER16       0.2314
     50  O         43.0660  -36.6200  -42.0980 O.2    16  SER16      -0.2863
     51  CB        40.0360  -37.1660  -42.0140 C.3    16  SER16       0.2116
     52  OG        39.4420  -35.8830  -41.9150 O.3    16  SER16      -0.2180
     53  N         32.3650  -35.8520  -50.0480 N.3    88  GLU88      -0.1231
     54  CA        32.7790  -37.2410  -49.8970 C.3    88  GLU88       0.1699
     55  C         32.1600  -37.8850  -48.6560 C.2    88  GLU88       0.2592
     56  O         31.8290  -39.0680  -48.6600 O.2    88  GLU88      -0.2718
     57  CB        34.3050  -37.3190  -49.8240 C.3    88  GLU88       0.0402
     58  CG        34.9990  -36.9500  -51.1280 C.3    88  GLU88       0.1161
     59  CD        34.7770  -37.9680  -52.2300 C.2    88  GLU88       0.3649
     60  OE1       35.3830  -39.0590  -52.1660 O.co2  88  GLU88      -0.2457
     61  OE2       33.9990  -37.6730  -53.1640 O.co2  88  GLU88      -0.2457
     62  N         32.0040  -37.0900  -47.6000 N.am   89  ILE89      -0.1966
     63  CA        31.5350  -37.5710  -46.2960 C.3    89  ILE89       0.1727
     64  C         30.0200  -37.7810  -46.2410 C.2    89  ILE89       0.2616
     65  O         29.5470  -38.7920  -45.7210 O.2    89  ILE89      -0.2715
     66  CB        31.9540  -36.5880  -45.1810 C.3    89  ILE89       0.0290
     67  CG1       33.4780  -36.5850  -45.0240 C.3    89  ILE89       0.0022
     68  CG2       31.3000  -36.9380  -43.8560 C.3    89  ILE89       0.0023
     69  CD1       34.0890  -37.9250  -44.6220 C.3    89  ILE89       0.0001
     70  N         29.2680  -36.8040  -46.7420 N.am   90  VAL90      -0.1963
     71  CA        27.8090  -36.8840  -46.7840 C.3    90  VAL90       0.1727
     72  C         27.3580  -38.0360  -47.6850 C.2    90  VAL90       0.2616
     73  O         27.9450  -38.2840  -48.7400 O.2    90  VAL90      -0.2715
     74  CB        27.1860  -35.5660  -47.2890 C.3    90  VAL90       0.0290
     75  CG1       25.6660  -35.6660  -47.3430 C.3    90  VAL90       0.0023
     76  CG2       27.6040  -34.4060  -46.4030 C.3    90  VAL90       0.0023
     77  N         26.2880  -38.7080  -47.2730 N.am   91  ASP91      -0.1971
     78  CA        25.7920  -39.8960  -47.9600 C.3    91  ASP91       0.1709
     79  C         24.7890  -39.5490  -49.0600 C.2    91  ASP91       0.2293
     80  O         24.2450  -38.4450  -49.0970 O.2    91  ASP91      -0.2864
     81  CB        25.1550  -40.8490  -46.9460 C.3    91  ASP91       0.1436
     82  CG        24.9800  -42.2560  -47.4880 C.2    91  ASP91       0.3671
     83  OD1       24.5430  -42.4120  -48.6480 O.co2  91  ASP91      -0.2456
     84  OD2       25.2880  -43.2130  -46.7470 O.co2  91  ASP91      -0.2456
@<TRIPOS>BOND
     1    61    59   ar
     2    59    60   ar
     3    59    58    1
     4    58    57    1
     5    53    54    1
     6    54    57    1
     7    54    55    1
     8    80    79    2
     9    79    78    1
    10    73    72    2
    11    56    55    2
    12    55    62   am
    13    83    82   ar
    14    78    77    1
    15    78    81    1
    16    72    77   am
    17    72    71    1
    18    62    63    1
    19    82    81    1
    20    82    84   ar
    21    75    74    1
    22    74    71    1
    23    74    76    1
    24    71    70    1
    25    70    64   am
    26    63    64    1
    27    63    66    1
    28    64    65    2
    29    66    67    1
    30    66    68    1
    31    67    69    1
    32    50    49    2
    33    51    52    1
    34    51    48    1
    35    25    23    1
    36    49    48    1
    37    48    47    1
    38    23    22    1
    39    24    22    1
    40    30    31    1
    41    30    27    1
    42     7     6    1
    43    29    28    2
    44    22    19    1
    45    33    31   ar
    46    33    35   ar
    47    31    32   ar
    48     8     6    1
    49    28    27    1
    50    47    40   am
    51    35    36   ar
    52    19    20    1
    53    19    18    1
    54    21    20    2
    55    32    34   ar
    56     6     5    1
    57    27    26    1
    58    36    34   ar
    59    36    37    1
    60     5     2    1
    61    18    11   am
    62    41    40    2
    63    40    39    1
    64    16    15    2
    65    12    11    2
    66     4     3    2
    67    11    10    1
    68    13    10    1
    69    13    14    1
    70     3     2    1
    71     2     1    1
    72    15    17   am
    73    15    14    1
    74    38    39    1
    75    39    42    1
    76    10     9    1
    77    42    43    1
    78    45    44   ar
    79    43    44    1
    80    44    46   ar
