@<TRIPOS>MOLECULE
tmp/4c31E00.pdb
 84 80 0 0 0
SMALL
GASTEIGER

@<TRIPOS>ATOM
      1  N         29.2860  -12.2220  -19.5630 N.3     5  LEU5       -0.1245
      2  CA        30.0710  -12.3730  -18.3400 C.3     5  LEU5        0.1561
      3  C         30.8800  -13.6660  -18.3740 C.2     5  LEU5        0.2260
      4  O         32.0340  -13.6930  -17.9510 O.2     5  LEU5       -0.2867
      5  CB        29.1640  -12.3530  -17.1100 C.3     5  LEU5        0.0270
      6  CG        28.6390  -10.9800  -16.6810 C.3     5  LEU5        0.0019
      7  CD1       27.5930  -11.1350  -15.5890 C.3     5  LEU5        0.0001
      8  CD2       29.7720  -10.0770  -16.2070 C.3     5  LEU5        0.0001
      9  N         33.9660  -13.0140  -20.1180 N.3     8  GLN8       -0.1231
     10  CA        34.9720  -12.3440  -19.2950 C.3     8  GLN8        0.1698
     11  C         35.6350  -13.2990  -18.3010 C.2     8  GLN8        0.2592
     12  O         36.8430  -13.2230  -18.0730 O.2     8  GLN8       -0.2718
     13  CB        34.3530  -11.1610  -18.5500 C.3     8  GLN8        0.0381
     14  CG        34.0700   -9.9640  -19.4390 C.3     8  GLN8        0.0905
     15  CD        34.3930   -8.6500  -18.7590 C.2     8  GLN8        0.2608
     16  OE1       35.3930   -8.0040  -19.0770 O.2     8  GLN8       -0.2717
     17  NE2       33.5470   -8.2460  -17.8170 N.am    8  GLN8       -0.0878
     18  N         34.8400  -14.1810  -17.6990 N.am    9  ILE9       -0.1980
     19  CA        35.3690  -15.2120  -16.8080 C.3     9  ILE9        0.1595
     20  C         36.3870  -16.0830  -17.5400 C.2     9  ILE9        0.2287
     21  O         37.5370  -16.2060  -17.1110 O.2     9  ILE9       -0.2864
     22  CB        34.2420  -16.1060  -16.2460 C.3     9  ILE9        0.0276
     23  CG1       33.3410  -15.2950  -15.3160 C.3     9  ILE9        0.0022
     24  CG2       34.8180  -17.3010  -15.4860 C.3     9  ILE9        0.0022
     25  CD1       32.0890  -16.0290  -14.8600 C.3     9  ILE9        0.0001
     26  N         39.6530  -14.2730  -18.4560 N.3    12  TYR12      -0.1241
     27  CA        40.5670  -14.0950  -17.3400 C.3    12  TYR12       0.1605
     28  C         40.9970  -15.4430  -16.7800 C.2    12  TYR12       0.2264
     29  O         42.0970  -15.5720  -16.2460 O.2    12  TYR12      -0.2867
     30  CB        39.9100  -13.2370  -16.2570 C.3    12  TYR12       0.0534
     31  CG        39.6620  -11.8050  -16.6930 C.ar   12  TYR12      -0.0201
     32  CD1       40.6640  -11.0590  -17.3040 C.ar   12  TYR12      -0.0009
     33  CD2       38.4230  -11.2040  -16.5050 C.ar   12  TYR12      -0.0009
     34  CE1       40.4430   -9.7530  -17.7070 C.ar   12  TYR12       0.0417
     35  CE2       38.1920   -9.8980  -16.9080 C.ar   12  TYR12       0.0417
     36  CZ        39.2060   -9.1790  -17.5060 C.ar   12  TYR12       0.1957
     37  OH        38.9820   -7.8800  -17.9060 O.3    12  TYR12      -0.2866
     38  N         43.8330  -16.3140  -19.3120 N.3    15  GLU15      -0.1231
     39  CA        44.9410  -15.3650  -19.2990 C.3    15  GLU15       0.1699
     40  C         45.6970  -15.3900  -17.9770 C.2    15  GLU15       0.2592
     41  O         46.9170  -15.2150  -17.9460 O.2    15  GLU15      -0.2718
     42  CB        44.4340  -13.9460  -19.5760 C.3    15  GLU15       0.0402
     43  CG        43.9420  -13.7390  -21.0010 C.3    15  GLU15       0.1161
     44  CD        43.2550  -12.4020  -21.2060 C.2    15  GLU15       0.3649
     45  OE1       43.3770  -11.5200  -20.3290 O.co2  15  GLU15      -0.2457
     46  OE2       42.5960  -12.2350  -22.2550 O.co2  15  GLU15      -0.2457
     47  N         44.9670  -15.6110  -16.8880 N.am   16  SER16      -0.1952
     48  CA        45.5620  -15.6280  -15.5540 C.3    16  SER16       0.1924
     49  C         46.3610  -16.9040  -15.2960 C.2    16  SER16       0.2314
     50  O         47.1540  -16.9670  -14.3560 O.2    16  SER16      -0.2863
     51  CB        44.4750  -15.4790  -14.4930 C.3    16  SER16       0.2116
     52  OG        43.5020  -16.5010  -14.6230 O.3    16  SER16      -0.2180
     53  N         37.2320  -14.1580   -6.2080 N.3    88  GLU88      -0.1231
     54  CA        38.1120  -12.9950   -6.3740 C.3    88  GLU88       0.1699
     55  C         37.7450  -12.1550   -7.5880 C.2    88  GLU88       0.2592
     56  O         37.8990  -10.9340   -7.5760 O.2    88  GLU88      -0.2718
     57  CB        39.5760  -13.4320   -6.4950 C.3    88  GLU88       0.0402
     58  CG        40.1750  -13.9810   -5.2070 C.3    88  GLU88       0.1161
     59  CD        40.3600  -12.9140   -4.1340 C.2    88  GLU88       0.3649
     60  OE1       41.2780  -12.0770   -4.2730 O.co2  88  GLU88      -0.2457
     61  OE2       39.5950  -12.9220   -3.1450 O.co2  88  GLU88      -0.2457
     62  N         37.2760  -12.8110   -8.6410 N.am   89  ILE89      -0.1966
     63  CA        36.9940  -12.1250   -9.8930 C.3    89  ILE89       0.1727
     64  C         35.6680  -11.3730   -9.8160 C.2    89  ILE89       0.2616
     65  O         35.6010  -10.1870  -10.1400 O.2    89  ILE89      -0.2715
     66  CB        36.9640  -13.1280  -11.0710 C.3    89  ILE89       0.0290
     67  CG1       38.3530  -13.7390  -11.2870 C.3    89  ILE89       0.0022
     68  CG2       36.4760  -12.4700  -12.3500 C.3    89  ILE89       0.0023
     69  CD1       39.4490  -12.7370  -11.6480 C.3    89  ILE89       0.0001
     70  N         34.6210  -12.0540   -9.3640 N.am   90  VAL90      -0.1963
     71  CA        33.3090  -11.4300   -9.2460 C.3    90  VAL90       0.1727
     72  C         33.3480  -10.3100   -8.2090 C.2    90  VAL90       0.2616
     73  O         33.9870  -10.4470   -7.1650 O.2    90  VAL90      -0.2715
     74  CB        32.2290  -12.4620   -8.8530 C.3    90  VAL90       0.0290
     75  CG1       30.8600  -11.8020   -8.7480 C.3    90  VAL90       0.0023
     76  CG2       32.1850  -13.5940   -9.8630 C.3    90  VAL90       0.0023
     77  N         32.6740   -9.2010   -8.5020 N.am   91  ASP91      -0.1971
     78  CA        32.6700   -8.0640   -7.5910 C.3    91  ASP91       0.1709
     79  C         31.4780   -8.1210   -6.6410 C.2    91  ASP91       0.2293
     80  O         30.4460   -8.7210   -6.9530 O.2    91  ASP91      -0.2864
     81  CB        32.6490   -6.7490   -8.3690 C.3    91  ASP91       0.1436
     82  CG        33.0170   -5.5590   -7.5070 C.2    91  ASP91       0.3671
     83  OD1       34.2280   -5.3010   -7.3380 O.co2  91  ASP91      -0.2456
     84  OD2       32.0980   -4.8860   -6.9930 O.co2  91  ASP91      -0.2456
@<TRIPOS>BOND
     1    46    44   ar
     2    44    43    1
     3    44    45   ar
     4    43    42    1
     5     9    10    1
     6    42    39    1
     7     1     2    1
     8    14    15    1
     9    14    13    1
    10    38    39    1
    11    39    40    1
    12    10    13    1
    13    10    11    1
    14    16    15    2
    15    15    17   am
    16    26    27    1
    17     3     2    1
    18     3     4    2
    19     2     5    1
    20    11    12    2
    21    11    18   am
    22    40    41    2
    23    40    47   am
    24    37    36    1
    25    34    36   ar
    26    34    32   ar
    27    18    19    1
    28    20    21    2
    29    20    19    1
    30    36    35   ar
    31    27    28    1
    32    27    30    1
    33    32    31   ar
    34     5     6    1
    35    35    33   ar
    36    47    48    1
    37    19    22    1
    38    28    29    2
    39    31    33   ar
    40    31    30    1
    41     6     8    1
    42     6     7    1
    43    22    24    1
    44    22    23    1
    45    48    49    1
    46    48    51    1
    47    23    25    1
    48    49    50    2
    49    52    51    1
    50    68    66    1
    51    69    67    1
    52    67    66    1
    53    66    63    1
    54    65    64    2
    55    63    64    1
    56    63    62    1
    57    76    74    1
    58    64    70   am
    59    70    71    1
    60    71    74    1
    61    71    72    1
    62    74    75    1
    63    62    55   am
    64    77    72   am
    65    77    78    1
    66    81    78    1
    67    81    82    1
    68    72    73    2
    69    78    79    1
    70    55    56    2
    71    55    54    1
    72    82    83   ar
    73    82    84   ar
    74    80    79    2
    75    57    54    1
    76    57    58    1
    77    54    53    1
    78    58    59    1
    79    60    59   ar
    80    59    61   ar
