@<TRIPOS>MOLECULE
tmp/4c34A01.pdb
 110 106 0 0 0
SMALL
GASTEIGER

@<TRIPOS>ATOM
      1  N         31.9270  -27.1960  -27.2730 N.3     4  SER4       -0.1202
      2  CA        31.9770  -26.4300  -26.0330 C.3     4  SER4        0.2020
      3  C         30.5710  -26.3940  -25.4120 C.2     4  SER4        0.2618
      4  O         30.4460  -26.5810  -24.2020 O.2     4  SER4       -0.2717
      5  CB        32.5020  -25.0200  -26.2830 C.3     4  SER4        0.2103
      6  OG        33.0770  -24.4860  -25.1010 O.3     4  SER4       -0.2182
      7  N         29.5200  -26.2100  -26.2480 N.am    5  VAL5       -0.1979
      8  CA        28.1160  -26.1940  -25.8100 C.3     5  VAL5        0.1595
      9  C         27.7610  -27.5600  -25.1790 C.2     5  VAL5        0.2287
     10  O         27.1810  -27.5940  -24.0910 O.2     5  VAL5       -0.2864
     11  CB        27.1540  -25.7880  -26.9590 C.3     5  VAL5        0.0276
     12  CG1       25.6930  -26.0320  -26.5860 C.3     5  VAL5        0.0022
     13  CG2       27.3610  -24.3230  -27.3610 C.3     5  VAL5        0.0022
     14  N         29.6200  -27.9430  -21.8130 N.3     8  PHE8       -0.1227
     15  CA        28.9790  -27.0670  -20.8310 C.3     8  PHE8        0.1736
     16  C         27.6980  -27.7240  -20.2950 C.2     8  PHE8        0.2595
     17  O         27.4420  -27.6630  -19.0910 O.2     8  PHE8       -0.2718
     18  CB        28.6080  -25.7010  -21.4520 C.3     8  PHE8        0.0547
     19  CG        27.8100  -24.7950  -20.5340 C.ar    8  PHE8       -0.0202
     20  CD1       28.4480  -23.9750  -19.6140 C.ar    8  PHE8       -0.0042
     21  CD2       26.4240  -24.7470  -20.6110 C.ar    8  PHE8       -0.0042
     22  CE1       27.7130  -23.1420  -18.7690 C.ar    8  PHE8       -0.0003
     23  CE2       25.6860  -23.9150  -19.7650 C.ar    8  PHE8       -0.0003
     24  CZ        26.3380  -23.1010  -18.8640 C.ar    8  PHE8       -0.0000
     25  N         26.8680  -28.2690  -21.1960 N.am    9  LEU9       -0.1980
     26  CA        25.5640  -28.8210  -20.8040 C.3     9  LEU9        0.1596
     27  C         25.6820  -30.1310  -20.0380 C.2     9  LEU9        0.2287
     28  O         24.8960  -30.3760  -19.1180 O.2     9  LEU9       -0.2864
     29  CB        24.6110  -28.9320  -22.0060 C.3     9  LEU9        0.0297
     30  CG        24.2170  -27.6050  -22.7010 C.3     9  LEU9        0.0022
     31  CD1       23.5730  -27.8580  -24.0390 C.3     9  LEU9        0.0001
     32  CD2       23.2980  -26.7160  -21.8290 C.3     9  LEU9        0.0001
     33  N         22.0360  -20.8820  -13.7250 N.3    90  PHE90      -0.1241
     34  CA        22.1810  -20.2430  -15.0370 C.3    90  PHE90       0.1605
     35  C         22.0700  -18.7440  -14.8020 C.2    90  PHE90       0.2264
     36  O         21.2820  -18.3250  -13.9340 O.2    90  PHE90      -0.2867
     37  CB        21.0840  -20.7220  -16.0030 C.3    90  PHE90       0.0534
     38  CG        21.4170  -20.4590  -17.4570 C.ar   90  PHE90      -0.0203
     39  CD1       22.4520  -21.1520  -18.0890 C.ar   90  PHE90      -0.0042
     40  CD2       20.6860  -19.5390  -18.1980 C.ar   90  PHE90      -0.0042
     41  CE1       22.7730  -20.8950  -19.4290 C.ar   90  PHE90      -0.0003
     42  CE2       20.9990  -19.2890  -19.5380 C.ar   90  PHE90      -0.0003
     43  CZ        22.0320  -19.9800  -20.1470 C.ar   90  PHE90      -0.0000
     44  N         18.6670  -18.9160  -24.8250 N.3   141  LEU141     -0.1245
     45  CA        19.7410  -19.5370  -24.0530 C.3   141  LEU141      0.1561
     46  C         19.1790  -20.1850  -22.7640 C.2   141  LEU141      0.2260
     47  O         19.5850  -21.3020  -22.3930 O.2   141  LEU141     -0.2867
     48  CB        20.8030  -18.4880  -23.7020 C.3   141  LEU141      0.0270
     49  CG        21.6290  -17.9000  -24.8830 C.3   141  LEU141      0.0019
     50  CD1       22.5430  -16.7580  -24.3930 C.3   141  LEU141      0.0001
     51  CD2       22.4580  -18.9900  -25.5690 C.3   141  LEU141      0.0001
     52  N         17.4100  -23.3120  -23.8700 N.3   144  GLU144     -0.1231
     53  CA        18.3880  -24.3360  -24.2500 C.3   144  GLU144      0.1699
     54  C         18.9120  -25.0330  -22.9480 C.2   144  GLU144      0.2592
     55  O         19.0010  -26.2620  -22.8950 O.2   144  GLU144     -0.2718
     56  CB        19.5410  -23.6760  -25.0280 C.3   144  GLU144      0.0402
     57  CG        20.6040  -24.6890  -25.4330 C.3   144  GLU144      0.1161
     58  CD        21.7560  -24.0630  -26.1940 C.2   144  GLU144      0.3649
     59  OE1       21.8710  -22.8160  -26.2090 O.co2 144  GLU144     -0.2457
     60  OE2       22.5240  -24.8270  -26.8130 O.co2 144  GLU144     -0.2457
     61  N         19.2110  -24.2460  -21.9130 N.am  145  TYR145     -0.1976
     62  CA        19.6770  -24.7630  -20.6080 C.3   145  TYR145      0.1639
     63  C         18.5980  -25.6510  -19.9570 C.2   145  TYR145      0.2290
     64  O         18.8550  -26.8280  -19.6360 O.2   145  TYR145     -0.2864
     65  CB        20.0500  -23.5940  -19.6630 C.3   145  TYR145      0.0560
     66  CG        20.3330  -24.0370  -18.2440 C.ar  145  TYR145     -0.0198
     67  CD1       21.5670  -24.5800  -17.8940 C.ar  145  TYR145     -0.0009
     68  CD2       19.3430  -23.9680  -17.2580 C.ar  145  TYR145     -0.0009
     69  CE1       21.8180  -25.0270  -16.5890 C.ar  145  TYR145      0.0417
     70  CE2       19.5870  -24.4040  -15.9510 C.ar  145  TYR145      0.0417
     71  CZ        20.8270  -24.9310  -15.6220 C.ar  145  TYR145      0.1957
     72  OH        21.0850  -25.3620  -14.3350 O.3   145  TYR145     -0.2866
     73  N         18.7400  -19.9810  -33.3160 N.3   280  LYS280     -0.1245
     74  CA        20.0040  -19.2510  -33.1630 C.3   280  LYS280      0.1561
     75  C         20.5920  -18.8000  -34.4790 C.2   280  LYS280      0.2260
     76  O         21.1960  -17.7340  -34.5290 O.2   280  LYS280     -0.2867
     77  CB        21.0330  -20.0920  -32.4080 C.3   280  LYS280      0.0271
     78  CG        20.7540  -20.1890  -30.9270 C.3   280  LYS280      0.0035
     79  CD        21.7380  -21.1400  -30.3020 C.3   280  LYS280      0.0206
     80  CE        21.9580  -20.9080  -28.8380 C.3   280  LYS280      0.1093
     81  NZ        23.1570  -21.6770  -28.3590 N.3   280  LYS280     -0.1314
     82  N         27.4920  -15.8910  -27.4070 N.3   291  ILE291     -0.1245
     83  CA        28.4630  -16.0490  -26.3060 C.3   291  ILE291      0.1561
     84  C         28.5290  -14.7630  -25.4600 C.2   291  ILE291      0.2260
     85  O         28.5070  -14.8530  -24.2330 O.2   291  ILE291     -0.2867
     86  CB        29.8450  -16.5530  -26.8260 C.3   291  ILE291      0.0252
     87  CG1       29.7030  -18.0010  -27.3430 C.3   291  ILE291      0.0019
     88  CG2       30.9410  -16.4760  -25.7410 C.3   291  ILE291      0.0019
     89  CD1       30.9170  -18.5650  -28.2030 C.3   291  ILE291      0.0001
     90  N         25.4470  -14.5680  -23.1780 N.3   294  TYR294     -0.1227
     91  CA        25.6580  -15.4990  -22.0710 C.3   294  TYR294      0.1736
     92  C         26.6860  -14.9370  -21.0550 C.2   294  TYR294      0.2595
     93  O         26.4550  -15.0290  -19.8510 O.2   294  TYR294     -0.2718
     94  CB        26.0910  -16.8960  -22.5870 C.3   294  TYR294      0.0548
     95  CG        26.5100  -17.8130  -21.4540 C.ar  294  TYR294     -0.0200
     96  CD1       25.5580  -18.4220  -20.6360 C.ar  294  TYR294     -0.0009
     97  CD2       27.8570  -17.9670  -21.1180 C.ar  294  TYR294     -0.0009
     98  CE1       25.9350  -19.1940  -19.5360 C.ar  294  TYR294      0.0417
     99  CE2       28.2470  -18.7490  -20.0300 C.ar  294  TYR294      0.0417
    100  CZ        27.2820  -19.3520  -19.2350 C.ar  294  TYR294      0.1957
    101  OH        27.6640  -20.1110  -18.1510 O.3   294  TYR294     -0.2866
    102  N         27.7870  -14.3250  -21.5540 N.am  295  GLN295     -0.1979
    103  CA        28.8450  -13.7650  -20.7070 C.3   295  GLN295      0.1601
    104  C         28.4830  -12.4020  -20.1160 C.2   295  GLN295      0.2287
    105  O         29.2620  -11.8480  -19.3340 O.2   295  GLN295     -0.2864
    106  CB        30.1840  -13.7240  -21.4540 C.3   295  GLN295      0.0394
    107  CG        30.7350  -15.1150  -21.7820 C.3   295  GLN295      0.0908
    108  CD        31.9990  -15.0760  -22.6050 C.2   295  GLN295      0.2608
    109  OE1       32.3830  -14.0440  -23.1590 O.2   295  GLN295     -0.2717
    110  NE2       32.6750  -16.2170  -22.7150 N.am  295  GLN295     -0.0878
@<TRIPOS>BOND
     1    76    75    2
     2    75    74    1
     3    73    74    1
     4    74    77    1
     5    77    78    1
     6    78    79    1
     7    79    80    1
     8    80    81    1
     9    89    87    1
    10    82    83    1
    11    13    11    1
    12    87    86    1
    13     1     2    1
    14    11    12    1
    15    11     8    1
    16    86    83    1
    17    86    88    1
    18    60    58   ar
    19    83    84    1
    20     5     2    1
    21     5     6    1
    22     7     8    1
    23     7     3   am
    24    59    58   ar
    25    58    57    1
    26     2     3    1
    27     8     9    1
    28    51    49    1
    29    84    85    2
    30    57    56    1
    31     3     4    2
    32     9    10    2
    33    56    53    1
    34    49    50    1
    35    49    48    1
    36    44    45    1
    37    53    52    1
    38    53    54    1
    39    45    48    1
    40    45    46    1
    41    31    30    1
    42    90    91    1
    43   109   108    2
    44    54    55    2
    45    54    61   am
    46    46    47    2
    47   110   108   am
    48    30    29    1
    49    30    32    1
    50   108   107    1
    51    94    91    1
    52    94    95    1
    53    91    92    1
    54    29    26    1
    55    61    62    1
    56    14    15    1
    57   107   106    1
    58   102    92   am
    59   102   103    1
    60   106   103    1
    61    95    97   ar
    62    95    96   ar
    63    18    15    1
    64    18    19    1
    65    25    26    1
    66    25    16   am
    67    97    99   ar
    68    92    93    2
    69    15    16    1
    70    26    27    1
    71   103   104    1
    72    96    98   ar
    73    21    19   ar
    74    21    23   ar
    75    62    63    1
    76    62    65    1
    77    19    20   ar
    78    16    17    2
    79    43    42   ar
    80    43    41   ar
    81   104   105    2
    82    27    28    2
    83    99   100   ar
    84    63    64    2
    85    23    24   ar
    86    65    66    1
    87    20    22   ar
    88    42    40   ar
    89    98   100   ar
    90    41    39   ar
    91   100   101    1
    92    24    22   ar
    93    66    67   ar
    94    66    68   ar
    95    40    38   ar
    96    39    38   ar
    97    67    69   ar
    98    38    37    1
    99    68    70   ar
   100    69    71   ar
   101    37    34    1
   102    70    71   ar
   103    71    72    1
   104    34    35    1
   105    34    33    1
   106    35    36    2
