@<TRIPOS>MOLECULE
tmp/4c35A00.pdb
 168 158 0 0 0
SMALL
GASTEIGER

@<TRIPOS>ATOM
      1  N          5.8230   79.8190   79.8810 N.3    39  LEU39      -0.1231
      2  CA         6.1620   79.5780   81.2790 C.3    39  LEU39       0.1693
      3  C          5.1610   80.1730   82.2480 C.2    39  LEU39       0.2592
      4  O          5.0900   79.7300   83.3970 O.2    39  LEU39      -0.2718
      5  CB         7.5470   80.1370   81.6210 C.3    39  LEU39       0.0284
      6  CG         8.7500   79.6410   80.8460 C.3    39  LEU39       0.0019
      7  CD1        9.9890   80.3820   81.3060 C.3    39  LEU39       0.0001
      8  CD2        8.9160   78.1150   80.9730 C.3    39  LEU39       0.0001
      9  N          4.4710   81.2210   81.8130 N.am   40  GLY40      -0.1957
     10  CA         3.5180   81.9520   82.6400 C.3    40  GLY40       0.1869
     11  C          2.5490   82.7540   81.8080 C.2    40  GLY40       0.2309
     12  O          2.8680   83.1580   80.6890 O.2    40  GLY40      -0.2863
     13  N         -1.2360   90.7960   81.9420 N.3    44  TYR44      -0.1241
     14  CA        -0.0540   91.4650   81.3820 C.3    44  TYR44       0.1605
     15  C          0.2810   90.9650   79.9590 C.2    44  TYR44       0.2264
     16  O          0.7100   91.7390   79.1070 O.2    44  TYR44      -0.2867
     17  CB         1.1660   91.2930   82.3130 C.3    44  TYR44       0.0534
     18  CG         1.6410   89.8610   82.4700 C.ar   44  TYR44      -0.0201
     19  CD1        1.0860   89.0210   83.4350 C.ar   44  TYR44      -0.0009
     20  CD2        2.6420   89.3420   81.6510 C.ar   44  TYR44      -0.0009
     21  CE1        1.5100   87.6980   83.5760 C.ar   44  TYR44       0.0417
     22  CE2        3.0870   88.0280   81.7940 C.ar   44  TYR44       0.0417
     23  CZ         2.5150   87.2070   82.7530 C.ar   44  TYR44       0.1957
     24  OH         2.9350   85.9070   82.8770 O.3    44  TYR44      -0.2866
     25  N          4.8150   84.9690   79.5790 N.3    47  VAL47      -0.1245
     26  CA         6.2460   84.7180   79.7210 C.3    47  VAL47       0.1561
     27  C          6.5070   83.3980   78.9980 C.2    47  VAL47       0.2260
     28  O          5.7690   82.4090   79.1470 O.2    47  VAL47      -0.2867
     29  CB         6.7990   84.7360   81.1750 C.3    47  VAL47       0.0252
     30  CG1        8.3290   84.6590   81.1940 C.3    47  VAL47       0.0019
     31  CG2        6.3330   85.9760   81.9320 C.3    47  VAL47       0.0019
     32  N         13.9230   84.0860   79.6320 N.3    60  ALA60      -0.1245
     33  CA        12.4670   84.1560   79.7950 C.3    60  ALA60       0.1562
     34  C         12.0570   85.4390   79.0480 C.2    60  ALA60       0.2260
     35  O         12.7000   86.4640   79.2020 O.2    60  ALA60      -0.2867
     36  CB        12.0960   84.2630   81.2530 C.3    60  ALA60       0.0290
     37  N          9.0200   88.0550   78.4280 N.3    62  LYS62      -0.1245
     38  CA         7.7180   88.5700   78.7980 C.3    62  LYS62       0.1561
     39  C          7.2250   89.3220   77.5630 C.2    62  LYS62       0.2260
     40  O          7.9420   90.1640   77.0430 O.2    62  LYS62      -0.2867
     41  CB         7.8330   89.4710   80.0490 C.3    62  LYS62       0.0271
     42  CG         6.5580   90.2740   80.3420 C.3    62  LYS62       0.0035
     43  CD         6.5420   90.8320   81.7570 C.3    62  LYS62       0.0206
     44  CE         5.3280   91.7310   81.9360 C.3    62  LYS62       0.1093
     45  NZ         5.0710   92.0420   83.3740 N.3    62  LYS62      -0.1314
     46  N          7.6770   99.7280   84.8410 N.3    81  GLU81      -0.1245
     47  CA         8.2300   98.4130   85.1300 C.3    81  GLU81       0.1567
     48  C          9.5730   98.2250   84.3840 C.2    81  GLU81       0.2260
     49  O         10.5840   97.8320   84.9840 O.2    81  GLU81      -0.2867
     50  CB         7.2000   97.3270   84.7650 C.3    81  GLU81       0.0388
     51  CG         7.6680   95.8880   84.9420 C.3    81  GLU81       0.1160
     52  CD         6.7160   94.8410   84.3930 C.2    81  GLU81       0.3649
     53  OE1        5.5760   95.1960   84.0210 O.co2  81  GLU81      -0.2457
     54  OE2        7.1120   93.6570   84.3350 O.co2  81  GLU81      -0.2457
     55  N         13.5190   98.2900   85.8820 N.3    85  LEU85      -0.1245
     56  CA        14.2590   97.0570   85.6810 C.3    85  LEU85       0.1561
     57  C         15.5600   97.2110   84.9020 C.2    85  LEU85       0.2260
     58  O         16.5580   96.5850   85.2650 O.2    85  LEU85      -0.2867
     59  CB        13.3440   95.9760   85.0660 C.3    85  LEU85       0.0270
     60  CG        13.6150   94.5160   85.4580 C.3    85  LEU85       0.0019
     61  CD1       13.8210   94.3410   86.9960 C.3    85  LEU85       0.0001
     62  CD2       12.4760   93.6560   85.0150 C.3    85  LEU85       0.0001
     63  N         16.0830   90.0830   89.3370 N.3    94  VAL94      -0.1245
     64  CA        16.1140   89.4700   88.0010 C.3    94  VAL94       0.1561
     65  C         16.6900   90.5080   87.0320 C.2    94  VAL94       0.2260
     66  O         16.3600   91.6940   87.1400 O.2    94  VAL94      -0.2867
     67  CB        14.7050   88.9370   87.5470 C.3    94  VAL94       0.0252
     68  CG1       13.7310   90.0880   87.2280 C.3    94  VAL94       0.0019
     69  CG2       14.8270   87.9970   86.3430 C.3    94  VAL94       0.0019
     70  N         10.2870   91.9410   76.8760 N.3   108  MET108     -0.1245
     71  CA        11.2760   92.0570   77.9450 C.3   108  MET108      0.1570
     72  C         11.9490   90.7120   78.0230 C.2   108  MET108      0.2261
     73  O         11.3190   89.7170   78.3920 O.2   108  MET108     -0.2867
     74  CB        10.6200   92.3960   79.3040 C.3   108  MET108      0.0387
     75  CG        10.3630   93.8730   79.5090 C.3   108  MET108      0.0595
     76  SD         9.0530   94.1610   80.7420 S.3   108  MET108     -0.1393
     77  CE         9.8760   93.8050   82.2070 C.3   108  MET108      0.0692
     78  N         14.3710   88.5100   79.8450 N.3   110  LEU110     -0.1231
     79  CA        14.9020   88.4320   81.1910 C.3   110  LEU110      0.1693
     80  C         15.7400   87.2100   81.3660 C.2   110  LEU110      0.2592
     81  O         15.5730   86.2060   80.6650 O.2   110  LEU110     -0.2718
     82  CB        13.7360   88.3890   82.2090 C.3   110  LEU110      0.0284
     83  CG        12.7560   89.5380   82.0990 C.3   110  LEU110      0.0019
     84  CD1       11.3310   89.0320   82.0580 C.3   110  LEU110      0.0001
     85  CD2       13.0350   90.6070   83.1470 C.3   110  LEU110      0.0001
     86  N         16.5930   87.2820   82.3680 N.am  111  GLU111     -0.1966
     87  CA        17.4220   86.1660   82.7670 C.3   111  GLU111      0.1733
     88  C         16.4680   85.0070   83.1920 C.2   111  GLU111      0.2616
     89  O         15.4950   85.2280   83.9210 O.2   111  GLU111     -0.2715
     90  CB        18.3610   86.6510   83.8880 C.3   111  GLU111      0.0429
     91  CG        18.5490   85.7290   85.0680 C.3   111  GLU111      0.1163
     92  CD        19.3790   86.3350   86.1810 C.2   111  GLU111      0.3649
     93  OE1       19.0910   87.4730   86.6200 O.co2 111  GLU111     -0.2457
     94  OE2       20.3460   85.6650   86.6000 O.co2 111  GLU111     -0.2457
     95  N         16.7160   83.8110   82.6530 N.am  112  TYR112     -0.1960
     96  CA        15.9160   82.6300   82.9290 C.3   112  TYR112      0.1771
     97  C         16.2850   81.9760   84.2560 C.2   112  TYR112      0.2619
     98  O         17.4500   81.7120   84.5310 O.2   112  TYR112     -0.2715
     99  CB        15.9570   81.6350   81.7580 C.3   112  TYR112      0.0574
    100  CG        15.1770   80.3560   81.9940 C.ar  112  TYR112     -0.0198
    101  CD1       13.8420   80.3920   82.3970 C.ar  112  TYR112     -0.0009
    102  CD2       15.7610   79.1080   81.7780 C.ar  112  TYR112     -0.0009
    103  CE1       13.1250   79.2170   82.6320 C.ar  112  TYR112      0.0417
    104  CE2       15.0490   77.9290   81.9920 C.ar  112  TYR112      0.0417
    105  CZ        13.7240   77.9890   82.3990 C.ar  112  TYR112      0.1957
    106  OH        13.0110   76.8310   82.6000 O.3   112  TYR112     -0.2866
    107  N         15.2570   81.6940   85.0520 N.am  113  LEU113     -0.1977
    108  CA        15.3450   81.0990   86.3810 C.3   113  LEU113      0.1596
    109  C         14.7230   79.7090   86.3670 C.2   113  LEU113      0.2287
    110  O         13.5160   79.5500   86.5920 O.2   113  LEU113     -0.2864
    111  CB        14.6670   82.0600   87.3730 C.3   113  LEU113      0.0297
    112  CG        15.4150   83.3850   87.4880 C.3   113  LEU113      0.0022
    113  CD1       14.5090   84.4930   87.9050 C.3   113  LEU113      0.0001
    114  CD2       16.6110   83.2290   88.3750 C.3   113  LEU113      0.0001
    115  N          9.2110   79.1800   90.6470 N.3   117  GLU117     -0.1245
    116  CA         8.7560   80.0750   91.7130 C.3   117  GLU117      0.1567
    117  C          8.9000   79.4850   93.1110 C.2   117  GLU117      0.2260
    118  O          8.6570   78.3020   93.2830 O.2   117  GLU117     -0.2867
    119  CB         7.2810   80.4240   91.4920 C.3   117  GLU117      0.0388
    120  CG         7.0220   81.5180   90.4730 C.3   117  GLU117      0.1160
    121  CD         5.5500   81.8210   90.2480 C.2   117  GLU117      0.3649
    122  OE1        4.6850   81.3430   91.0260 O.co2 117  GLU117     -0.2457
    123  OE2        5.2670   82.5700   89.2860 O.co2 117  GLU117     -0.2457
    124  N         11.8000   83.7740   92.7190 N.3   162  MET162     -0.1245
    125  CA        12.1660   82.5790   91.9690 C.3   162  MET162      0.1570
    126  C         13.4940   82.1010   92.4140 C.2   162  MET162      0.2261
    127  O         14.2650   82.8930   92.9270 O.2   162  MET162     -0.2867
    128  CB        12.1120   82.8520   90.4560 C.3   162  MET162      0.0387
    129  CG        10.6900   83.0590   89.9480 C.3   162  MET162      0.0595
    130  SD        10.6210   83.2400   88.1660 S.3   162  MET162     -0.1393
    131  CE        10.8490   81.5460   87.6900 C.3   162  MET162      0.0692
    132  N         11.2420   89.0570   91.0930 N.3   172  THR172     -0.1203
    133  CA        10.8520   89.2100   89.6890 C.3   172  THR172      0.1994
    134  C         10.0140   90.4500   89.3430 C.2   172  THR172      0.2618
    135  O         10.5800   91.4430   88.8890 O.2   172  THR172     -0.2717
    136  CB        10.2830   87.8920   89.0790 C.3   172  THR172      0.1784
    137  OG1        9.2040   87.4360   89.8730 O.3   172  THR172     -0.2211
    138  CG2       11.3060   86.8050   88.9650 C.3   172  THR172      0.0376
    139  N          8.6820   90.3480   89.4460 N.am  173  ASP173     -0.1959
    140  CA         7.7150   91.3390   88.9730 C.3   173  ASP173      0.1840
    141  C          7.8760   92.7650   89.4640 C.2   173  ASP173      0.2622
    142  O          7.6170   93.0450   90.6310 O.2   173  ASP173     -0.2715
    143  CB         6.2910   90.8440   89.1910 C.3   173  ASP173      0.1450
    144  CG         5.2800   91.4340   88.2300 C.2   173  ASP173      0.3671
    145  OD1        5.5140   92.5700   87.7240 O.co2 173  ASP173     -0.2456
    146  OD2        4.2560   90.7850   87.9950 O.co2 173  ASP173     -0.2456
    147  N          8.2970   93.6620   88.5670 N.am  174  PHE174     -0.1974
    148  CA         8.5290   95.0730   88.8960 C.3   174  PHE174      0.1639
    149  C          7.3460   95.9820   88.5270 C.2   174  PHE174      0.2290
    150  O          7.4450   97.1990   88.6260 O.2   174  PHE174     -0.2864
    151  CB         9.8880   95.5600   88.3270 C.3   174  PHE174      0.0560
    152  CG        11.0180   95.4610   89.3350 C.ar  174  PHE174     -0.0200
    153  CD1       11.4350   94.2270   89.8210 C.ar  174  PHE174     -0.0042
    154  CD2       11.6510   96.6010   89.8070 C.ar  174  PHE174     -0.0042
    155  CE1       12.4500   94.1410   90.7750 C.ar  174  PHE174     -0.0003
    156  CE2       12.6790   96.5140   90.7520 C.ar  174  PHE174     -0.0003
    157  CZ        13.0570   95.2880   91.2440 C.ar  174  PHE174     -0.0000
    158  N          8.1260   74.2860   85.9820 N.3   315  PHE315     -0.1241
    159  CA         7.0600   75.2060   85.5640 C.3   315  PHE315      0.1605
    160  C          5.8080   74.4340   85.1660 C.2   315  PHE315      0.2264
    161  O          5.9060   73.3190   84.6410 O.2   315  PHE315     -0.2867
    162  CB         7.5350   76.0800   84.3900 C.3   315  PHE315      0.0534
    163  CG         8.5850   77.0990   84.7600 C.ar  315  PHE315     -0.0203
    164  CD1        9.9360   76.7780   84.7110 C.ar  315  PHE315     -0.0042
    165  CD2        8.2230   78.3730   85.1820 C.ar  315  PHE315     -0.0042
    166  CE1       10.9040   77.7210   85.0560 C.ar  315  PHE315     -0.0003
    167  CE2        9.1900   79.3190   85.5030 C.ar  315  PHE315     -0.0003
    168  CZ        10.5220   78.9900   85.4290 C.ar  315  PHE315     -0.0000
@<TRIPOS>BOND
     1    70    71    1
     2    40    39    2
     3    39    38    1
     4    71    72    1
     5    71    74    1
     6    72    73    2
     7    37    38    1
     8    38    41    1
     9    27    28    2
    10    27    26    1
    11    34    35    2
    12    34    33    1
    13    16    15    2
    14    74    75    1
    15    75    76    1
    16    25    26    1
    17    32    33    1
    18    26    29    1
    19    33    36    1
    20    78    79    1
    21     1     2    1
    22    15    14    1
    23    41    42    1
    24    42    43    1
    25    81    80    2
    26    12    11    2
    27    76    77    1
    28     6     8    1
    29     6     7    1
    30     6     5    1
    31    29    30    1
    32    29    31    1
    33    79    80    1
    34    79    82    1
    35     2     5    1
    36     2     3    1
    37    80    86   am
    38    14    13    1
    39    14    17    1
    40    20    22   ar
    41    20    18   ar
    42    43    44    1
    43    99   100    1
    44    99    96    1
    45   102   104   ar
    46   102   100   ar
    47    22    23   ar
    48    11    10    1
    49     9     3   am
    50     9    10    1
    51    44    45    1
    52   104   105   ar
    53   100   101   ar
    54    84    83    1
    55    83    82    1
    56    83    85    1
    57     3     4    2
    58    17    18    1
    59    86    87    1
    60   101   103   ar
    61   105   106    1
    62   105   103   ar
    63    18    19   ar
    64    95    96    1
    65    95    88   am
    66    23    24    1
    67    23    21   ar
    68    87    88    1
    69    87    90    1
    70    96    97    1
    71    88    89    2
    72    19    21   ar
    73    90    91    1
    74    53    52   ar
    75    97    98    2
    76    97   107   am
    77    54    52   ar
    78    48    49    2
    79    48    47    1
    80   162   163    1
    81   162   159    1
    82    52    51    1
    83   161   160    2
    84   164   163   ar
    85   164   166   ar
    86   163   165   ar
    87    50    51    1
    88    50    47    1
    89    46    47    1
    90    57    58    2
    91    57    56    1
    92    62    60    1
    93   107   108    1
    94   166   168   ar
    95    59    60    1
    96    59    56    1
    97    91    92    1
    98   160   159    1
    99   165   167   ar
   100   168   167   ar
   101    60    61    1
   102   159   158    1
   103    56    55    1
   104    92    94   ar
   105    92    93   ar
   106    69    67    1
   107   109   108    1
   108   109   110    2
   109   108   111    1
   110    65    66    2
   111    65    64    1
   112    68    67    1
   113   111   112    1
   114   112   113    1
   115   112   114    1
   116    67    64    1
   117   131   130    1
   118   145   144   ar
   119   146   144   ar
   120    64    63    1
   121   130   129    1
   122   144   143    1
   123   151   148    1
   124   151   152    1
   125   149   150    2
   126   149   148    1
   127   147   148    1
   128   147   141   am
   129   135   134    2
   130   138   136    1
   131   140   143    1
   132   140   139    1
   133   140   141    1
   134   136   133    1
   135   136   137    1
   136   123   121   ar
   137   152   154   ar
   138   152   153   ar
   139   134   139   am
   140   134   133    1
   141   141   142    2
   142   133   132    1
   143   154   156   ar
   144   153   155   ar
   145   129   128    1
   146   121   120    1
   147   121   122   ar
   148   128   125    1
   149   120   119    1
   150   115   116    1
   151   156   157   ar
   152   155   157   ar
   153   119   116    1
   154   116   117    1
   155   125   126    1
   156   125   124    1
   157   126   127    2
   158   117   118    2
