@<TRIPOS>MOLECULE
tmp/4c36A00.pdb
 161 152 0 0 0
SMALL
GASTEIGER

@<TRIPOS>ATOM
      1  N        -27.2280  -15.6220   -8.3610 N.3    37  LEU37      -0.1231
      2  CA       -27.4210  -14.1950   -8.6650 C.3    37  LEU37       0.1693
      3  C        -26.1690  -13.4170   -8.4670 C.2    37  LEU37       0.2592
      4  O        -26.0050  -12.3520   -9.0720 O.2    37  LEU37      -0.2718
      5  CB       -28.5420  -13.5860   -7.8070 C.3    37  LEU37       0.0284
      6  CG       -29.9330  -14.2270   -7.9300 C.3    37  LEU37       0.0019
      7  CD1      -30.8470  -13.7460   -6.8340 C.3    37  LEU37       0.0001
      8  CD2      -30.5550  -13.9530   -9.2900 C.3    37  LEU37       0.0001
      9  N        -25.3310  -13.8960   -7.5540 N.am   38  GLY38      -0.1957
     10  CA       -24.0710  -13.2440   -7.2340 C.3    38  GLY38       0.1869
     11  C        -23.2410  -14.0130   -6.2360 C.2    38  GLY38       0.2309
     12  O        -23.7420  -14.8970   -5.5300 O.2    38  GLY38      -0.2863
     13  N        -19.5220  -11.9220    0.8180 N.3    42  TYR42      -0.1241
     14  CA       -20.8060  -12.2580    1.4370 C.3    42  TYR42       0.1605
     15  C        -21.2420  -13.7220    1.1300 C.2    42  TYR42       0.2264
     16  O        -22.4060  -14.0590    1.3550 O.2    42  TYR42      -0.2867
     17  CB       -21.8910  -11.2610    0.9440 C.3    42  TYR42       0.0534
     18  CG       -22.1480  -11.2540   -0.5550 C.ar   42  TYR42      -0.0201
     19  CD1      -22.9150  -12.2520   -1.1580 C.ar   42  TYR42      -0.0009
     20  CD2      -21.7030  -10.2040   -1.3540 C.ar   42  TYR42      -0.0009
     21  CE1      -23.1560  -12.2490   -2.5280 C.ar   42  TYR42       0.0417
     22  CE2      -21.9700  -10.1720   -2.7230 C.ar   42  TYR42       0.0417
     23  CZ       -22.7040  -11.1940   -3.3040 C.ar   42  TYR42       0.1957
     24  OH       -22.9520  -11.1840   -4.6520 O.3    42  TYR42      -0.2866
     25  N        -25.4190  -15.7230   -3.3160 N.3    45  VAL45      -0.1245
     26  CA       -26.8500  -15.4690   -3.3110 C.3    45  VAL45       0.1561
     27  C        -27.4700  -16.2540   -4.4700 C.2    45  VAL45       0.2260
     28  O        -27.0820  -16.0990   -5.6220 O.2    45  VAL45      -0.2867
     29  CB       -27.2230  -13.9600   -3.3060 C.3    45  VAL45       0.0252
     30  CG1      -28.7430  -13.7770   -3.3280 C.3    45  VAL45       0.0019
     31  CG2      -26.6230  -13.2490   -2.0930 C.3    45  VAL45       0.0019
     32  N        -34.4230  -14.8580   -2.7880 N.3    58  ALA58      -0.1245
     33  CA       -32.9660  -14.7730   -2.9500 C.3    58  ALA58       0.1562
     34  C        -32.3710  -15.4100   -1.7020 C.2    58  ALA58       0.2260
     35  O        -32.5910  -14.9270   -0.5910 O.2    58  ALA58      -0.2867
     36  CB       -32.5200  -13.3220   -3.0760 C.3    58  ALA58       0.0290
     37  N        -29.2680  -16.3850    0.4830 N.3    60  LYS60      -0.1245
     38  CA       -27.8700  -16.1500    0.8200 C.3    60  LYS60       0.1561
     39  C        -27.3430  -17.4110    1.5210 C.2    60  LYS60       0.2260
     40  O        -27.8860  -17.8120    2.5560 O.2    60  LYS60      -0.2867
     41  CB       -27.7320  -14.9150    1.7260 C.3    60  LYS60       0.0271
     42  CG       -26.2690  -14.4830    1.9880 C.3    60  LYS60       0.0035
     43  CD       -26.2520  -13.1220    2.7490 C.3    60  LYS60       0.0206
     44  CE       -24.8800  -12.7640    3.2250 C.3    60  LYS60       0.1093
     45  NZ       -24.7640  -11.3210    3.6210 N.3    60  LYS60      -0.1314
     46  N        -34.8400   -4.9040    2.8540 N.3    92  VAL92      -0.1245
     47  CA       -35.1710   -6.2260    2.3350 C.3    92  VAL92       0.1561
     48  C        -35.6700   -7.0760    3.5070 C.2    92  VAL92       0.2260
     49  O        -35.1480   -6.9700    4.6270 O.2    92  VAL92      -0.2867
     50  CB       -33.9590   -6.8650    1.6040 C.3    92  VAL92       0.0252
     51  CG1      -32.9230   -7.3990    2.5850 C.3    92  VAL92       0.0019
     52  CG2      -34.4010   -7.9530    0.6300 C.3    92  VAL92       0.0019
     53  N        -34.3060  -14.3680    1.5870 N.3   108  LEU108     -0.1231
     54  CA       -34.7560  -12.9750    1.4680 C.3   108  LEU108      0.1693
     55  C        -35.7180  -12.7590    0.3230 C.2   108  LEU108      0.2592
     56  O        -35.7480  -13.5380   -0.6360 O.2   108  LEU108     -0.2718
     57  CB       -33.5340  -12.0400    1.2440 C.3   108  LEU108      0.0284
     58  CG       -32.3630  -12.1370    2.2230 C.3   108  LEU108      0.0019
     59  CD1      -31.0800  -11.6300    1.5740 C.3   108  LEU108      0.0001
     60  CD2      -32.6420  -11.3290    3.4930 C.3   108  LEU108      0.0001
     61  N        -36.4730  -11.6520    0.3820 N.am  109  GLU109     -0.1966
     62  CA       -37.3450  -11.3450   -0.7380 C.3   109  GLU109      0.1733
     63  C        -36.5020  -11.0830   -1.9810 C.2   109  GLU109      0.2616
     64  O        -35.4040  -10.5210   -1.8890 O.2   109  GLU109     -0.2715
     65  CB       -38.3270  -10.2110   -0.4490 C.3   109  GLU109      0.0429
     66  CG       -37.7010   -8.9340    0.0240 C.3   109  GLU109      0.1163
     67  CD       -38.6510   -7.7660    0.1420 C.2   109  GLU109      0.3649
     68  OE1      -39.4320   -7.5190   -0.8070 O.co2 109  GLU109     -0.2457
     69  OE2      -38.5570   -7.0530    1.1650 O.co2 109  GLU109     -0.2457
     70  N        -36.9780  -11.5860   -3.1060 N.am  110  TYR110     -0.1960
     71  CA       -36.3060  -11.4480   -4.3870 C.3   110  TYR110      0.1771
     72  C        -36.7650  -10.2020   -5.1360 C.2   110  TYR110      0.2619
     73  O        -37.9570  -10.0260   -5.3620 O.2   110  TYR110     -0.2715
     74  CB       -36.5030  -12.7070   -5.2530 C.3   110  TYR110      0.0574
     75  CG       -35.8520  -12.6050   -6.6170 C.ar  110  TYR110     -0.0198
     76  CD1      -34.4970  -12.2910   -6.7450 C.ar  110  TYR110     -0.0009
     77  CD2      -36.5910  -12.7980   -7.7830 C.ar  110  TYR110     -0.0009
     78  CE1      -33.9030  -12.1540   -7.9940 C.ar  110  TYR110      0.0417
     79  CE2      -35.9920  -12.7050   -9.0410 C.ar  110  TYR110      0.0417
     80  CZ       -34.6460  -12.3820   -9.1380 C.ar  110  TYR110      0.1957
     81  OH       -34.0200  -12.2740  -10.3560 O.3   110  TYR110     -0.2866
     82  N        -35.8050   -9.3530   -5.5410 N.am  111  LEU111     -0.1977
     83  CA       -36.0780   -8.1350   -6.3140 C.3   111  LEU111      0.1596
     84  C        -35.5400   -8.3270   -7.7290 C.2   111  LEU111      0.2287
     85  O        -34.3430   -8.1090   -7.9560 O.2   111  LEU111     -0.2864
     86  CB       -35.4650   -6.8710   -5.6480 C.3   111  LEU111      0.0297
     87  CG       -36.0860   -6.3840   -4.3180 C.3   111  LEU111      0.0022
     88  CD1      -37.6080   -6.4240   -4.3520 C.3   111  LEU111      0.0001
     89  CD2      -35.5220   -7.1550   -3.1200 C.3   111  LEU111      0.0001
     90  N        -29.7230   -4.7260   -8.8320 N.3   115  GLU115     -0.1245
     91  CA       -28.9930   -3.7490   -8.0050 C.3   115  GLU115      0.1567
     92  C        -28.9710   -2.3810   -8.6240 C.2   115  GLU115      0.2260
     93  O        -28.8150   -2.2640   -9.8450 O.2   115  GLU115     -0.2867
     94  CB       -27.5370   -4.1860   -7.8100 C.3   115  GLU115      0.0388
     95  CG       -27.3840   -5.6050   -7.3220 C.3   115  GLU115      0.1160
     96  CD       -26.1230   -6.2350   -7.8690 C.2   115  GLU115      0.3649
     97  OE1      -25.0580   -6.0610   -7.2360 O.co2 115  GLU115     -0.2457
     98  OE2      -26.1850   -6.8300   -8.9710 O.co2 115  GLU115     -0.2457
     99  N        -24.1830   -1.3620   -4.8390 N.3   157  GLU157     -0.1231
    100  CA       -24.2550   -2.8420   -4.9480 C.3   157  GLU157      0.1699
    101  C        -25.2860   -3.4370   -3.9540 C.2   157  GLU157      0.2592
    102  O        -25.8630   -4.4840   -4.2270 O.2   157  GLU157     -0.2718
    103  CB       -22.8840   -3.5040   -4.6860 C.3   157  GLU157      0.0402
    104  CG       -21.7940   -3.1980   -5.7090 C.3   157  GLU157      0.1161
    105  CD       -20.9600   -1.9510   -5.4630 C.2   157  GLU157      0.3649
    106  OE1      -21.5300   -0.8980   -5.0980 O.co2 157  GLU157     -0.2457
    107  OE2      -19.7480   -1.9950   -5.7620 O.co2 157  GLU157     -0.2457
    108  N        -25.4940   -2.7570   -2.8170 N.am  158  ASN158     -0.1974
    109  CA       -26.3800   -3.1860   -1.7220 C.3   158  ASN158      0.1688
    110  C        -27.7830   -2.5980   -1.7670 C.2   158  ASN158      0.2292
    111  O        -28.5450   -2.7190   -0.8030 O.2   158  ASN158     -0.2864
    112  CB       -25.6850   -2.9020   -0.3790 C.3   158  ASN158      0.1181
    113  CG       -24.5580   -3.8810   -0.1170 C.2   158  ASN158      0.2629
    114  OD1      -24.4000   -4.8550   -0.8360 O.2   158  ASN158     -0.2716
    115  ND2      -23.7300   -3.6380    0.9010 N.am  158  ASN158     -0.0877
    116  N        -31.2520   -2.6370   -3.8120 N.3   160  MET160     -0.1245
    117  CA       -32.0640   -3.3060   -4.8400 C.3   160  MET160      0.1570
    118  C        -33.1800   -2.3790   -5.2910 C.2   160  MET160      0.2261
    119  O        -33.6880   -1.6080   -4.4750 O.2   160  MET160     -0.2867
    120  CB       -32.6790   -4.5990   -4.2870 C.3   160  MET160      0.0387
    121  CG       -31.6650   -5.6000   -3.7790 C.3   160  MET160      0.0595
    122  SD       -30.3340   -6.0710   -4.9110 S.3   160  MET160     -0.1393
    123  CE       -31.2590   -6.9430   -6.1640 C.3   160  MET160      0.0692
    124  N        -30.1190   -4.1650    1.1840 N.3   170  THR170     -0.1203
    125  CA       -29.7890   -5.5700    1.4300 C.3   170  THR170      0.1994
    126  C        -28.4170   -5.6420    2.0880 C.2   170  THR170      0.2617
    127  O        -27.7640   -4.6190    2.2480 O.2   170  THR170     -0.2717
    128  CB       -29.7940   -6.3940    0.1200 C.3   170  THR170      0.1784
    129  OG1      -28.6850   -6.0310   -0.7040 O.3   170  THR170     -0.2211
    130  CG2      -31.0970   -6.3110   -0.6290 C.3   170  THR170      0.0376
    131  N        -27.9570   -6.8480    2.4090 N.am  171  ASP171     -0.1973
    132  CA       -26.6300   -7.0830    3.0090 C.3   171  ASP171      0.1709
    133  C        -26.4230   -6.4000    4.3330 C.2   171  ASP171      0.2293
    134  O        -25.8880   -5.2880    4.4050 O.2   171  ASP171     -0.2864
    135  CB       -25.4230   -6.8670    2.0650 C.3   171  ASP171      0.1436
    136  CG       -24.2350   -7.7390    2.4450 C.2   171  ASP171      0.3671
    137  OD1      -24.2610   -8.3380    3.5520 O.co2 171  ASP171     -0.2456
    138  OD2      -23.3140   -7.8930    1.6020 O.co2 171  ASP171     -0.2456
    139  N        -29.3260   -9.5440  -13.6950 N.3   313  PHE313     -0.1241
    140  CA       -28.1900  -10.0800  -12.9460 C.3   313  PHE313      0.1605
    141  C        -27.1900  -10.6790  -13.9050 C.2   313  PHE313      0.2264
    142  O        -27.5680  -11.1340  -14.9890 O.2   313  PHE313     -0.2867
    143  CB       -28.6720  -11.1390  -11.9400 C.3   313  PHE313      0.0534
    144  CG       -29.5780  -10.5570  -10.8760 C.ar  313  PHE313     -0.0203
    145  CD1      -30.9500  -10.4420  -11.0920 C.ar  313  PHE313     -0.0042
    146  CD2      -29.0620  -10.1250   -9.6560 C.ar  313  PHE313     -0.0042
    147  CE1      -31.7810   -9.8750  -10.1190 C.ar  313  PHE313     -0.0003
    148  CE2      -29.8980   -9.5730   -8.6790 C.ar  313  PHE313     -0.0003
    149  CZ       -31.2480   -9.4490   -8.9180 C.ar  313  PHE313     -0.0000
    150  N        -22.9090  -16.3780  -13.3420 N.3   316  TYR316     -0.1241
    151  CA       -21.8250  -16.8910  -12.4950 C.3   316  TYR316      0.1605
    152  C        -21.7070  -18.3880  -12.6730 C.2   316  TYR316      0.2264
    153  O        -22.6910  -19.0380  -13.0390 O.2   316  TYR316     -0.2867
    154  CB       -22.0800  -16.5530  -11.0020 C.3   316  TYR316      0.0534
    155  CG       -22.1540  -15.0670  -10.7280 C.ar  316  TYR316     -0.0201
    156  CD1      -23.3440  -14.3660  -10.8940 C.ar  316  TYR316     -0.0009
    157  CD2      -21.0110  -14.3430  -10.3810 C.ar  316  TYR316     -0.0009
    158  CE1      -23.3900  -12.9820  -10.7630 C.ar  316  TYR316      0.0417
    159  CE2      -21.0600  -12.9630  -10.1930 C.ar  316  TYR316      0.0417
    160  CZ       -22.2560  -12.2880  -10.3770 C.ar  316  TYR316      0.1957
    161  OH       -22.3290  -10.9290  -10.1800 O.3   316  TYR316     -0.2866
@<TRIPOS>BOND
     1   142   141    2
     2   141   140    1
     3   139   140    1
     4   150   151    1
     5   153   152    2
     6   140   143    1
     7   152   151    1
     8   151   154    1
     9   143   144    1
    10   145   144   ar
    11   145   147   ar
    12   154   155    1
    13   156   158   ar
    14   156   155   ar
    15   144   146   ar
    16   158   160   ar
    17   155   157   ar
    18   157   159   ar
    19   160   159   ar
    20   160   161    1
    21    81    80    1
    22   147   149   ar
    23    93    92    2
    24   146   148   ar
    25     8     6    1
    26    80    79   ar
    27    80    78   ar
    28     4     3    2
    29    79    77   ar
    30    98    96   ar
    31   149   148   ar
    32    90    91    1
    33     2     3    1
    34     2     1    1
    35     2     5    1
    36    92    91    1
    37     3     9   am
    38    91    94    1
    39    78    76   ar
    40    85    84    2
    41     6     5    1
    42     6     7    1
    43    96    95    1
    44    96    97   ar
    45    94    95    1
    46    77    75   ar
    47    84    83    1
    48     9    10    1
    49    10    11    1
    50    76    75   ar
    51    75    74    1
    52    83    86    1
    53    83    82    1
    54    11    12    2
    55   123   122    1
    56   107   105   ar
    57   104   105    1
    58   104   103    1
    59    86    87    1
    60    28    27    2
    61    82    72   am
    62   105   106   ar
    63    73    72    2
    64   118   117    1
    65   118   119    2
    66    74    71    1
    67    72    71    1
    68   100    99    1
    69   100   103    1
    70   100   101    1
    71   122   121    1
    72   117   120    1
    73   117   116    1
    74    24    23    1
    75    27    26    1
    76    71    70    1
    77    88    87    1
    78    87    89    1
    79   120   121    1
    80   102   101    2
    81   101   108   am
    82    30    29    1
    83    25    26    1
    84    26    29    1
    85    29    31    1
    86    23    22   ar
    87    23    21   ar
    88    70    63   am
    89    36    33    1
    90    33    32    1
    91    33    34    1
    92   108   109    1
    93    22    20   ar
    94    21    19   ar
    95    63    64    2
    96    63    62    1
    97   110   109    1
    98   110   111    2
    99   109   112    1
   100    34    35    2
   101    20    18   ar
   102    19    18   ar
   103   114   113    2
   104    68    67   ar
   105    62    65    1
   106    62    61    1
   107   129   128    1
   108    56    55    2
   109   130   128    1
   110    18    17    1
   111    65    66    1
   112   112   113    1
   113   113   115   am
   114    66    67    1
   115   128   125    1
   116    67    69   ar
   117    55    61   am
   118    55    54    1
   119    37    38    1
   120    52    50    1
   121    13    14    1
   122    38    39    1
   123    38    41    1
   124    17    14    1
   125    15    16    2
   126    15    14    1
   127   124   125    1
   128    57    54    1
   129    57    58    1
   130   125   126    1
   131    54    53    1
   132    39    40    2
   133    59    58    1
   134   138   136   ar
   135    50    47    1
   136    50    51    1
   137    41    42    1
   138    42    43    1
   139   135   136    1
   140   135   132    1
   141   126   127    2
   142   126   131   am
   143    58    60    1
   144    47    46    1
   145    47    48    1
   146   131   132    1
   147   136   137   ar
   148    43    44    1
   149   132   133    1
   150    44    45    1
   151    48    49    2
   152   133   134    2
