@<TRIPOS>MOLECULE
tmp/4c37A00.pdb
 149 140 0 0 0
SMALL
GASTEIGER

@<TRIPOS>ATOM
      1  N         27.3420  -15.6090    8.1150 N.3    37  LEU37      -0.1231
      2  CA        27.5610  -14.1800    8.3550 C.3    37  LEU37       0.1693
      3  C         26.3600  -13.3250    8.0130 C.2    37  LEU37       0.2592
      4  O         26.2670  -12.1930    8.4870 O.2    37  LEU37      -0.2718
      5  CB        28.7630  -13.6740    7.5210 C.3    37  LEU37       0.0284
      6  CG        30.1160  -14.3010    7.8030 C.3    37  LEU37       0.0019
      7  CD1       31.1090  -13.9810    6.6800 C.3    37  LEU37       0.0001
      8  CD2       30.6420  -13.8360    9.1690 C.3    37  LEU37       0.0001
      9  N         25.5260  -13.8020    7.0990 N.am   38  GLY38      -0.1957
     10  CA        24.3560  -13.0430    6.6860 C.3    38  GLY38       0.1869
     11  C         23.4240  -13.8820    5.8520 C.2    38  GLY38       0.2309
     12  O         23.8290  -14.9280    5.3270 O.2    38  GLY38      -0.2863
     13  N         18.5390  -13.5490   -1.4300 N.3    42  TYR42      -0.1241
     14  CA        19.5980  -14.0150   -2.3370 C.3    42  TYR42       0.1605
     15  C         20.1680  -15.3830   -1.9290 C.2    42  TYR42       0.2264
     16  O         20.8580  -16.0060   -2.7280 O.2    42  TYR42      -0.2867
     17  CB        20.7520  -12.9670   -2.3570 C.3    42  TYR42       0.0534
     18  CG        21.4770  -12.8650   -1.0340 C.ar   42  TYR42      -0.0201
     19  CD1       22.5250  -13.7310   -0.7230 C.ar   42  TYR42      -0.0009
     20  CD2       21.0760  -11.9510   -0.0640 C.ar   42  TYR42      -0.0009
     21  CE1       23.1530  -13.6930    0.5170 C.ar   42  TYR42       0.0417
     22  CE2       21.7000  -11.8980    1.1860 C.ar   42  TYR42       0.0417
     23  CZ        22.7550  -12.7640    1.4630 C.ar   42  TYR42       0.1957
     24  OH        23.3920  -12.7650    2.6750 O.3    42  TYR42      -0.2866
     25  N         25.5970  -15.8250    3.2200 N.3    45  VAL45      -0.1245
     26  CA        27.0430  -15.5850    3.1560 C.3    45  VAL45       0.1561
     27  C         27.6280  -16.3230    4.3580 C.2    45  VAL45       0.2260
     28  O         27.2090  -16.1040    5.5090 O.2    45  VAL45      -0.2867
     29  CB        27.4190  -14.0810    3.1450 C.3    45  VAL45       0.0252
     30  CG1       28.9250  -13.8940    3.0910 C.3    45  VAL45       0.0019
     31  CG2       26.7480  -13.3440    1.9630 C.3    45  VAL45       0.0019
     32  N         34.5280  -14.9470    2.6110 N.3    58  ALA58      -0.1245
     33  CA        33.0860  -14.8360    2.7780 C.3    58  ALA58       0.1562
     34  C         32.4890  -15.4780    1.5260 C.2    58  ALA58       0.2260
     35  O         32.6140  -14.9260    0.4310 O.2    58  ALA58      -0.2867
     36  CB        32.6700  -13.3610    2.8720 C.3    58  ALA58       0.0290
     37  N         29.4280  -16.4590   -0.6680 N.3    60  LYS60      -0.1245
     38  CA        28.0190  -16.1450   -0.9640 C.3    60  LYS60       0.1561
     39  C         27.4580  -17.3720   -1.6990 C.2    60  LYS60       0.2260
     40  O         28.0100  -17.7900   -2.7290 O.2    60  LYS60      -0.2867
     41  CB        27.9360  -14.8690   -1.8220 C.3    60  LYS60       0.0271
     42  CG        26.5230  -14.3600   -2.0420 C.3    60  LYS60       0.0035
     43  CD        26.5950  -12.9370   -2.6330 C.3    60  LYS60       0.0206
     44  CE        25.2190  -12.3070   -2.7140 C.3    60  LYS60       0.1093
     45  NZ        25.3310  -10.8620   -3.0440 N.3    60  LYS60      -0.1314
     46  N         34.8350   -5.0830   -3.0310 N.3    92  VAL92      -0.1245
     47  CA        35.1780   -6.4120   -2.5060 C.3    92  VAL92       0.1561
     48  C         35.7720   -7.2420   -3.6450 C.2    92  VAL92       0.2260
     49  O         35.3050   -7.1610   -4.7920 O.2    92  VAL92      -0.2867
     50  CB        33.9290   -7.1300   -1.8960 C.3    92  VAL92       0.0252
     51  CG1       32.9640   -7.6130   -2.9950 C.3    92  VAL92       0.0019
     52  CG2       34.3500   -8.2950   -1.0110 C.3    92  VAL92       0.0019
     53  N         34.3070  -14.5010   -1.7070 N.3   108  LEU108     -0.1231
     54  CA        34.7310  -13.1110   -1.5970 C.3   108  LEU108      0.1693
     55  C         35.7250  -12.9070   -0.4760 C.2   108  LEU108      0.2592
     56  O         35.7650  -13.6720    0.4890 O.2   108  LEU108     -0.2718
     57  CB        33.4930  -12.2250   -1.2740 C.3   108  LEU108      0.0284
     58  CG        32.2470  -12.4220   -2.1930 C.3   108  LEU108      0.0019
     59  CD1       31.0190  -11.7420   -1.6160 C.3   108  LEU108      0.0001
     60  CD2       32.5470  -11.9140   -3.6110 C.3   108  LEU108      0.0001
     61  N         36.4650  -11.8070   -0.5680 N.am  109  GLU109     -0.1966
     62  CA        37.3600  -11.3140    0.4840 C.3   109  GLU109      0.1733
     63  C         36.4950  -11.1750    1.7710 C.2   109  GLU109      0.2616
     64  O         35.3410  -10.7230    1.6870 O.2   109  GLU109     -0.2715
     65  CB        37.7940   -9.9160   -0.0010 C.3   109  GLU109      0.0429
     66  CG        38.6150   -9.0340    0.9050 C.3   109  GLU109      0.1163
     67  CD        39.0210   -7.7560    0.1900 C.2   109  GLU109      0.3649
     68  OE1       38.4430   -7.4210   -0.8790 O.co2 109  GLU109     -0.2457
     69  OE2       39.9400   -7.0880    0.7110 O.co2 109  GLU109     -0.2457
     70  N         37.0190  -11.6230    2.9170 N.am  110  TYR110     -0.1960
     71  CA        36.3040  -11.5280    4.2080 C.3   110  TYR110      0.1771
     72  C         36.7330  -10.2670    4.9440 C.2   110  TYR110      0.2619
     73  O         37.9300  -10.0330    5.1230 O.2   110  TYR110     -0.2715
     74  CB        36.5170  -12.7740    5.0860 C.3   110  TYR110      0.0574
     75  CG        35.9300  -12.6760    6.4860 C.ar  110  TYR110     -0.0198
     76  CD1       34.5830  -12.3800    6.6790 C.ar  110  TYR110     -0.0009
     77  CD2       36.7200  -12.9010    7.6170 C.ar  110  TYR110     -0.0009
     78  CE1       34.0410  -12.2770    7.9610 C.ar  110  TYR110      0.0417
     79  CE2       36.1820  -12.8120    8.9050 C.ar  110  TYR110      0.0417
     80  CZ        34.8400  -12.5090    9.0690 C.ar  110  TYR110      0.1957
     81  OH        34.2850  -12.4020   10.3220 O.3   110  TYR110     -0.2866
     82  N         35.7530   -9.4760    5.3960 N.am  111  LEU111     -0.1977
     83  CA        36.0120   -8.2450    6.1350 C.3   111  LEU111      0.1596
     84  C         35.4760   -8.4460    7.5630 C.2   111  LEU111      0.2287
     85  O         34.2650   -8.2670    7.7860 O.2   111  LEU111     -0.2864
     86  CB        35.3200   -7.0480    5.4190 C.3   111  LEU111      0.0297
     87  CG        35.9380   -6.5370    4.0790 C.3   111  LEU111      0.0022
     88  CD1       37.4640   -6.5880    4.0700 C.3   111  LEU111      0.0001
     89  CD2       35.3030   -7.2290    2.8750 C.3   111  LEU111      0.0001
     90  N         29.5800   -4.9470    8.8200 N.3   115  GLU115     -0.1245
     91  CA        28.8610   -3.9670    8.0060 C.3   115  GLU115      0.1567
     92  C         28.8370   -2.5960    8.6400 C.2   115  GLU115      0.2260
     93  O         28.6300   -2.4900    9.8570 O.2   115  GLU115     -0.2867
     94  CB        27.4140   -4.4250    7.8030 C.3   115  GLU115      0.0388
     95  CG        27.2900   -5.7930    7.1450 C.3   115  GLU115      0.1160
     96  CD        25.8950   -6.3780    7.2310 C.2   115  GLU115      0.3649
     97  OE1       24.9550   -5.6250    7.5750 O.co2 115  GLU115     -0.2457
     98  OE2       25.7510   -7.6000    6.9970 O.co2 115  GLU115     -0.2457
     99  N         23.9840   -1.5060    4.8100 N.3   157  GLU157     -0.1231
    100  CA        23.9790   -2.9680    4.9380 C.3   157  GLU157      0.1699
    101  C         25.0210   -3.5610    3.9530 C.2   157  GLU157      0.2592
    102  O         25.6290   -4.5600    4.2590 O.2   157  GLU157     -0.2718
    103  CB        22.5870   -3.5340    4.5920 C.3   157  GLU157      0.0402
    104  CG        21.4930   -3.2350    5.6230 C.3   157  GLU157      0.1161
    105  CD        20.6990   -1.9450    5.4560 C.2   157  GLU157      0.3649
    106  OE1       21.2720   -0.9340    4.9930 O.co2 157  GLU157     -0.2457
    107  OE2       19.4920   -1.9550    5.7840 O.co2 157  GLU157     -0.2457
    108  N         25.2360   -2.8900    2.8140 N.am  158  ASN158     -0.1974
    109  CA        26.1150   -3.3220    1.7150 C.3   158  ASN158      0.1688
    110  C         27.5390   -2.7510    1.7550 C.2   158  ASN158      0.2292
    111  O         28.2550   -2.8050    0.7470 O.2   158  ASN158     -0.2864
    112  CB        25.4010   -2.9990    0.4000 C.3   158  ASN158      0.1181
    113  CG        24.2920   -3.9910    0.1150 C.2   158  ASN158      0.2629
    114  OD1       24.1380   -4.9930    0.8470 O.2   158  ASN158     -0.2716
    115  ND2       23.4950   -3.7420   -0.9420 N.am  158  ASN158     -0.0877
    116  N         31.1300   -2.8440    3.7850 N.3   160  MET160     -0.1245
    117  CA        31.8940   -3.4920    4.8590 C.3   160  MET160      0.1570
    118  C         33.0120   -2.5660    5.2820 C.2   160  MET160      0.2261
    119  O         33.5230   -1.8340    4.4360 O.2   160  MET160     -0.2867
    120  CB        32.5370   -4.7970    4.3750 C.3   160  MET160      0.0387
    121  CG        31.5920   -5.7560    3.7520 C.3   160  MET160      0.0595
    122  SD        30.2650   -6.2990    4.8400 S.3   160  MET160     -0.1393
    123  CE        31.2050   -7.1090    6.1600 C.3   160  MET160      0.0692
    124  N         30.1210   -4.3060   -1.1950 N.3   170  THR170     -0.1203
    125  CA        29.7820   -5.7100   -1.4100 C.3   170  THR170      0.1994
    126  C         28.3600   -5.8250   -1.9750 C.2   170  THR170      0.2617
    127  O         27.6660   -4.8150   -2.0380 O.2   170  THR170     -0.2717
    128  CB        30.1040   -6.5470   -0.1660 C.3   170  THR170      0.1784
    129  OG1       30.3110   -7.8990   -0.5600 O.3   170  THR170     -0.2211
    130  CG2       29.0470   -6.4360    0.9310 C.3   170  THR170      0.0376
    131  N         27.9320   -7.0330   -2.3860 N.am  171  ASP171     -0.1973
    132  CA        26.6050   -7.2660   -2.9730 C.3   171  ASP171      0.1709
    133  C         26.3740   -6.5200   -4.3000 C.2   171  ASP171      0.2293
    134  O         25.9400   -5.3690   -4.3280 O.2   171  ASP171     -0.2864
    135  CB        25.4480   -7.0250   -1.9720 C.3   171  ASP171      0.1436
    136  CG        24.0610   -7.0210   -2.6110 C.2   171  ASP171      0.3671
    137  OD1       23.7940   -7.9000   -3.4640 O.co2 171  ASP171     -0.2456
    138  OD2       23.2640   -6.1120   -2.2930 O.co2 171  ASP171     -0.2456
    139  N         29.5540   -9.4000   13.6310 N.3   313  PHE313     -0.1241
    140  CA        28.3690   -9.8610   12.8880 C.3   313  PHE313      0.1605
    141  C         27.3010  -10.4030   13.8560 C.2   313  PHE313      0.2264
    142  O         27.6490  -10.9650   14.9030 O.2   313  PHE313     -0.2867
    143  CB        28.7430  -10.9820   11.9010 C.3   313  PHE313      0.0534
    144  CG        29.6230  -10.5280   10.7570 C.ar  313  PHE313     -0.0203
    145  CD1       30.9970  -10.4030   10.9240 C.ar  313  PHE313     -0.0042
    146  CD2       29.0800  -10.2510    9.5020 C.ar  313  PHE313     -0.0042
    147  CE1       31.8090   -9.9630    9.8740 C.ar  313  PHE313     -0.0003
    148  CE2       29.8990   -9.8260    8.4410 C.ar  313  PHE313     -0.0003
    149  CZ        31.2550   -9.6790    8.6360 C.ar  313  PHE313     -0.0000
@<TRIPOS>BOND
     1    49    48    2
     2   134   133    2
     3   133   132    1
     4    48    47    1
     5    60    58    1
     6   137   136   ar
     7    45    44    1
     8    46    47    1
     9    51    50    1
    10   132   131    1
    11   132   135    1
    12    40    39    2
    13    16    15    2
    14    44    43    1
    15    43    42    1
    16   136   138   ar
    17   136   135    1
    18    47    50    1
    19   131   126   am
    20    17    14    1
    21    17    18    1
    22    14    15    1
    23    14    13    1
    24    58    59    1
    25    58    57    1
    26    42    41    1
    27   127   126    2
    28   126   125    1
    29    50    52    1
    30    41    38    1
    31    53    54    1
    32    39    38    1
    33    54    57    1
    34    54    55    1
    35   125   124    1
    36   125   128    1
    37    18    19   ar
    38    18    20   ar
    39    38    37    1
    40   115   113   am
    41    68    67   ar
    42    19    21   ar
    43    61    55   am
    44    61    62    1
    45   129   128    1
    46    55    56    2
    47   128   130    1
    48    20    22   ar
    49    65    62    1
    50    65    66    1
    51   113   112    1
    52   113   114    2
    53    67    69   ar
    54    67    66    1
    55   112   109    1
    56    35    34    2
    57    62    63    1
    58    21    23   ar
    59   111   110    2
    60    22    23   ar
    61    23    24    1
    62    34    33    1
    63    64    63    2
    64   109   110    1
    65   109   108    1
    66    63    70   am
    67    31    29    1
    68    32    33    1
    69    33    36    1
    70   108   101   am
    71    89    87    1
    72    70    71    1
    73    30    29    1
    74    29    26    1
    75    26    25    1
    76    26    27    1
    77   121   120    1
    78   121   122    1
    79   116   117    1
    80   101   102    2
    81   101   100    1
    82    88    87    1
    83    87    86    1
    84    71    72    1
    85    71    74    1
    86    27    28    2
    87   120   117    1
    88   119   118    2
    89   103   100    1
    90   103   104    1
    91    99   100    1
    92   122   123    1
    93   117   118    1
    94    72    73    2
    95    72    82   am
    96   106   105   ar
    97    74    75    1
    98    12    11    2
    99    82    83    1
   100    86    83    1
   101   105   104    1
   102   105   107   ar
   103    11    10    1
   104    83    84    1
   105    75    76   ar
   106    75    77   ar
   107    76    78   ar
   108     7     6    1
   109    10     9    1
   110    98    96   ar
   111     9     3   am
   112    95    96    1
   113    95    94    1
   114    96    97   ar
   115     5     6    1
   116     5     2    1
   117    84    85    2
   118    77    79   ar
   119    94    91    1
   120     6     8    1
   121    78    80   ar
   122    91    92    1
   123    91    90    1
   124     3     2    1
   125     3     4    2
   126     1     2    1
   127   148   149   ar
   128   148   146   ar
   129   149   147   ar
   130    92    93    2
   131    79    80   ar
   132    80    81    1
   133   146   144   ar
   134   147   145   ar
   135   144   145   ar
   136   144   143    1
   137   143   140    1
   138   140   139    1
   139   140   141    1
   140   141   142    2
