@<TRIPOS>MOLECULE
tmp/4c39B03.pdb
 173 170 0 0 0
SMALL
GASTEIGER

@<TRIPOS>ATOM
      1  N         18.0580   12.3260   47.4890 N.3    38  MET38      -0.1230
      2  CA        17.8280   11.8380   48.8530 C.3    38  MET38       0.1702
      3  C         17.4980   12.9530   49.8690 C.2    38  MET38       0.2592
      4  O         16.6350   12.7710   50.7190 O.2    38  MET38      -0.2718
      5  CB        18.9820   10.9550   49.3150 C.3    38  MET38       0.0401
      6  CG        18.8260   10.5130   50.7630 C.3    38  MET38       0.0596
      7  SD        18.8920    8.7340   50.9690 S.3    38  MET38      -0.1393
      8  CE        19.8480    8.2440   49.5150 C.3    38  MET38       0.0692
      9  N         18.1440   14.1140   49.7530 N.am   39  LEU39      -0.1980
     10  CA        17.7910   15.2920   50.5810 C.3    39  LEU39       0.1596
     11  C         17.5190   16.5440   49.7520 C.2    39  LEU39       0.2287
     12  O         18.3950   17.3930   49.6400 O.2    39  LEU39      -0.2864
     13  CB        18.9370   15.6360   51.5150 C.3    39  LEU39       0.0297
     14  CG        19.2160   14.6450   52.5930 C.3    39  LEU39       0.0022
     15  CD1       20.6290   14.9170   53.0840 C.3    39  LEU39       0.0001
     16  CD2       18.1780   14.9500   53.6770 C.3    39  LEU39       0.0001
     17  N          7.6800    7.9180   52.4390 N.3   107  ARG107     -0.1245
     18  CA         8.6450    6.9100   52.0200 C.3   107  ARG107      0.1563
     19  C          8.3310    5.5310   52.6610 C.2   107  ARG107      0.2260
     20  O          8.9980    4.5500   52.3310 O.2   107  ARG107     -0.2867
     21  CB        10.0810    7.3740   52.3100 C.3   107  ARG107      0.0307
     22  CG        10.4550    8.5680   51.4520 C.3   107  ARG107      0.0489
     23  CD        11.7920    9.1250   51.8260 C.3   107  ARG107      0.2205
     24  NE        12.3080    9.9710   50.7340 N.pl3 107  ARG107     -0.0865
     25  CZ        13.4580   10.6420   50.8160 C.cat 107  ARG107      0.5346
     26  NH1       14.1650   10.5650   51.9300 N.pl3 107  ARG107      0.1354
     27  NH2       13.9040   11.3850   49.8060 N.pl3 107  ARG107      0.1354
     28  N         22.2840    5.8470   64.5620 N.3   170  SER170     -0.1202
     29  CA        21.2550    5.9880   63.5140 C.3   170  SER170      0.2020
     30  C         20.0870    5.0270   63.7380 C.2   170  SER170      0.2618
     31  O         18.9470    5.3520   63.4280 O.2   170  SER170     -0.2717
     32  CB        21.8790    5.8830   62.1130 C.3   170  SER170      0.2103
     33  OG        22.5450    4.6610   61.9720 O.3   170  SER170     -0.2182
     34  N         20.3680    3.8520   64.2950 N.am  171  GLN171     -0.1979
     35  CA        19.3350    2.9030   64.6650 C.3   171  GLN171      0.1601
     36  C         19.7020    2.3690   66.0440 C.2   171  GLN171      0.2287
     37  O         20.9090    2.3210   66.4010 O.2   171  GLN171     -0.2864
     38  CB        19.2550    1.7300   63.6840 C.3   171  GLN171      0.0394
     39  CG        18.7660    2.0910   62.2850 C.3   171  GLN171      0.0908
     40  CD        18.7490    0.8980   61.3100 C.2   171  GLN171      0.2608
     41  OE1       18.4570   -0.2320   61.6820 O.2   171  GLN171     -0.2717
     42  NE2       19.0420    1.1640   60.0640 N.am  171  GLN171     -0.0878
     43  N         22.4330   -1.8750   65.6130 N.3   174  ARG174     -0.1245
     44  CA        23.1240   -1.8780   64.3630 C.3   174  ARG174      0.1563
     45  C         24.4950   -2.4700   64.6440 C.2   174  ARG174      0.2260
     46  O         24.9520   -2.4330   65.7980 O.2   174  ARG174     -0.2867
     47  CB        23.2530   -0.4280   63.8480 C.3   174  ARG174      0.0307
     48  CG        22.5790   -0.2870   62.5090 C.3   174  ARG174      0.0489
     49  CD        22.8960    0.9860   61.7760 C.3   174  ARG174      0.2205
     50  NE        22.6450    0.7030   60.3860 N.pl3 174  ARG174     -0.0865
     51  CZ        22.7760    1.5730   59.4060 C.cat 174  ARG174      0.5346
     52  NH1       23.1140    2.8310   59.6600 N.pl3 174  ARG174      0.1354
     53  NH2       22.5110    1.1760   58.1810 N.pl3 174  ARG174      0.1354
     54  N         14.0280   -3.2860   63.6650 N.3   258  PRO258     -0.2116
     55  CA        14.4930   -2.1140   62.9520 C.3   258  PRO258      0.1372
     56  C         13.9570   -0.8770   63.7030 C.2   258  PRO258      0.2244
     57  O         12.7160   -0.6990   63.8280 O.2   258  PRO258     -0.2868
     58  CB        13.8330   -2.2750   61.5800 C.3   258  PRO258      0.0268
     59  CG        12.5110   -2.9230   61.8830 C.3   258  PRO258      0.0207
     60  CD        12.8690   -3.9100   62.9780 C.3   258  PRO258      0.0892
     61  N         14.6250    3.2270   64.0610 N.3   260  VAL260     -0.1245
     62  CA        15.2790    4.4460   63.5720 C.3   260  VAL260      0.1561
     63  C         15.4080    5.4230   64.7180 C.2   260  VAL260      0.2260
     64  O         14.4230    5.7220   65.3500 O.2   260  VAL260     -0.2867
     65  CB        14.4860    5.0720   62.4220 C.3   260  VAL260      0.0252
     66  CG1       14.9660    6.5070   62.1280 C.3   260  VAL260      0.0019
     67  CG2       14.6820    4.1950   61.1730 C.3   260  VAL260      0.0019
     68  N         17.5100    8.4850   64.6190 N.3   262  ASN262     -0.1225
     69  CA        18.1800    9.7480   64.2480 C.3   262  ASN262      0.1785
     70  C         17.3070   10.7740   63.5550 C.2   262  ASN262      0.2597
     71  O         17.8310   11.7810   63.0510 O.2   262  ASN262     -0.2718
     72  CB        19.4250    9.5000   63.3680 C.3   262  ASN262      0.1169
     73  CG        19.0960    8.8070   62.0530 C.2   262  ASN262      0.2627
     74  OD1       17.9330    8.4590   61.7500 O.2   262  ASN262     -0.2716
     75  ND2       20.1260    8.5630   61.2690 N.am  262  ASN262     -0.0877
     76  N         16.0040   10.5310   63.5120 N.am  263  MET263     -0.1979
     77  CA        15.1220   11.4940   62.8490 C.3   263  MET263      0.1605
     78  C         14.4320   12.4170   63.8260 C.2   263  MET263      0.2287
     79  O         14.5070   12.2060   65.0410 O.2   263  MET263     -0.2864
     80  CB        14.1370   10.8060   61.8830 C.3   263  MET263      0.0413
     81  CG        14.8490   10.0690   60.7520 C.3   263  MET263      0.0598
     82  SD        13.6540    9.2970   59.6510 S.3   263  MET263     -0.1393
     83  CE        13.2490   10.7070   58.5650 C.3   263  MET263      0.0692
     84  N         11.8610    5.2140   66.8410 N.3   277  PHE277     -0.1227
     85  CA        10.6740    4.4530   66.5290 C.3   277  PHE277      0.1736
     86  C         11.1010    3.1590   65.7950 C.2   277  PHE277      0.2596
     87  O         12.1130    3.1180   65.0870 O.2   277  PHE277     -0.2718
     88  CB         9.7010    5.2890   65.6790 C.3   277  PHE277      0.0547
     89  CG        10.3380    5.9020   64.4170 C.ar  277  PHE277     -0.0202
     90  CD1       10.3750    5.1890   63.2070 C.ar  277  PHE277     -0.0042
     91  CD2       10.8580    7.1910   64.4360 C.ar  277  PHE277     -0.0042
     92  CE1       10.9250    5.7530   62.0640 C.ar  277  PHE277     -0.0003
     93  CE2       11.4650    7.7430   63.2900 C.ar  277  PHE277     -0.0003
     94  CZ        11.4750    7.0230   62.1020 C.ar  277  PHE277     -0.0000
     95  N         10.2890    2.1470   65.9560 N.am  278  SER278     -0.1938
     96  CA        10.5790    0.8090   65.4830 C.3   278  SER278      0.2055
     97  C          9.3090    0.1740   64.9470 C.2   278  SER278      0.2644
     98  O          8.1890    0.5020   65.3840 O.2   278  SER278     -0.2714
     99  CB        11.2340   -0.0510   66.5910 C.3   278  SER278      0.2130
    100  OG        10.3410   -0.2800   67.7030 O.3   278  SER278     -0.2179
    101  N          9.5000   -0.7140   63.9670 N.am  279  GLY279     -0.1939
    102  CA         8.4440   -1.5630   63.4530 C.3   279  GLY279      0.2014
    103  C          8.9680   -3.0040   63.3690 C.2   279  GLY279      0.2639
    104  O          9.5050   -3.5390   64.3480 O.2   279  GLY279     -0.2714
    105  N          8.7700   -3.6270   62.2100 N.am  280  TRP280     -0.1959
    106  CA         9.3690   -4.9120   61.8610 C.3   280  TRP280      0.1771
    107  C          9.8550   -4.8570   60.4130 C.2   280  TRP280      0.2620
    108  O          9.4810   -3.9660   59.6490 O.2   280  TRP280     -0.2715
    109  CB         8.4180   -6.0790   62.0490 C.3   280  TRP280      0.0590
    110  CG         7.0910   -5.9440   61.3430 C.ar  280  TRP280      0.0006
    111  CD1        6.7850   -6.1590   59.9870 C.ar  280  TRP280      0.0946
    112  CD2        5.8440   -5.5360   61.9520 C.ar  280  TRP280      0.0152
    113  NE1        5.4410   -5.9300   59.7460 N.ar  280  TRP280     -0.2442
    114  CE2        4.8280   -5.5450   60.8920 C.ar  280  TRP280      0.0810
    115  CE3        5.4700   -5.1710   63.2420 C.ar  280  TRP280      0.0012
    116  CZ2        3.4950   -5.2180   61.1520 C.ar  280  TRP280      0.0191
    117  CZ3        4.1390   -4.8220   63.4770 C.ar  280  TRP280      0.0001
    118  CH2        3.1730   -4.8870   62.4560 C.ar  280  TRP280      0.0015
    119  N         10.7300   -5.7790   60.0360 N.am  281  TYR281     -0.1960
    120  CA        11.3830   -5.6870   58.7280 C.3   281  TYR281      0.1771
    121  C         10.5240   -6.1840   57.5960 C.2   281  TYR281      0.2619
    122  O          9.7580   -7.1410   57.7690 O.2   281  TYR281     -0.2715
    123  CB        12.6310   -6.5320   58.7190 C.3   281  TYR281      0.0574
    124  CG        13.8690   -5.8030   59.1550 C.ar  281  TYR281     -0.0198
    125  CD1       14.4020   -4.7790   58.3560 C.ar  281  TYR281     -0.0009
    126  CD2       14.4970   -6.1050   60.3540 C.ar  281  TYR281     -0.0009
    127  CE1       15.5600   -4.1210   58.7110 C.ar  281  TYR281      0.0417
    128  CE2       15.6450   -5.4400   60.7340 C.ar  281  TYR281      0.0417
    129  CZ        16.1780   -4.4600   59.8990 C.ar  281  TYR281      0.1957
    130  OH        17.3300   -3.8070   60.2050 O.3   281  TYR281     -0.2866
    131  N         10.6890   -5.5470   56.4310 N.am  282  MET282     -0.1977
    132  CA        10.3690   -6.1710   55.1250 C.3   282  MET282      0.1605
    133  C         11.6460   -6.8660   54.7140 C.2   282  MET282      0.2287
    134  O         12.7630   -6.2970   54.8760 O.2   282  MET282     -0.2864
    135  CB         9.9880   -5.1110   54.0840 C.3   282  MET282      0.0413
    136  CG         9.5360   -5.6550   52.6880 C.3   282  MET282      0.0598
    137  SD         8.7030   -4.3920   51.6920 S.3   282  MET282     -0.1393
    138  CE        10.1240   -3.3930   51.1870 C.3   282  MET282      0.0692
    139  N         14.8340   -5.2930   52.9340 N.3   285  GLU285     -0.1245
    140  CA        15.7390   -4.3780   53.6350 C.3   285  GLU285      0.1567
    141  C         17.0490   -5.0580   54.0390 C.2   285  GLU285      0.2260
    142  O         18.1220   -4.4810   53.8590 O.2   285  GLU285     -0.2867
    143  CB        15.0670   -3.7610   54.8650 C.3   285  GLU285      0.0388
    144  CG        13.7880   -3.0020   54.5310 C.3   285  GLU285      0.1160
    145  CD        13.1130   -2.4910   55.8050 C.2   285  GLU285      0.3649
    146  OE1       13.6090   -1.4420   56.3210 O.co2 285  GLU285     -0.2457
    147  OE2       12.0920   -3.0930   56.2610 O.co2 285  GLU285     -0.2457
    148  N         10.9470    5.3900   46.8040 N.3   371  TRP371     -0.1241
    149  CA        11.1670    4.6140   48.0230 C.3   371  TRP371      0.1605
    150  C         10.2270    3.4370   48.2330 C.2   371  TRP371      0.2264
    151  O         10.6580    2.4210   48.7810 O.2   371  TRP371     -0.2867
    152  CB        11.1470    5.5510   49.2630 C.3   371  TRP371      0.0550
    153  CG        12.4480    6.3530   49.4250 C.ar  371  TRP371      0.0003
    154  CD1       13.0170    7.2820   48.5300 C.ar  371  TRP371      0.0946
    155  CD2       13.4060    6.2490   50.5220 C.ar  371  TRP371      0.0152
    156  NE1       14.2280    7.7380   49.0090 N.ar  371  TRP371     -0.2442
    157  CE2       14.4980    7.1800   50.2080 C.ar  371  TRP371      0.0810
    158  CE3       13.4420    5.5440   51.7290 C.ar  371  TRP371      0.0012
    159  CZ2       15.5700    7.3540   51.0690 C.ar  371  TRP371      0.0191
    160  CZ3       14.5370    5.7430   52.6060 C.ar  371  TRP371      0.0001
    161  CH2       15.5720    6.6090   52.2670 C.ar  371  TRP371      0.0015
    162  N         14.6150   14.4330   58.3510 N.3   399  TYR399     -0.1241
    163  CA        16.0330   14.1560   58.4620 C.3   399  TYR399      0.1605
    164  C         16.6320   15.2380   59.3650 C.2   399  TYR399      0.2264
    165  O         16.1340   16.3670   59.4250 O.2   399  TYR399     -0.2867
    166  CB        16.6920   14.0810   57.0510 C.3   399  TYR399      0.0534
    167  CG        18.2200   13.9990   57.0930 C.ar  399  TYR399     -0.0201
    168  CD1       18.8640   12.7810   57.3440 C.ar  399  TYR399     -0.0009
    169  CD2       19.0350   15.1460   56.9060 C.ar  399  TYR399     -0.0009
    170  CE1       20.2680   12.6840   57.4170 C.ar  399  TYR399      0.0417
    171  CE2       20.4450   15.0520   56.9540 C.ar  399  TYR399      0.0417
    172  CZ        21.0440   13.8240   57.2240 C.ar  399  TYR399      0.1957
    173  OH        22.4270   13.6980   57.2890 O.3   399  TYR399     -0.2866
@<TRIPOS>BOND
     1   148   149    1
     2     1     2    1
     3   149   150    1
     4   149   152    1
     5   150   151    2
     6   154   156   ar
     7   154   153   ar
     8     2     5    1
     9     2     3    1
    10   156   157   ar
    11   152   153    1
    12     5     6    1
    13   153   155   ar
    14     8     7    1
    15    12    11    2
    16    11    10    1
    17     9     3   am
    18     9    10    1
    19    27    25    1
    20     3     4    2
    21   157   155   ar
    22   157   159   ar
    23   155   158   ar
    24    10    13    1
    25    24    25    2
    26    24    23    1
    27     6     7    1
    28    25    26    1
    29   159   161   ar
    30   138   137    1
    31    22    23    1
    32    22    21    1
    33    13    14    1
    34   137   136    1
    35   158   160   ar
    36    18    21    1
    37    18    17    1
    38    18    19    1
    39   161   160   ar
    40    20    19    2
    41    14    15    1
    42    14    16    1
    43   136   135    1
    44   139   140    1
    45   140   141    1
    46   140   143    1
    47   142   141    2
    48   135   132    1
    49   144   143    1
    50   144   145    1
    51   133   134    2
    52   133   132    1
    53   132   131    1
    54   145   147   ar
    55   145   146   ar
    56   131   121   am
    57   169   171   ar
    58   169   167   ar
    59   171   172   ar
    60   166   167    1
    61   166   163    1
    62   167   168   ar
    63   172   173    1
    64   172   170   ar
    65   168   170   ar
    66   121   122    2
    67   121   120    1
    68    53    51    1
    69   162   163    1
    70   125   127   ar
    71   125   124   ar
    72   163   164    1
    73    83    82    1
    74   127   129   ar
    75   123   120    1
    76   123   124    1
    77   120   119    1
    78   124   126   ar
    79   164   165    2
    80    51    52    1
    81    51    50    2
    82   108   107    2
    83    82    81    1
    84   113   111   ar
    85   113   114   ar
    86   129   130    1
    87   129   128   ar
    88   111   110   ar
    89   119   107   am
    90    42    40   am
    91   126   128   ar
    92    50    49    1
    93   107   106    1
    94    81    80    1
    95   114   116   ar
    96   114   112   ar
    97   116   118   ar
    98    67    65    1
    99    75    73   am
   100    40    41    2
   101    40    39    1
   102   110   112   ar
   103   110   109    1
   104    58    59    1
   105    58    55    1
   106    74    73    2
   107    49    48    1
   108   106   109    1
   109   106   105    1
   110    80    77    1
   111    59    60    1
   112   112   115   ar
   113    33    32    1
   114    73    72    1
   115    92    94   ar
   116    92    90   ar
   117    94    93   ar
   118    32    29    1
   119    66    65    1
   120   105   103   am
   121    39    38    1
   122    65    62    1
   123   118   117   ar
   124    48    47    1
   125    77    76    1
   126    77    78    1
   127    55    54    1
   128    55    56    1
   129    60    54    1
   130    71    70    2
   131    90    89   ar
   132   115   117   ar
   133    93    91   ar
   134    72    69    1
   135   103   102    1
   136   103   104    2
   137    31    30    2
   138   102   101    1
   139    76    70   am
   140    29    30    1
   141    29    28    1
   142    70    69    1
   143    62    61    1
   144    62    63    1
   145    38    35    1
   146    56    57    2
   147    30    34   am
   148    78    79    2
   149    47    44    1
   150   101    97   am
   151    69    68    1
   152    34    35    1
   153    44    45    1
   154    44    43    1
   155    89    91   ar
   156    89    88    1
   157    45    46    2
   158    35    36    1
   159    63    64    2
   160    97    98    2
   161    97    96    1
   162    87    86    2
   163    96    95    1
   164    96    99    1
   165    88    85    1
   166    86    95   am
   167    86    85    1
   168    36    37    2
   169    85    84    1
   170    99   100    1
