@<TRIPOS>MOLECULE
tmp/4c3aB03.pdb
 156 154 0 0 0
SMALL
GASTEIGER

@<TRIPOS>ATOM
      1  N          6.0400   -1.9550   55.3180 N.3    38  VAL38      -0.1231
      2  CA         5.5200   -1.6240   56.6680 C.3    38  VAL38       0.1692
      3  C          6.1340   -2.4590   57.8240 C.2    38  VAL38       0.2591
      4  O          6.3680   -1.9440   58.9280 O.2    38  VAL38      -0.2718
      5  CB         3.9660   -1.7090   56.7270 C.3    38  VAL38       0.0266
      6  CG1        3.4670   -1.5690   58.1600 C.3    38  VAL38       0.0020
      7  CG2        3.3170   -0.6480   55.8340 C.3    38  VAL38       0.0020
      8  N          6.3850   -3.7400   57.5570 N.am   39  LEU39      -0.1980
      9  CA         6.8910   -4.6830   58.5620 C.3    39  LEU39       0.1596
     10  C          8.2920   -5.2270   58.2500 C.2    39  LEU39       0.2287
     11  O          8.6400   -5.3980   57.0770 O.2    39  LEU39      -0.2864
     12  CB         5.9240   -5.8530   58.7060 C.3    39  LEU39       0.0297
     13  CG         4.9020   -5.7760   59.8310 C.3    39  LEU39       0.0022
     14  CD1        3.5940   -6.4460   59.4190 C.3    39  LEU39       0.0001
     15  CD2        5.4880   -6.4110   61.0880 C.3    39  LEU39       0.0001
     16  N          7.7390    8.9150   63.1040 N.3   107  CYS107     -0.1235
     17  CA         6.9440    9.9350   63.8240 C.3   107  CYS107      0.1677
     18  C          7.2470   11.3740   63.3580 C.2   107  CYS107      0.2270
     19  O          8.3680   11.8710   63.5350 O.2   107  CYS107     -0.2867
     20  CB         7.1490    9.8250   65.3470 C.3   107  CYS107      0.0956
     21  SG         6.1400   11.0010   66.2820 S.3   107  CYS107     -0.0801
     22  N         -4.7370   -2.6910   69.9560 N.3   169  SER169     -0.1202
     23  CA        -3.6220   -2.0360   69.2950 C.3   169  SER169      0.2020
     24  C         -3.5680   -0.5950   69.7640 C.2   169  SER169      0.2618
     25  O         -2.5080    0.0040   69.7960 O.2   169  SER169     -0.2717
     26  CB        -3.7380   -2.1230   67.7740 C.3   169  SER169      0.2103
     27  OG        -4.9110   -1.4610   67.3620 O.3   169  SER169     -0.2182
     28  N         -4.7220   -0.0460   70.1530 N.am  170  GLN170     -0.1979
     29  CA        -4.7620    1.2960   70.7420 C.3   170  GLN170      0.1601
     30  C         -5.6680    1.2610   71.9450 C.2   170  GLN170      0.2287
     31  O         -6.5130    0.3520   72.0690 O.2   170  GLN170     -0.2864
     32  CB        -5.2890    2.3690   69.7650 C.3   170  GLN170      0.0394
     33  CG        -4.4080    2.6730   68.5560 C.3   170  GLN170      0.0908
     34  CD        -4.9440    3.8550   67.7260 C.2   170  GLN170      0.2608
     35  OE1       -5.5280    4.8080   68.2690 O.2   170  GLN170     -0.2717
     36  NE2       -4.7260    3.8080   66.4160 N.am  170  GLN170     -0.0878
     37  N         -4.9150    9.5530   70.5740 N.3   257  PRO257     -0.2116
     38  CA        -4.2790    8.4610   69.8830 C.3   257  PRO257      0.1372
     39  C         -3.2660    7.8220   70.8160 C.2   257  PRO257      0.2244
     40  O         -2.2010    8.4010   71.0500 O.2   257  PRO257     -0.2868
     41  CB        -3.5830    9.1410   68.6800 C.3   257  PRO257      0.0268
     42  CG        -3.3370   10.5380   69.1240 C.3   257  PRO257      0.0207
     43  CD        -4.2480   10.8410   70.2970 C.3   257  PRO257      0.0892
     44  N         -1.1560    4.3490   71.4130 N.3   259  VAL259     -0.1245
     45  CA        -0.6710    3.0560   70.8980 C.3   259  VAL259      0.1561
     46  C         -0.2900    2.1000   72.0350 C.2   259  VAL259      0.2260
     47  O          0.4800    2.4630   72.9160 O.2   259  VAL259     -0.2867
     48  CB         0.5420    3.2450   69.9310 C.3   259  VAL259      0.0252
     49  CG1        1.1190    1.9000   69.5030 C.3   259  VAL259      0.0019
     50  CG2        0.1010    4.0190   68.6890 C.3   259  VAL259      0.0019
     51  N          0.1930   -1.6350   71.6450 N.3   261  ASN261     -0.1225
     52  CA         0.7710   -2.9540   71.2890 C.3   261  ASN261      0.1785
     53  C          2.2320   -2.9750   70.8250 C.2   261  ASN261      0.2597
     54  O          2.7020   -4.0050   70.3150 O.2   261  ASN261     -0.2718
     55  CB        -0.1040   -3.7070   70.2470 C.3   261  ASN261      0.1169
     56  CG        -0.2020   -2.9810   68.9210 C.2   261  ASN261      0.2627
     57  OD1       -0.7940   -3.5020   67.9920 O.2   261  ASN261     -0.2716
     58  ND2        0.3590   -1.7870   68.8170 N.am  261  ASN261     -0.0877
     59  N          2.9380   -1.8550   70.9560 N.am  262  MET262     -0.1979
     60  CA         4.3750   -1.8350   70.5840 C.3   262  MET262      0.1605
     61  C          5.2720   -2.1140   71.7850 C.2   262  MET262      0.2287
     62  O          4.8770   -1.9110   72.9450 O.2   262  MET262     -0.2864
     63  CB         4.7590   -0.5000   69.9160 C.3   262  MET262      0.0413
     64  CG         4.0250   -0.2880   68.5930 C.3   262  MET262      0.0598
     65  SD         4.5650    1.1420   67.6580 S.3   262  MET262     -0.1393
     66  CE         6.2050    0.6180   67.1350 C.3   262  MET262      0.0692
     67  N          1.5530    4.4970   74.7900 N.3   276  PHE276     -0.1227
     68  CA         1.9760    5.8940   74.7120 C.3   276  PHE276      0.1736
     69  C          0.9910    6.6870   73.8640 C.2   276  PHE276      0.2596
     70  O          0.3270    6.1270   72.9970 O.2   276  PHE276     -0.2718
     71  CB         3.4050    6.0130   74.1590 C.3   276  PHE276      0.0547
     72  CG         3.6020    5.3310   72.8200 C.ar  276  PHE276     -0.0202
     73  CD1        3.2450    5.9740   71.6300 C.ar  276  PHE276     -0.0042
     74  CD2        4.1500    4.0580   72.7470 C.ar  276  PHE276     -0.0042
     75  CE1        3.4380    5.3600   70.3990 C.ar  276  PHE276     -0.0003
     76  CE2        4.3390    3.4220   71.5160 C.ar  276  PHE276     -0.0003
     77  CZ         3.9960    4.0830   70.3420 C.ar  276  PHE276     -0.0000
     78  N          0.8840    7.9830   74.1440 N.am  277  SER277     -0.1938
     79  CA        -0.0670    8.8300   73.4540 C.3   277  SER277      0.2055
     80  C          0.4370   10.2530   73.2770 C.2   277  SER277      0.2644
     81  O          1.2190   10.7580   74.0900 O.2   277  SER277     -0.2714
     82  CB        -1.4080    8.8450   74.1920 C.3   277  SER277      0.2130
     83  OG        -1.2630    9.3180   75.5410 O.3   277  SER277     -0.2179
     84  N         -0.0450   10.8940   72.2090 N.am  278  GLY278     -0.1939
     85  CA         0.1920   12.3000   71.9580 C.3   278  GLY278      0.2014
     86  C         -1.1440   12.8850   71.5820 C.2   278  GLY278      0.2639
     87  O         -2.1200   12.7150   72.3160 O.2   278  GLY278     -0.2714
     88  N         -1.1790   13.5940   70.4540 N.am  279  TRP279     -0.1959
     89  CA        -2.4300   14.1110   69.9190 C.3   279  TRP279      0.1771
     90  C         -2.4060   13.8610   68.3860 C.2   279  TRP279      0.2620
     91  O         -1.3640   13.5520   67.8160 O.2   279  TRP279     -0.2715
     92  CB        -2.6680   15.5860   70.3080 C.3   279  TRP279      0.0590
     93  CG        -1.5300   16.4900   69.8960 C.ar  279  TRP279      0.0006
     94  CD1       -1.2430   16.9140   68.6230 C.ar  279  TRP279      0.0946
     95  CD2       -0.5040   17.0360   70.7410 C.ar  279  TRP279      0.0152
     96  NE1       -0.1120   17.6920   68.6320 N.ar  279  TRP279     -0.2442
     97  CE2        0.3600   17.7880   69.9150 C.ar  279  TRP279      0.0810
     98  CE3       -0.2360   16.9730   72.1210 C.ar  279  TRP279      0.0012
     99  CZ2        1.4710   18.5010   70.4290 C.ar  279  TRP279      0.0191
    100  CZ3        0.8630   17.6900   72.6360 C.ar  279  TRP279      0.0001
    101  CH2        1.6990   18.4230   71.7960 C.ar  279  TRP279      0.0015
    102  N         -3.5580   13.9470   67.7430 N.am  280  TYR280     -0.1960
    103  CA        -3.6720   13.5160   66.3620 C.3   280  TYR280      0.1771
    104  C         -3.1930   14.5840   65.4200 C.2   280  TYR280      0.2619
    105  O         -3.3090   15.7710   65.7060 O.2   280  TYR280     -0.2715
    106  CB        -5.1130   13.2280   66.0100 C.3   280  TYR280      0.0574
    107  CG        -5.5450   11.7820   66.1150 C.ar  280  TYR280     -0.0198
    108  CD1       -5.0410   10.8270   65.2530 C.ar  280  TYR280     -0.0009
    109  CD2       -6.4970   11.3840   67.0560 C.ar  280  TYR280     -0.0009
    110  CE1       -5.4350    9.5030   65.3330 C.ar  280  TYR280      0.0417
    111  CE2       -6.8960   10.0510   67.1450 C.ar  280  TYR280      0.0417
    112  CZ        -6.3810    9.1190   66.2640 C.ar  280  TYR280      0.1957
    113  OH        -6.7810    7.7810   66.3110 O.3   280  TYR280     -0.2866
    114  N         -2.6670   14.1410   64.2850 N.am  281  MET281     -0.1977
    115  CA        -2.5350   15.0090   63.1430 C.3   281  MET281      0.1605
    116  C         -3.7980   14.7900   62.3040 C.2   281  MET281      0.2287
    117  O         -4.2210   13.6650   62.0920 O.2   281  MET281     -0.2864
    118  CB        -1.2530   14.7070   62.3460 C.3   281  MET281      0.0413
    119  CG        -1.1770   15.5260   61.0430 C.3   281  MET281      0.0598
    120  SD         0.4900   15.4500   60.3350 S.3   281  MET281     -0.1393
    121  CE         0.4160   13.8700   59.4840 C.3   281  MET281      0.0692
    122  N         -4.7060   11.8080   59.8230 N.3   284  GLU284     -0.1245
    123  CA        -4.7970   10.3990   60.2700 C.3   284  GLU284      0.1567
    124  C         -6.2640   10.0250   60.3580 C.2   284  GLU284      0.2260
    125  O         -6.6590    8.9030   60.0090 O.2   284  GLU284     -0.2867
    126  CB        -4.1560   10.2370   61.6660 C.3   284  GLU284      0.0388
    127  CG        -2.6750   10.6050   61.7180 C.3   284  GLU284      0.1160
    128  CD        -2.1420   10.4980   63.1400 C.2   284  GLU284      0.3649
    129  OE1       -1.9620    9.3400   63.6180 O.co2 284  GLU284     -0.2457
    130  OE2       -1.9670   11.5680   63.7870 O.co2 284  GLU284     -0.2457
    131  N          6.4420    7.5600   55.5160 N.3   369  TRP369     -0.1241
    132  CA         5.5890    7.8420   56.7030 C.3   369  TRP369      0.1605
    133  C          5.5010    9.3020   57.1200 C.2   369  TRP369      0.2264
    134  O          4.4580    9.7290   57.6210 O.2   369  TRP369     -0.2867
    135  CB         5.9420    6.9790   57.9290 C.3   369  TRP369      0.0550
    136  CG         5.4430    5.5810   57.8110 C.ar  369  TRP369      0.0003
    137  CD1        5.7590    4.7030   56.8460 C.ar  369  TRP369      0.0946
    138  CD2        4.5390    4.9060   58.6890 C.ar  369  TRP369      0.0152
    139  NE1        5.1050    3.5200   57.0390 N.ar  369  TRP369     -0.2442
    140  CE2        4.3530    3.6040   58.1720 C.ar  369  TRP369      0.0810
    141  CE3        3.8770    5.2690   59.8620 C.ar  369  TRP369      0.0012
    142  CZ2        3.5340    2.6390   58.7890 C.ar  369  TRP369      0.0191
    143  CZ3        3.0320    4.3000   60.4900 C.ar  369  TRP369      0.0001
    144  CH2        2.8880    3.0060   59.9510 C.ar  369  TRP369      0.0015
    145  N          7.6680   -3.1210   66.6730 N.3   397  TYR397     -0.1241
    146  CA         6.5840   -4.0760   66.5350 C.3   397  TYR397      0.1605
    147  C          6.9290   -5.3530   67.2690 C.2   397  TYR397      0.2264
    148  O          8.1000   -5.6820   67.4140 O.2   397  TYR397     -0.2867
    149  CB         6.3270   -4.3820   65.0590 C.3   397  TYR397      0.0534
    150  CG         5.9950   -3.1460   64.2330 C.ar  397  TYR397     -0.0201
    151  CD1        4.9290   -2.2950   64.5890 C.ar  397  TYR397     -0.0009
    152  CD2        6.7370   -2.8250   63.0890 C.ar  397  TYR397     -0.0009
    153  CE1        4.6110   -1.1760   63.8260 C.ar  397  TYR397      0.0417
    154  CE2        6.4320   -1.7040   62.3230 C.ar  397  TYR397      0.0417
    155  CZ         5.3670   -0.8840   62.6950 C.ar  397  TYR397      0.1957
    156  OH         5.0680    0.2300   61.9390 O.3   397  TYR397     -0.2866
@<TRIPOS>BOND
     1     1     2    1
     2   131   132    1
     3     7     5    1
     4     2     5    1
     5     2     3    1
     6   132   133    1
     7   132   135    1
     8     5     6    1
     9   137   139   ar
    10   137   136   ar
    11   139   140   ar
    12    11    10    2
    13   133   134    2
    14     8     3   am
    15     8     9    1
    16   136   135    1
    17   136   138   ar
    18     3     4    2
    19   140   138   ar
    20   140   142   ar
    21    10     9    1
    22     9    12    1
    23   138   141   ar
    24    12    13    1
    25   142   144   ar
    26    14    13    1
    27   121   120    1
    28   122   123    1
    29    13    15    1
    30   141   143   ar
    31   144   143   ar
    32   125   124    2
    33   123   124    1
    34   123   126    1
    35   120   119    1
    36   119   118    1
    37   126   127    1
    38   127   128    1
    39   156   155    1
    40   117   116    2
    41   116   115    1
    42   154   155   ar
    43   154   152   ar
    44   118   115    1
    45   155   153   ar
    46   152   150   ar
    47    16    17    1
    48   128   129   ar
    49   128   130   ar
    50   115   114    1
    51    18    19    2
    52    18    17    1
    53    17    20    1
    54   153   151   ar
    55   150   151   ar
    56   150   149    1
    57   114   104   am
    58   149   146    1
    59   108   110   ar
    60   108   107   ar
    61   110   112   ar
    62    20    21    1
    63   104   105    2
    64   104   103    1
    65   106   107    1
    66   106   103    1
    67   107   109   ar
    68   112   113    1
    69   112   111   ar
    70   103   102    1
    71    36    34   am
    72   146   145    1
    73   146   147    1
    74   109   111   ar
    75    66    65    1
    76   147   148    2
    77    27    26    1
    78    65    64    1
    79    34    35    2
    80    34    33    1
    81   102    90   am
    82    26    23    1
    83    91    90    2
    84    57    56    2
    85    90    89    1
    86    33    32    1
    87    64    63    1
    88    94    96   ar
    89    94    93   ar
    90    96    97   ar
    91    41    42    1
    92    41    38    1
    93    50    48    1
    94    58    56   am
    95    56    55    1
    96    42    43    1
    97    23    24    1
    98    23    22    1
    99    49    48    1
   100    24    25    2
   101    24    28   am
   102    32    29    1
   103    38    37    1
   104    38    39    1
   105    93    92    1
   106    93    95   ar
   107    97    99   ar
   108    97    95   ar
   109    63    60    1
   110    89    92    1
   111    89    88    1
   112    48    45    1
   113    28    29    1
   114    55    52    1
   115    43    37    1
   116    54    53    2
   117    77    75   ar
   118    77    76   ar
   119    75    73   ar
   120    99   101   ar
   121    88    86   am
   122    60    59    1
   123    60    61    1
   124    95    98   ar
   125    29    30    1
   126    39    40    2
   127    53    59   am
   128    53    52    1
   129    45    44    1
   130    45    46    1
   131    52    51    1
   132    76    74   ar
   133    86    85    1
   134    86    87    2
   135    73    72   ar
   136    61    62    2
   137   101   100   ar
   138    30    31    2
   139    85    84    1
   140    46    47    2
   141    98   100   ar
   142    84    80   am
   143    74    72   ar
   144    72    71    1
   145    70    69    2
   146    80    79    1
   147    80    81    2
   148    79    78    1
   149    79    82    1
   150    69    78   am
   151    69    68    1
   152    71    68    1
   153    82    83    1
   154    68    67    1
