@<TRIPOS>MOLECULE
tmp/4c3fA00.pdb
 164 154 0 0 0
SMALL
GASTEIGER

@<TRIPOS>ATOM
      1  N         28.0120   14.8450   57.5170 N.3    14  LEU14      -0.1245
      2  CA        27.7150   15.3280   56.1790 C.3    14  LEU14       0.1561
      3  C         26.5790   16.3430   56.2210 C.2    14  LEU14       0.2260
      4  O         26.5780   17.3270   55.4490 O.2    14  LEU14      -0.2867
      5  CB        27.3690   14.1520   55.2430 C.3    14  LEU14       0.0270
      6  CG        28.4570   13.1110   55.0100 C.3    14  LEU14       0.0019
      7  CD1       27.9960   11.8650   54.2470 C.3    14  LEU14       0.0001
      8  CD2       29.6340   13.7750   54.3130 C.3    14  LEU14       0.0001
      9  N         23.2660   13.0060   58.8950 N.3    22  VAL22      -0.1245
     10  CA        23.8750   11.9890   58.0220 C.3    22  VAL22       0.1561
     11  C         25.4290   12.1520   58.1970 C.2    22  VAL22       0.2260
     12  O         25.9280   13.2930   58.2240 O.2    22  VAL22      -0.2867
     13  CB        23.5340   12.1840   56.5270 C.3    22  VAL22       0.0252
     14  CG1       24.3230   11.2300   55.6800 C.3    22  VAL22       0.0019
     15  CG2       22.0290   11.9820   56.3300 C.3    22  VAL22       0.0019
     16  N         27.4990    5.7790   54.2490 N.3    34  ALA34      -0.1245
     17  CA        26.7930    6.9180   54.8320 C.3    34  ALA34       0.1562
     18  C         25.7490    6.3980   55.8300 C.2    34  ALA34       0.2260
     19  O         25.1130    5.3400   55.5970 O.2    34  ALA34      -0.2867
     20  CB        26.1330    7.8140   53.7690 C.3    34  ALA34       0.0290
     21  N         22.5560    7.4740   58.2340 N.3    36  LYS36      -0.1245
     22  CA        21.4720    8.3900   58.6030 C.3    36  LYS36       0.1561
     23  C         20.9820    8.0150   60.0190 C.2    36  LYS36       0.2260
     24  O         20.5770    6.8870   60.2490 O.2    36  LYS36      -0.2867
     25  CB        20.2880    8.3540   57.6060 C.3    36  LYS36       0.0271
     26  CG        19.2180    9.3950   57.8810 C.3    36  LYS36       0.0035
     27  CD        18.0310    9.2410   56.8990 C.3    36  LYS36       0.0206
     28  CE        18.3320    9.7850   55.5190 C.3    36  LYS36       0.1093
     29  NZ        17.1150    9.7320   54.6240 N.3    36  LYS36      -0.1314
     30  N         11.8580    3.5010   55.6270 N.3    51  GLU51      -0.1245
     31  CA        12.7580    3.7820   54.4960 C.3    51  GLU51       0.1567
     32  C         13.6580    2.5780   54.2490 C.2    51  GLU51       0.2260
     33  O         13.8040    2.1100   53.1090 O.2    51  GLU51      -0.2867
     34  CB        13.5730    5.0280   54.7640 C.3    51  GLU51       0.0388
     35  CG        14.7140    5.3590   53.7770 C.3    51  GLU51       0.1160
     36  CD        15.4450    6.6510   54.0930 C.2    51  GLU51       0.3649
     37  OE1       15.0830    7.3440   55.0730 O.co2  51  GLU51      -0.2457
     38  OE2       16.3980    7.0220   53.3650 O.co2  51  GLU51      -0.2457
     39  N         13.9300   -0.0900   50.8780 N.3    55  MET55      -0.1245
     40  CA        15.2040   -0.4250   50.2410 C.3    55  MET55       0.1570
     41  C         15.3480   -1.9570   50.0750 C.2    55  MET55       0.2261
     42  O         15.6890   -2.4380   48.9800 O.2    55  MET55      -0.2867
     43  CB        16.3640    0.2160   51.0360 C.3    55  MET55       0.0387
     44  CG        16.4290    1.7540   50.8590 C.3    55  MET55       0.0595
     45  SD        17.3220    2.8260   52.0290 S.3    55  MET55      -0.1393
     46  CE        19.0130    2.3840   51.7550 C.3    55  MET55       0.0692
     47  N         19.2560    3.4150   45.7070 N.3    64  VAL64      -0.1245
     48  CA        20.0900    3.3580   46.9020 C.3    64  VAL64       0.1561
     49  C         19.9190    2.0110   47.6390 C.2    64  VAL64       0.2260
     50  O         18.7700    1.5720   47.8620 O.2    64  VAL64      -0.2867
     51  CB        19.7910    4.5360   47.8070 C.3    64  VAL64       0.0252
     52  CG1       20.2590    4.2510   49.2140 C.3    64  VAL64       0.0019
     53  CG2       20.5140    5.7740   47.2570 C.3    64  VAL64       0.0019
     54  N         20.2780    4.0930   59.7780 N.3    77  ILE77      -0.1245
     55  CA        20.1930    3.4540   58.5050 C.3    77  ILE77       0.1561
     56  C         21.5130    3.6960   57.7320 C.2    77  ILE77       0.2260
     57  O         21.9910    4.8220   57.6070 O.2    77  ILE77      -0.2867
     58  CB        19.0210    4.0290   57.6370 C.3    77  ILE77       0.0252
     59  CG1       17.6580    3.7800   58.2870 C.3    77  ILE77       0.0019
     60  CG2       18.9990    3.4270   56.2480 C.3    77  ILE77       0.0019
     61  CD1       16.5240    4.5740   57.6250 C.3    77  ILE77       0.0001
     62  N         23.9700    3.0440   54.2290 N.3    79  THR79      -0.1203
     63  CA        24.0850    2.7820   52.8040 C.3    79  THR79       0.1994
     64  C         25.4930    3.0840   52.2730 C.2    79  THR79       0.2618
     65  O         26.3280    3.6180   53.0140 O.2    79  THR79      -0.2717
     66  CB        23.0350    3.6260   52.0280 C.3    79  THR79       0.1784
     67  OG1       22.9250    3.1200   50.6910 O.3    79  THR79      -0.2211
     68  CG2       23.4000    5.1250   52.0450 C.3    79  THR79       0.0376
     69  N         25.7350    2.7370   51.0000 N.am   80  GLU80      -0.1965
     70  CA        26.9780    3.0810   50.2680 C.3    80  GLU80       0.1733
     71  C         27.2580    4.5830   50.3020 C.2    80  GLU80       0.2616
     72  O         26.3420    5.3940   50.1540 O.2    80  GLU80      -0.2715
     73  CB        26.8390    2.6300   48.7990 C.3    80  GLU80       0.0429
     74  CG        25.5450    3.1420   48.1740 C.3    80  GLU80       0.1163
     75  CD        25.1050    2.4340   46.9090 C.2    80  GLU80       0.3649
     76  OE1       25.9730    2.2760   46.0120 O.co2  80  GLU80      -0.2457
     77  OE2       23.8860    2.0690   46.8090 O.co2  80  GLU80      -0.2457
     78  N         28.5140    4.9660   50.5400 N.am   81  TYR81      -0.1960
     79  CA        28.8900    6.3350   50.4850 C.3    81  TYR81       0.1771
     80  C         28.9340    6.7430   48.9860 C.2    81  TYR81       0.2619
     81  O         29.4930    6.0040   48.1600 O.2    81  TYR81      -0.2715
     82  CB        30.2450    6.5610   51.1440 C.3    81  TYR81       0.0574
     83  CG        30.7050    8.0060   51.0540 C.ar   81  TYR81      -0.0198
     84  CD1       30.1580    8.9940   51.8570 C.ar   81  TYR81      -0.0009
     85  CD2       31.7390    8.3750   50.1830 C.ar   81  TYR81      -0.0009
     86  CE1       30.5950   10.3070   51.7680 C.ar   81  TYR81       0.0417
     87  CE2       32.1670    9.6890   50.0950 C.ar   81  TYR81       0.0417
     88  CZ        31.6100   10.6360   50.8750 C.ar   81  TYR81       0.1957
     89  OH        32.0160   11.9350   50.8050 O.3    81  TYR81      -0.2866
     90  N         28.2620    7.8450   48.6620 N.am   82  MET82      -0.1963
     91  CA        28.2280    8.4010   47.3030 C.3    82  MET82       0.1736
     92  C         29.0310    9.7020   47.3260 C.2    82  MET82       0.2616
     93  O         28.6730   10.6770   47.9890 O.2    82  MET82      -0.2715
     94  CB        26.7580    8.6430   46.9040 C.3    82  MET82       0.0427
     95  CG        25.9600    7.3620   46.7980 C.3    82  MET82       0.0599
     96  SD        26.4060    6.2770   45.4630 S.3    82  MET82      -0.1393
     97  CE        25.5010    7.0200   44.0760 C.3    82  MET82       0.0692
     98  N         30.1690    9.6740   46.6400 N.am   83  GLU83      -0.1963
     99  CA        31.1900   10.7460   46.7100 C.3    83  GLU83       0.1733
    100  C         30.7190   12.1640   46.4510 C.2    83  GLU83       0.2616
    101  O         31.1530   13.1330   47.1250 O.2    83  GLU83      -0.2715
    102  CB        32.3010   10.3890   45.7270 C.3    83  GLU83       0.0429
    103  CG        33.5550   11.2480   45.8340 C.3    83  GLU83       0.1163
    104  CD        34.4610   10.8130   46.9800 C.2    83  GLU83       0.3649
    105  OE1       34.4930    9.5890   47.2820 O.co2  83  GLU83      -0.2457
    106  OE2       35.1190   11.7010   47.5640 O.co2  83  GLU83      -0.2457
    107  N         29.7800   12.2910   45.5080 N.am   84  ASN84      -0.1958
    108  CA        29.2610   13.5600   45.1150 C.3    84  ASN84       0.1819
    109  C         27.9090   13.9650   45.7570 C.2    84  ASN84       0.2622
    110  O         27.3390   15.0140   45.4230 O.2    84  ASN84      -0.2715
    111  CB        29.2420   13.5610   43.5600 C.3    84  ASN84       0.1195
    112  CG        30.6290   13.7870   42.9720 C.2    84  ASN84       0.2630
    113  OD1       31.0710   13.1100   42.0550 O.2    84  ASN84      -0.2716
    114  ND2       31.3020   14.7130   43.5220 N.am   84  ASN84      -0.0877
    115  N         27.4120   13.1680   46.7250 N.am   85  GLY85      -0.1940
    116  CA        26.2460   13.6340   47.5310 C.3    85  GLY85       0.2014
    117  C         24.9850   13.7630   46.6640 C.2    85  GLY85       0.2639
    118  O         24.8080   12.9990   45.7280 O.2    85  GLY85      -0.2714
    119  N         24.1870   14.7660   46.9720 N.am   86  SER86      -0.1949
    120  CA        22.8920   15.0040   46.3480 C.3    86  SER86       0.1924
    121  C         23.1380   15.6870   45.0030 C.2    86  SER86       0.2314
    122  O         23.9030   16.7080   44.9060 O.2    86  SER86      -0.2863
    123  CB        22.1010   15.9710   47.2400 C.3    86  SER86       0.2116
    124  OG        20.8480   16.2630   46.6880 O.3    86  SER86      -0.2180
    125  N         21.2630   10.6540   44.4280 N.3   134  LEU134     -0.1245
    126  CA        22.6720   10.6680   44.9060 C.3   134  LEU134      0.1561
    127  C         23.6090   10.3420   43.7260 C.2   134  LEU134      0.2260
    128  O         23.2610    9.6140   42.7990 O.2   134  LEU134     -0.2867
    129  CB        22.8650    9.6930   46.0500 C.3   134  LEU134      0.0270
    130  CG        21.9900    9.9220   47.3060 C.3   134  LEU134      0.0019
    131  CD1       22.2100    8.8570   48.3450 C.3   134  LEU134      0.0001
    132  CD2       22.1980   11.2980   47.8910 C.3   134  LEU134      0.0001
    133  N         17.1260    7.8580   45.9460 N.3   144  ALA144     -0.1231
    134  CA        16.8960    7.7140   47.3710 C.3   144  ALA144      0.1694
    135  C         15.5000    8.0890   47.7990 C.2   144  ALA144      0.2592
    136  O         14.7390    8.7910   47.0690 O.2   144  ALA144     -0.2718
    137  CB        17.8890    8.5390   48.1420 C.3   144  ALA144      0.0304
    138  N         15.1390    7.6370   49.0040 N.am  145  ASP145     -0.1974
    139  CA        13.9100    8.1230   49.6480 C.3   145  ASP145      0.1709
    140  C         12.6460    7.8410   48.8480 C.2   145  ASP145      0.2293
    141  O         11.7580    8.6870   48.7920 O.2   145  ASP145     -0.2864
    142  CB        13.9750    9.6180   49.9610 C.3   145  ASP145      0.1436
    143  CG        15.0270    9.9750   50.9920 C.2   145  ASP145      0.3671
    144  OD1       14.7820    9.7800   52.1840 O.co2 145  ASP145     -0.2456
    145  OD2       16.0810   10.5070   50.6160 O.co2 145  ASP145     -0.2456
    146  N         17.5290   16.3920   57.1510 N.3   157  TYR157     -0.1227
    147  CA        18.8700   15.8350   57.4970 C.3   157  TYR157      0.1736
    148  C         20.0570   16.6590   56.9960 C.2   157  TYR157      0.2596
    149  O         21.2150   16.1990   57.1620 O.2   157  TYR157     -0.2718
    150  CB        18.9790   14.3570   57.0780 C.3   157  TYR157      0.0548
    151  CG        17.8620   13.4860   57.6380 C.ar  157  TYR157     -0.0200
    152  CD1       17.9810   12.8780   58.8850 C.ar  157  TYR157     -0.0009
    153  CD2       16.6750   13.2750   56.9290 C.ar  157  TYR157     -0.0009
    154  CE1       16.9730   12.1480   59.4290 C.ar  157  TYR157      0.0417
    155  CE2       15.6370   12.5000   57.4610 C.ar  157  TYR157      0.0417
    156  CZ        15.7730   11.9400   58.7200 C.ar  157  TYR157      0.1957
    157  OH        14.7690   11.1500   59.2600 O.3   157  TYR157     -0.2866
    158  N         19.8080   17.8750   56.4720 N.am  158  THR158     -0.1953
    159  CA        20.8080   18.9110   56.2070 C.3   158  THR158      0.1897
    160  C         20.2160   20.2870   56.3700 C.2   158  THR158      0.2313
    161  O         18.9970   20.4720   56.3120 O.2   158  THR158     -0.2863
    162  CB        21.3340   19.0240   54.7700 C.3   158  THR158      0.1794
    163  OG1       20.2650   18.8390   53.8090 O.3   158  THR158     -0.2208
    164  CG2       22.4670   18.1740   54.5550 C.3   158  THR158      0.0378
@<TRIPOS>BOND
     1   113   112    2
     2   128   127    2
     3   112   114   am
     4   112   111    1
     5   111   108    1
     6   127   126    1
     7    97    96    1
     8   125   126    1
     9   126   129    1
    10   122   121    2
    11   121   120    1
    12   108   107    1
    13   108   109    1
    14   110   109    2
    15    96    95    1
    16   107   100   am
    17    47    48    1
    18   102   103    1
    19   102    99    1
    20   118   117    2
    21   109   115   am
    22   103   104    1
    23   133   134    1
    24    76    75   ar
    25   129   130    1
    26   120   119    1
    27   120   123    1
    28   100    99    1
    29   100   101    2
    30    98    99    1
    31    98    92   am
    32   117   119   am
    33   117   116    1
    34   124   123    1
    35   115   116    1
    36    95    94    1
    37    77    75   ar
    38    48    49    1
    39    48    51    1
    40    94    91    1
    41    75    74    1
    42   104   105   ar
    43   104   106   ar
    44   136   135    2
    45    53    51    1
    46    91    92    1
    47    91    90    1
    48   130   132    1
    49   130   131    1
    50    92    93    2
    51   134   135    1
    52   134   137    1
    53    49    50    2
    54   135   138   am
    55    51    52    1
    56    81    80    2
    57    74    73    1
    58    90    80   am
    59   141   140    2
    60    73    70    1
    61   140   139    1
    62    42    41    2
    63    80    79    1
    64   138   139    1
    65   139   142    1
    66   142   143    1
    67    41    40    1
    68    87    85   ar
    69    87    88   ar
    70    72    71    2
    71    85    83   ar
    72    40    39    1
    73    40    43    1
    74    70    71    1
    75    70    69    1
    76    71    78   am
    77    79    78    1
    78    79    82    1
    79   145   143   ar
    80    67    66    1
    81    89    88    1
    82    44    43    1
    83    44    45    1
    84    88    86   ar
    85   143   144   ar
    86    69    64   am
    87    83    82    1
    88    83    84   ar
    89    46    45    1
    90    86    84   ar
    91    66    68    1
    92    66    63    1
    93    64    63    1
    94    64    65    2
    95    63    62    1
    96    33    32    2
    97    38    36   ar
    98    20    17    1
    99    35    36    1
   100    35    34    1
   101   163   162    1
   102    36    37   ar
   103     7     6    1
   104    32    31    1
   105    16    17    1
   106     8     6    1
   107    31    34    1
   108    31    30    1
   109   164   162    1
   110    29    28    1
   111   162   159    1
   112    17    18    1
   113     6     5    1
   114     5     2    1
   115     4     3    2
   116    28    27    1
   117    19    18    2
   118    14    13    1
   119     2     3    1
   120     2     1    1
   121   159   160    1
   122   159   158    1
   123    60    58    1
   124   161   160    2
   125    15    13    1
   126   158   148   am
   127    13    10    1
   128    27    26    1
   129   153   155   ar
   130   153   151   ar
   131   148   149    2
   132   148   147    1
   133   150   147    1
   134   150   151    1
   135   146   147    1
   136   155   156   ar
   137    25    26    1
   138    25    22    1
   139    57    56    2
   140    61    59    1
   141    58    59    1
   142    58    55    1
   143   151   152   ar
   144    56    55    1
   145    10    11    1
   146    10     9    1
   147    11    12    2
   148    21    22    1
   149    55    54    1
   150    22    23    1
   151   156   157    1
   152   156   154   ar
   153   152   154   ar
   154    23    24    2
