@<TRIPOS>MOLECULE
tmp/4c3kA00.pdb
 101 97 0 0 0
SMALL
GASTEIGER

@<TRIPOS>ATOM
      1  N        -12.6690   20.4760   -1.5510 N.3    25  ILE25      -0.1231
      2  CA       -13.6040   21.5410   -1.2260 C.3    25  ILE25       0.1692
      3  C        -13.2860   22.0170    0.1840 C.2    25  ILE25       0.2592
      4  O        -13.3500   21.2430    1.1390 O.2    25  ILE25      -0.2718
      5  CB       -15.0660   21.0710   -1.3250 C.3    25  ILE25       0.0266
      6  CG1      -15.3930   20.6550   -2.7600 C.3    25  ILE25       0.0019
      7  CG2      -16.0130   22.1640   -0.8520 C.3    25  ILE25       0.0020
      8  CD1      -14.9760   21.6720   -3.8000 C.3    25  ILE25       0.0001
      9  N        -12.9480   23.2950    0.3100 N.am   26  VAL26      -0.1966
     10  CA       -12.5050   23.8510    1.5830 C.3    26  VAL26       0.1727
     11  C        -13.6540   24.1240    2.5450 C.2    26  VAL26       0.2617
     12  O        -13.5590   23.8340    3.7390 O.2    26  VAL26      -0.2715
     13  CB       -11.6970   25.1520    1.3770 C.3    26  VAL26       0.0290
     14  CG1      -11.1970   25.6900    2.7120 C.3    26  VAL26       0.0023
     15  CG2      -10.5350   24.9100    0.4260 C.3    26  VAL26       0.0023
     16  N        -14.7490   24.6640    2.0220 N.am   27  GLY27      -0.1940
     17  CA       -15.8350   25.1000    2.8760 C.3    27  GLY27       0.2014
     18  C        -17.2390   24.9450    2.3310 C.2    27  GLY27       0.2639
     19  O        -17.4490   24.8150    1.1250 O.2    27  GLY27      -0.2714
     20  N        -18.2050   24.9670    3.2430 N.am   28  MET28      -0.1963
     21  CA       -19.6110   24.8450    2.8970 C.3    28  MET28       0.1736
     22  C        -20.4620   25.4440    4.0130 C.2    28  MET28       0.2617
     23  O        -19.9640   25.7010    5.1080 O.2    28  MET28      -0.2715
     24  CB       -19.9510   23.3700    2.7020 C.3    28  MET28       0.0427
     25  CG       -20.0310   22.5930    4.0020 C.3    28  MET28       0.0599
     26  SD       -20.2670   20.8280    3.7500 S.3    28  MET28      -0.1393
     27  CE       -18.5540   20.3050    3.6370 C.3    28  MET28       0.0692
     28  N        -21.7430   25.6690    3.7340 N.am   29  THR29      -0.1951
     29  CA       -22.6570   26.2230    4.7280 C.3    29  THR29       0.1897
     30  C        -23.8950   25.3430    4.8710 C.2    29  THR29       0.2313
     31  O        -24.5430   25.0040    3.8810 O.2    29  THR29      -0.2863
     32  CB       -23.0990   27.6520    4.3480 C.3    29  THR29       0.1794
     33  OG1      -22.0040   28.5590    4.5300 O.3    29  THR29      -0.2208
     34  CG2      -24.2710   28.1050    5.2070 C.3    29  THR29       0.0378
     35  N        -24.9690   24.1960    1.4270 N.3    45  GLU45      -0.1231
     36  CA       -24.7160   25.2660    0.4870 C.3    45  GLU45       0.1699
     37  C        -23.2360   25.3260    0.1950 C.2    45  GLU45       0.2592
     38  O        -22.4320   25.7040    1.0470 O.2    45  GLU45      -0.2718
     39  CB       -25.2110   26.5980    1.0530 C.3    45  GLU45       0.0402
     40  CG       -25.9340   27.4800    0.0540 C.3    45  GLU45       0.1161
     41  CD       -27.3290   26.9790   -0.2820 C.2    45  GLU45       0.3649
     42  OE1      -27.5040   25.7590   -0.4660 O.co2  45  GLU45      -0.2457
     43  OE2      -28.2590   27.8090   -0.3590 O.co2  45  GLU45      -0.2457
     44  N        -22.8830   24.9500   -1.0260 N.am   46  ILE46      -0.1966
     45  CA       -21.4890   24.9220   -1.4180 C.3    46  ILE46       0.1727
     46  C        -21.3210   25.7360   -2.6840 C.2    46  ILE46       0.2616
     47  O        -21.9740   25.4730   -3.6880 O.2    46  ILE46      -0.2715
     48  CB       -21.0250   23.4820   -1.6950 C.3    46  ILE46       0.0290
     49  CG1      -21.5630   22.5330   -0.6230 C.3    46  ILE46       0.0022
     50  CG2      -19.5090   23.4110   -1.7610 C.3    46  ILE46       0.0023
     51  CD1      -21.7010   21.1110   -1.0890 C.3    46  ILE46       0.0001
     52  N        -20.4610   26.7430   -2.6320 N.am   47  VAL47      -0.1977
     53  CA       -20.1780   27.5290   -3.8200 C.3    47  VAL47       0.1596
     54  C        -18.8690   27.0190   -4.3970 C.2    47  VAL47       0.2287
     55  O        -17.8320   27.0350   -3.7340 O.2    47  VAL47      -0.2864
     56  CB       -20.1280   29.0330   -3.5300 C.3    47  VAL47       0.0276
     57  CG1      -19.8140   29.8040   -4.8000 C.3    47  VAL47       0.0022
     58  CG2      -21.4550   29.4880   -2.9480 C.3    47  VAL47       0.0022
     59  N        -14.9060   37.1910   -0.5200 N.3    84  ARG84      -0.1231
     60  CA       -14.5220   36.8680    0.8420 C.3    84  ARG84       0.1694
     61  C        -14.4480   38.1780    1.6040 C.2    84  ARG84       0.2592
     62  O        -13.8730   39.1540    1.1230 O.2    84  ARG84      -0.2718
     63  CB       -13.1770   36.1500    0.8990 C.3    84  ARG84       0.0321
     64  CG       -12.8090   35.6940    2.3020 C.3    84  ARG84       0.0489
     65  CD       -11.4980   34.9420    2.3110 C.3    84  ARG84       0.2205
     66  NE       -11.6160   33.6520    1.6440 N.pl3  84  ARG84      -0.0865
     67  CZ       -10.6410   32.7530    1.5820 C.cat  84  ARG84       0.5346
     68  NH1       -9.4630   33.0110    2.1330 N.pl3  84  ARG84       0.1354
     69  NH2      -10.8370   31.6000    0.9570 N.pl3  84  ARG84       0.1354
     70  N        -15.0330   38.1980    2.7920 N.am   85  ILE85      -0.1966
     71  CA       -15.1530   39.4320    3.5510 C.3    85  ILE85       0.1727
     72  C        -13.8200   39.7930    4.1970 C.2    85  ILE85       0.2616
     73  O        -13.4290   40.9610    4.2370 O.2    85  ILE85      -0.2715
     74  CB       -16.2440   39.3240    4.6300 C.3    85  ILE85       0.0290
     75  CG1      -17.6010   39.0250    3.9890 C.3    85  ILE85       0.0022
     76  CG2      -16.2970   40.5950    5.4510 C.3    85  ILE85       0.0023
     77  CD1      -18.7050   38.7610    4.9890 C.3    85  ILE85       0.0001
     78  N        -13.1250   38.7720    4.6860 N.am   86  ARG86      -0.1977
     79  CA       -11.8760   38.9500    5.4180 C.3    86  ARG86       0.1597
     80  C        -10.7740   39.6540    4.6300 C.2    86  ARG86       0.2287
     81  O        -10.1620   40.6020    5.1220 O.2    86  ARG86      -0.2864
     82  CB       -11.3690   37.5890    5.9040 C.3    86  ARG86       0.0334
     83  CG       -10.0120   37.6310    6.5750 C.3    86  ARG86       0.0492
     84  CD        -9.6560   36.2820    7.1730 C.3    86  ARG86       0.2205
     85  NE        -9.5170   35.2190    6.1850 N.pl3  86  ARG86      -0.0865
     86  CZ        -8.4090   34.9900    5.4900 C.cat  86  ARG86       0.5346
     87  NH1       -7.3390   35.7480    5.6800 N.pl3  86  ARG86       0.1354
     88  NH2       -8.3660   33.9970    4.6140 N.pl3  86  ARG86       0.1354
     89  N        -11.6870   33.3050   -3.4410 N.3    94  ALA94      -0.1231
     90  CA       -12.4930   33.4660   -2.2330 C.3    94  ALA94       0.1694
     91  C        -12.8530   32.1510   -1.5410 C.2    94  ALA94       0.2591
     92  O        -13.2570   32.1520   -0.3790 O.2    94  ALA94      -0.2718
     93  CB       -13.7560   34.2620   -2.5450 C.3    94  ALA94       0.0304
     94  N        -12.7130   31.0360   -2.2500 N.am   95  ILE95      -0.1980
     95  CA       -13.0920   29.7370   -1.6980 C.3    95  ILE95       0.1595
     96  C        -11.9490   28.7250   -1.6550 C.2    95  ILE95       0.2287
     97  O        -12.1830   27.5270   -1.5030 O.2    95  ILE95      -0.2864
     98  CB       -14.2820   29.1160   -2.4570 C.3    95  ILE95       0.0276
     99  CG1      -14.0040   29.0970   -3.9610 C.3    95  ILE95       0.0022
    100  CG2      -15.5630   29.8760   -2.1530 C.3    95  ILE95       0.0022
    101  CD1      -15.0830   28.4120   -4.7730 C.3    95  ILE95       0.0001
@<TRIPOS>BOND
     1    57    56    1
     2   101    99    1
     3    54    53    1
     4    54    55    2
     5    99    98    1
     6    53    56    1
     7    53    52    1
     8     8     6    1
     9    47    46    2
    10    56    58    1
    11    89    90    1
    12     6     5    1
    13    46    52   am
    14    46    45    1
    15    93    90    1
    16    98   100    1
    17    98    95    1
    18    94    95    1
    19    94    91   am
    20    90    91    1
    21    50    48    1
    22    95    96    1
    23    48    45    1
    24    48    49    1
    25    96    97    2
    26     1     2    1
    27    91    92    2
    28    45    44    1
    29     5     2    1
    30     5     7    1
    31     2     3    1
    32    51    49    1
    33    44    37   am
    34    59    60    1
    35    42    41   ar
    36    43    41   ar
    37    41    40    1
    38    40    39    1
    39     3     9   am
    40     3     4    2
    41    37    36    1
    42    37    38    2
    43     9    10    1
    44    15    13    1
    45    36    39    1
    46    36    35    1
    47    60    63    1
    48    60    61    1
    49    63    64    1
    50    69    67    1
    51    62    61    2
    52    19    18    2
    53    13    10    1
    54    13    14    1
    55    67    66    2
    56    67    68    1
    57    10    11    1
    58    61    70   am
    59    66    65    1
    60    16    11   am
    61    16    17    1
    62    64    65    1
    63    18    17    1
    64    18    20   am
    65    11    12    2
    66    24    21    1
    67    24    25    1
    68    70    71    1
    69    21    20    1
    70    21    22    1
    71    71    72    1
    72    71    74    1
    73    27    26    1
    74    28    22   am
    75    28    29    1
    76    26    25    1
    77    31    30    2
    78    75    74    1
    79    75    77    1
    80    22    23    2
    81    72    73    2
    82    72    78   am
    83    32    33    1
    84    32    29    1
    85    32    34    1
    86    88    86    1
    87    80    81    2
    88    80    79    1
    89    74    76    1
    90    78    79    1
    91    29    30    1
    92    79    82    1
    93    86    87    1
    94    86    85    2
    95    82    83    1
    96    85    84    1
    97    83    84    1
