@<TRIPOS>MOLECULE
tmp/4c3kF01.pdb
 135 131 0 0 0
SMALL
GASTEIGER

@<TRIPOS>ATOM
      1  N        -39.0620   16.8230  -39.7530 N.3     7  ILE7       -0.1245
      2  CA       -38.1910   16.7650  -40.9130 C.3     7  ILE7        0.1561
      3  C        -38.6570   15.5940  -41.7660 C.2     7  ILE7        0.2260
      4  O        -38.6110   14.4460  -41.3290 O.2     7  ILE7       -0.2867
      5  CB       -36.7140   16.5970  -40.5130 C.3     7  ILE7        0.0252
      6  CG1      -36.2310   17.8320  -39.7500 C.3     7  ILE7        0.0019
      7  CG2      -35.8500   16.3420  -41.7410 C.3     7  ILE7        0.0019
      8  CD1      -34.8490   17.6850  -39.1640 C.3     7  ILE7        0.0001
      9  N        -33.8410   22.0390  -45.8840 N.3    33  VAL33      -0.1231
     10  CA       -32.6280   21.6170  -45.1950 C.3    33  VAL33       0.1692
     11  C        -31.9310   20.4800  -45.9280 C.2    33  VAL33       0.2592
     12  O        -32.4900   19.8750  -46.8420 O.2    33  VAL33      -0.2718
     13  CB       -32.9290   21.1430  -43.7570 C.3    33  VAL33       0.0266
     14  CG1      -33.5240   22.2720  -42.9260 C.3    33  VAL33       0.0020
     15  CG2      -33.8520   19.9330  -43.7800 C.3    33  VAL33       0.0020
     16  N        -30.7050   20.1950  -45.5080 N.am   34  ARG34      -0.1966
     17  CA       -29.9700   19.0380  -45.9930 C.3    34  ARG34       0.1729
     18  C        -29.7980   18.0980  -44.8140 C.2    34  ARG34       0.2617
     19  O        -29.5890   18.5420  -43.6870 O.2    34  ARG34      -0.2715
     20  CB       -28.6020   19.4510  -46.5400 C.3    34  ARG34       0.0348
     21  CG       -28.6350   20.1580  -47.8850 C.3    34  ARG34       0.0492
     22  CD       -28.7850   19.1720  -49.0330 C.3    34  ARG34       0.2205
     23  NE       -28.4650   19.7970  -50.3130 N.pl3  34  ARG34      -0.0865
     24  CZ       -29.3680   20.3000  -51.1480 C.cat  34  ARG34       0.5346
     25  NH1      -30.6580   20.2420  -50.8500 N.pl3  34  ARG34       0.1354
     26  NH2      -28.9790   20.8550  -52.2880 N.pl3  34  ARG34       0.1354
     27  N        -29.8880   16.7990  -45.0680 N.am   35  GLY35      -0.1940
     28  CA       -29.8780   15.8340  -43.9890 C.3    35  GLY35       0.2014
     29  C        -28.8430   14.7470  -44.1630 C.2    35  GLY35       0.2639
     30  O        -28.3400   14.5110  -45.2600 O.2    35  GLY35      -0.2714
     31  N        -28.5460   14.0710  -43.0610 N.am   36  PHE36      -0.1959
     32  CA       -27.5560   13.0090  -43.0320 C.3    36  PHE36       0.1771
     33  C        -28.0920   11.8980  -42.1470 C.2    36  PHE36       0.2620
     34  O        -28.5930   12.1560  -41.0550 O.2    36  PHE36      -0.2715
     35  CB       -26.2280   13.5420  -42.4870 C.3    36  PHE36       0.0574
     36  CG       -25.1260   12.5170  -42.4440 C.ar   36  PHE36      -0.0200
     37  CD1      -24.9990   11.6500  -41.3690 C.ar   36  PHE36      -0.0042
     38  CD2      -24.2070   12.4320  -43.4760 C.ar   36  PHE36      -0.0042
     39  CE1      -23.9830   10.7120  -41.3330 C.ar   36  PHE36      -0.0003
     40  CE2      -23.1890   11.4960  -43.4430 C.ar   36  PHE36      -0.0003
     41  CZ       -23.0770   10.6380  -42.3690 C.ar   36  PHE36      -0.0000
     42  N        -28.0210   10.6670  -42.6350 N.am   37  GLY37      -0.1940
     43  CA       -28.4890    9.5270  -41.8710 C.3    37  GLY37       0.2014
     44  C        -27.9700    8.2030  -42.3920 C.2    37  GLY37       0.2639
     45  O        -26.7650    7.9530  -42.3940 O.2    37  GLY37      -0.2714
     46  N        -28.8890    7.3500  -42.8300 N.am   38  ARG38      -0.1963
     47  CA       -28.5340    6.0610  -43.4050 C.3    38  ARG38       0.1729
     48  C        -28.6950    6.0950  -44.9190 C.2    38  ARG38       0.2616
     49  O        -27.8350    5.6160  -45.6600 O.2    38  ARG38      -0.2715
     50  CB       -29.3960    4.9580  -42.7920 C.3    38  ARG38       0.0348
     51  CG       -29.4630    5.0370  -41.2760 C.3    38  ARG38       0.0492
     52  CD       -29.3980    3.6670  -40.6330 C.3    38  ARG38       0.2205
     53  NE       -30.6700    2.9570  -40.7010 N.pl3  38  ARG38      -0.0865
     54  CZ       -30.7930    1.6830  -41.0580 C.cat  38  ARG38       0.5346
     55  NH1      -29.7180    0.9770  -41.3830 N.pl3  38  ARG38       0.1354
     56  NH2      -31.9900    1.1140  -41.0920 N.pl3  38  ARG38       0.1354
     57  N        -29.8190    6.6490  -45.3630 N.am   39  GLN39      -0.1977
     58  CA       -30.0790    6.8790  -46.7780 C.3    39  GLN39       0.1601
     59  C        -28.9900    7.7420  -47.4130 C.2    39  GLN39       0.2287
     60  O        -28.5440    8.7280  -46.8250 O.2    39  GLN39      -0.2864
     61  CB       -31.4410    7.5530  -46.9480 C.3    39  GLN39       0.0394
     62  CG       -31.8940    7.7250  -48.3860 C.3    39  GLN39       0.0908
     63  CD       -33.0700    8.6750  -48.5070 C.2    39  GLN39       0.2608
     64  OE1      -33.2620    9.5520  -47.6640 O.2    39  GLN39      -0.2717
     65  NE2      -33.8650    8.5030  -49.5550 N.am   39  GLN39      -0.0878
     66  N        -28.8350   14.9390  -48.0970 N.3    47  LEU47      -0.1245
     67  CA       -30.0000   14.8040  -48.9670 C.3    47  LEU47       0.1561
     68  C        -31.0170   15.9070  -48.7180 C.2    47  LEU47       0.2260
     69  O        -31.2100   16.3370  -47.5840 O.2    47  LEU47      -0.2867
     70  CB       -30.6730   13.4440  -48.7530 C.3    47  LEU47       0.0270
     71  CG       -30.1200   12.1370  -49.3320 C.3    47  LEU47       0.0019
     72  CD1      -28.6380   12.2100  -49.6630 C.3    47  LEU47       0.0001
     73  CD2      -30.3840   11.0100  -48.3470 C.3    47  LEU47       0.0001
     74  N        -34.1780   17.7270  -47.8190 N.3    49  LYS49      -0.1245
     75  CA       -35.2950   17.3900  -46.9480 C.3    49  LYS49       0.1561
     76  C        -36.0480   18.6490  -46.5460 C.2    49  LYS49       0.2260
     77  O        -35.5130   19.7580  -46.6260 O.2    49  LYS49      -0.2867
     78  CB       -34.7970   16.6730  -45.6890 C.3    49  LYS49       0.0271
     79  CG       -34.1010   15.3470  -45.9490 C.3    49  LYS49       0.0035
     80  CD       -35.0890   14.2610  -46.3310 C.3    49  LYS49       0.0206
     81  CE       -34.3860   12.9320  -46.5450 C.3    49  LYS49       0.1093
     82  NZ       -35.3170   11.8940  -47.0610 N.3    49  LYS49      -0.1314
     83  N        -39.7730    3.0580  -46.1070 N.3    76  GLU76      -0.1231
     84  CA       -38.3970    2.9250  -46.5740 C.3    76  GLU76       0.1699
     85  C        -37.5040    3.9620  -45.9030 C.2    76  GLU76       0.2592
     86  O        -37.9880    4.9680  -45.3850 O.2    76  GLU76      -0.2718
     87  CB       -38.3270    3.0710  -48.0960 C.3    76  GLU76       0.0402
     88  CG       -39.3060    2.1110  -48.7610 C.3    76  GLU76       0.1161
     89  CD       -38.8560    0.6760  -48.7990 C.2    76  GLU76       0.3649
     90  OE1      -37.7540    0.4080  -48.3140 O.co2  76  GLU76      -0.2457
     91  OE2      -39.6130   -0.1980  -49.3220 O.co2  76  GLU76      -0.2457
     92  N        -36.1990    3.7110  -45.9160 N.am   77  ILE77      -0.1966
     93  CA       -35.2360    4.5770  -45.2420 C.3    77  ILE77       0.1727
     94  C        -35.1970    5.9870  -45.8310 C.2    77  ILE77       0.2617
     95  O        -35.0960    6.1620  -47.0450 O.2    77  ILE77      -0.2715
     96  CB       -33.8220    3.9580  -45.2740 C.3    77  ILE77       0.0290
     97  CG1      -33.7900    2.6630  -44.4590 C.3    77  ILE77       0.0022
     98  CG2      -32.7860    4.9490  -44.7640 C.3    77  ILE77       0.0023
     99  CD1      -32.4010    2.1010  -44.2600 C.3    77  ILE77       0.0001
    100  N        -35.2830    6.9870  -44.9590 N.am   78  GLY78      -0.1940
    101  CA       -35.2540    8.3800  -45.3660 C.3    78  GLY78       0.2014
    102  C        -36.5560    9.1230  -45.1330 C.2    78  GLY78       0.2639
    103  O        -36.7420   10.2230  -45.6470 O.2    78  GLY78      -0.2714
    104  N        -37.4570    8.5320  -44.3550 N.am   79  ASP79      -0.1957
    105  CA       -38.7750    9.1270  -44.1510 C.3    79  ASP79       0.1840
    106  C        -38.6950   10.3850  -43.2940 C.2    79  ASP79       0.2623
    107  O        -39.4770   11.3190  -43.4780 O.2    79  ASP79      -0.2715
    108  CB       -39.7400    8.1210  -43.5220 C.3    79  ASP79       0.1450
    109  CG       -40.3020    7.1450  -44.5340 C.2    79  ASP79       0.3671
    110  OD1      -39.8630    7.1820  -45.7030 O.co2  79  ASP79      -0.2456
    111  OD2      -41.1840    6.3420  -44.1620 O.co2  79  ASP79      -0.2456
    112  N        -37.7480   10.4120  -42.3620 N.am   80  GLY80      -0.1940
    113  CA       -37.5120   11.6090  -41.5790 C.3    80  GLY80       0.2014
    114  C        -37.6810   11.4150  -40.0860 C.2    80  GLY80       0.2638
    115  O        -37.8080   10.2870  -39.6090 O.2    80  GLY80      -0.2714
    116  N        -37.6830   12.5200  -39.3460 N.am   81  LYS81      -0.1977
    117  CA       -37.8150   12.4640  -37.8940 C.3    81  LYS81       0.1596
    118  C        -38.7870   13.5210  -37.3870 C.2    81  LYS81       0.2287
    119  O        -39.1490   14.4460  -38.1130 O.2    81  LYS81      -0.2864
    120  CB       -36.4590   12.6800  -37.2160 C.3    81  LYS81       0.0298
    121  CG       -35.3190   11.8450  -37.7640 C.3    81  LYS81       0.0038
    122  CD       -35.2040   10.5170  -37.0480 C.3    81  LYS81       0.0206
    123  CE       -34.1330    9.6560  -37.6870 C.3    81  LYS81       0.1093
    124  NZ       -34.4820    9.3190  -39.0910 N.3    81  LYS81      -0.1314
    125  N        -39.3210   15.8790  -33.7760 N.3    83  PHE83      -0.1241
    126  CA       -38.8930   16.2650  -32.4370 C.3    83  PHE83       0.1605
    127  C        -39.8590   17.2850  -31.8520 C.2    83  PHE83       0.2264
    128  O        -40.1600   18.2880  -32.4930 O.2    83  PHE83      -0.2867
    129  CB       -37.4930   16.8750  -32.4780 C.3    83  PHE83       0.0534
    130  CG       -36.5160   16.1010  -33.3130 C.ar   83  PHE83      -0.0203
    131  CD1      -36.0020   14.8970  -32.8650 C.ar   83  PHE83      -0.0042
    132  CD2      -36.1000   16.5860  -34.5410 C.ar   83  PHE83      -0.0042
    133  CE1      -35.1010   14.1840  -33.6320 C.ar   83  PHE83      -0.0003
    134  CE2      -35.1970   15.8800  -35.3110 C.ar   83  PHE83      -0.0003
    135  CZ       -34.6960   14.6780  -34.8550 C.ar   83  PHE83      -0.0000
@<TRIPOS>BOND
     1    26    24    1
     2    24    25    1
     3    24    23    2
     4    23    22    1
     5    72    71    1
     6    65    63   am
     7    71    70    1
     8    71    73    1
     9    91    89   ar
    10    22    21    1
    11    67    70    1
    12    67    68    1
    13    67    66    1
    14    89    88    1
    15    89    90   ar
    16    88    87    1
    17    68    69    2
    18    63    62    1
    19    63    64    2
    20    62    61    1
    21    87    84    1
    22    21    20    1
    23    74    75    1
    24    59    60    2
    25    59    58    1
    26    82    81    1
    27    95    94    2
    28    61    58    1
    29    75    76    1
    30    75    78    1
    31    12    11    2
    32    58    57    1
    33    77    76    2
    34    84    83    1
    35    84    85    1
    36    81    80    1
    37    20    17    1
    38    80    79    1
    39    17    16    1
    40    17    18    1
    41    79    78    1
    42    11    16   am
    43    11    10    1
    44    92    85   am
    45    92    93    1
    46    85    86    2
    47     9    10    1
    48    94    93    1
    49    94   100   am
    50   110   109   ar
    51    49    48    2
    52   103   102    2
    53   101   102    1
    54   101   100    1
    55    57    48   am
    56    96    93    1
    57    96    98    1
    58    96    97    1
    59    30    29    2
    60    10    13    1
    61   102   104   am
    62    27    18   am
    63    27    28    1
    64    48    47    1
    65    18    19    2
    66   109   111   ar
    67   109   108    1
    68    97    99    1
    69   104   105    1
    70    29    28    1
    71    29    31   am
    72   105   108    1
    73   105   106    1
    74    15    13    1
    75    13    14    1
    76   107   106    2
    77    38    40   ar
    78    38    36   ar
    79    40    41   ar
    80    47    46    1
    81    47    50    1
    82   106   112   am
    83    31    32    1
    84    32    35    1
    85    32    33    1
    86    46    44   am
    87    50    51    1
    88    42    33   am
    89    42    43    1
    90    35    36    1
    91    36    37   ar
    92    45    44    2
    93    44    43    1
    94    41    39   ar
    95   112   113    1
    96    33    34    2
    97     3     4    2
    98     3     2    1
    99     7     5    1
   100   113   114    1
   101    55    54    1
   102    37    39   ar
   103    51    52    1
   104    56    54    1
   105    54    53    2
   106     2     5    1
   107     2     1    1
   108    53    52    1
   109     5     6    1
   110   114   115    2
   111   114   116   am
   112     6     8    1
   113   116   117    1
   114   124   123    1
   115   119   118    2
   116   117   118    1
   117   117   120    1
   118   121   120    1
   119   121   122    1
   120   123   122    1
   121   134   135   ar
   122   134   132   ar
   123   135   133   ar
   124   132   130   ar
   125   125   126    1
   126   133   131   ar
   127   130   131   ar
   128   130   129    1
   129   128   127    2
   130   129   126    1
   131   126   127    1
