@<TRIPOS>MOLECULE
tmp/4c3rA00.pdb
 182 171 0 0 0
SMALL
GASTEIGER

@<TRIPOS>ATOM
      1  N         -1.3850   28.5380    2.6510 N.3    13  LEU13      -0.1231
      2  CA        -0.4730   29.6880    2.6550 C.3    13  LEU13       0.1693
      3  C          0.7050   29.4960    1.7030 C.2    13  LEU13       0.2593
      4  O          1.4100   30.4440    1.3920 O.2    13  LEU13      -0.2718
      5  CB         0.0440   29.9240    4.0710 C.3    13  LEU13       0.0284
      6  CG        -1.0510   30.1850    5.1040 C.3    13  LEU13       0.0019
      7  CD1       -0.5980   29.8180    6.5040 C.3    13  LEU13       0.0001
      8  CD2       -1.4560   31.6410    5.0660 C.3    13  LEU13       0.0001
      9  N          0.9040   28.2700    1.2300 N.am   14  GLY14      -0.1942
     10  CA         2.0460   27.9300    0.3710 C.3    14  GLY14       0.2014
     11  C          2.3890   26.4440    0.4490 C.2    14  GLY14       0.2639
     12  O          1.8870   25.7310    1.3260 O.2    14  GLY14      -0.2714
     13  N          3.2220   25.9680   -0.4760 N.am   15  LYS15      -0.1963
     14  CA         3.7170   24.5880   -0.4430 C.3    15  LYS15       0.1728
     15  C          5.1650   24.5910    0.0540 C.2    15  LYS15       0.2617
     16  O          6.0030   25.3870   -0.4090 O.2    15  LYS15      -0.2715
     17  CB         3.6270   23.9200   -1.8290 C.3    15  LYS15       0.0311
     18  CG         4.9050   24.0130   -2.6700 C.3    15  LYS15       0.0038
     19  CD         4.7800   23.4220   -4.0650 C.3    15  LYS15       0.0206
     20  CE         6.1630   23.3150   -4.6820 C.3    15  LYS15       0.1093
     21  NZ         6.1410   23.5470   -6.1470 N.3    15  LYS15      -0.1314
     22  N          5.4510   23.7160    1.0110 N.am   16  GLY16      -0.1940
     23  CA         6.8200   23.4770    1.4330 C.3    16  GLY16       0.2014
     24  C          7.3540   22.3120    0.6280 C.2    16  GLY16       0.2639
     25  O          6.7280   21.8780   -0.3410 O.2    16  GLY16      -0.2714
     26  N          8.5120   21.8030    1.0300 N.am   17  LYS17      -0.1963
     27  CA         9.0370   20.5700    0.4600 C.3    17  LYS17       0.1728
     28  C          8.0690   19.4100    0.7080 C.2    17  LYS17       0.2616
     29  O          7.4690   18.8790   -0.2240 O.2    17  LYS17      -0.2715
     30  CB        10.4220   20.2270    1.0470 C.3    17  LYS17       0.0311
     31  CG        11.5680   20.2530    0.0440 C.3    17  LYS17       0.0038
     32  CD        12.5990   19.1690    0.3440 C.3    17  LYS17       0.0206
     33  CE        13.5530   18.9510   -0.8210 C.3    17  LYS17       0.1093
     34  NZ        14.3610   20.1630   -1.1250 N.3    17  LYS17      -0.1314
     35  N          7.8910   19.0690    1.9800 N.am   18  PHE18      -0.1974
     36  CA         7.3090   17.7890    2.3790 C.3    18  PHE18       0.1639
     37  C          5.8050   17.8740    2.6610 C.2    18  PHE18       0.2290
     38  O          5.2110   16.9630    3.2280 O.2    18  PHE18      -0.2864
     39  CB         8.0580   17.2630    3.6130 C.3    18  PHE18       0.0560
     40  CG         9.5520   17.4690    3.5480 C.ar   18  PHE18      -0.0200
     41  CD1       10.3640   16.5990    2.8250 C.ar   18  PHE18      -0.0042
     42  CD2       10.1460   18.5470    4.1970 C.ar   18  PHE18      -0.0042
     43  CE1       11.7340   16.7880    2.7630 C.ar   18  PHE18      -0.0003
     44  CE2       11.5170   18.7430    4.1360 C.ar   18  PHE18      -0.0003
     45  CZ        12.3120   17.8630    3.4180 C.ar   18  PHE18      -0.0000
     46  N          1.6860   24.4020    4.0660 N.3    21  VAL21      -0.1245
     47  CA         1.3530   25.1740    5.2620 C.3    21  VAL21       0.1561
     48  C         -0.0610   25.7170    5.1290 C.2    21  VAL21       0.2260
     49  O         -0.3310   26.5320    4.2570 O.2    21  VAL21      -0.2867
     50  CB         2.2980   26.3670    5.3930 C.3    21  VAL21       0.0252
     51  CG1        2.2060   26.9710    6.7800 C.3    21  VAL21       0.0019
     52  CG2        3.7150   25.9360    5.0700 C.3    21  VAL21       0.0019
     53  N         -0.6620   29.1160   11.8460 N.3    34  ALA34      -0.1245
     54  CA        -0.2850   28.3270   10.6720 C.3    34  ALA34       0.1562
     55  C         -0.0450   26.9110   11.1160 C.2    34  ALA34       0.2260
     56  O          0.3230   26.6560   12.2690 O.2    34  ALA34      -0.2867
     57  CB         0.9650   28.8850   10.0200 C.3    34  ALA34       0.0290
     58  N          1.6840   23.4320    9.6320 N.3    36  LYS36      -0.1245
     59  CA         2.5690   22.8840    8.6010 C.3    36  LYS36       0.1561
     60  C          2.4890   21.3810    8.5570 C.2    36  LYS36       0.2260
     61  O          2.7490   20.7080    9.5370 O.2    36  LYS36      -0.2867
     62  CB         3.9890   23.2910    8.9060 C.3    36  LYS36       0.0271
     63  CG         4.9890   22.9330    7.8310 C.3    36  LYS36       0.0035
     64  CD         6.2340   23.7840    8.0190 C.3    36  LYS36       0.0206
     65  CE         7.3420   23.3980    7.0710 C.3    36  LYS36       0.1093
     66  NZ         8.3770   24.4680    7.0670 N.3    36  LYS36      -0.1314
     67  N          3.7950   17.9420    7.1900 N.3    38  LEU38      -0.1245
     68  CA         4.8930   17.2210    6.5530 C.3    38  LEU38       0.1561
     69  C          4.5620   15.7420    6.5900 C.2    38  LEU38       0.2260
     70  O          4.1870   15.2290    7.6360 O.2    38  LEU38      -0.2867
     71  CB         6.2220   17.5080    7.2430 C.3    38  LEU38       0.0270
     72  CG         6.4650   18.9780    7.5900 C.3    38  LEU38       0.0019
     73  CD1        6.1290   19.1950    9.0580 C.3    38  LEU38       0.0001
     74  CD2        7.8970   19.4270    7.3080 C.3    38  LEU38       0.0001
     75  N         10.0030   33.0410   14.4760 N.3    68  LEU68      -0.1245
     76  CA         8.6600   32.5070   14.3420 C.3    68  LEU68       0.1561
     77  C          8.3940   31.4910   15.4380 C.2    68  LEU68       0.2260
     78  O          9.0810   30.4900   15.5230 O.2    68  LEU68      -0.2867
     79  CB         8.4610   31.8640   12.9630 C.3    68  LEU68       0.0270
     80  CG         7.0060   31.7700   12.5100 C.3    68  LEU68       0.0019
     81  CD1        6.5420   33.1100   11.9500 C.3    68  LEU68       0.0001
     82  CD2        6.8140   30.6830   11.4750 C.3    68  LEU68       0.0001
     83  N          2.4240   26.7920   13.9800 N.3    84  LEU84      -0.1231
     84  CA         3.2500   27.9960   13.9330 C.3    84  LEU84       0.1693
     85  C          2.4800   29.2790   14.1570 C.2    84  LEU84       0.2592
     86  O          1.3020   29.3750   13.8570 O.2    84  LEU84      -0.2718
     87  CB         3.9520   28.0730   12.5710 C.3    84  LEU84       0.0284
     88  CG         4.6980   26.8020   12.1000 C.3    84  LEU84       0.0019
     89  CD1        5.0430   26.8600   10.6220 C.3    84  LEU84       0.0001
     90  CD2        5.9660   26.5820   12.8980 C.3    84  LEU84       0.0001
     91  N          3.1630   30.2670   14.7070 N.am   85  GLU85      -0.1966
     92  CA         2.7710   31.6490   14.5410 C.3    85  GLU85       0.1733
     93  C          2.4600   31.8570   13.0510 C.2    85  GLU85       0.2616
     94  O          3.1360   31.3050   12.2090 O.2    85  GLU85      -0.2715
     95  CB         3.9230   32.5780   14.9830 C.3    85  GLU85       0.0429
     96  CG         3.6180   34.0590   14.8870 C.3    85  GLU85       0.1163
     97  CD         4.7610   34.9380   15.3370 C.2    85  GLU85       0.3649
     98  OE1        5.7930   34.4170   15.8060 O.co2  85  GLU85      -0.2457
     99  OE2        4.6440   36.1710   15.1980 O.co2  85  GLU85      -0.2457
    100  N          1.4320   32.6350   12.7370 N.am   86  TYR86      -0.1960
    101  CA         1.0160   32.8890   11.3650 C.3    86  TYR86       0.1771
    102  C          1.5040   34.2780   11.0630 C.2    86  TYR86       0.2619
    103  O          1.2140   35.1780   11.8180 O.2    86  TYR86      -0.2715
    104  CB        -0.5060   32.7540   11.2520 C.3    86  TYR86       0.0574
    105  CG        -1.1900   33.6340   10.2290 C.ar   86  TYR86      -0.0198
    106  CD1       -0.9740   33.4600    8.8660 C.ar   86  TYR86      -0.0009
    107  CD2       -2.0910   34.6210   10.6200 C.ar   86  TYR86      -0.0009
    108  CE1       -1.6140   34.2570    7.9270 C.ar   86  TYR86       0.0417
    109  CE2       -2.7360   35.4180    9.6850 C.ar   86  TYR86       0.0417
    110  CZ        -2.4920   35.2360    8.3400 C.ar   86  TYR86       0.1957
    111  OH        -3.1230   36.0380    7.4070 O.3    86  TYR86      -0.2866
    112  N          2.3160   34.4450   10.0100 N.am   87  ALA87      -0.1977
    113  CA         2.7650   35.7890    9.5530 C.3    87  ALA87       0.1597
    114  C          1.8900   36.3190    8.4090 C.2    87  ALA87       0.2287
    115  O          1.9390   35.7930    7.2970 O.2    87  ALA87      -0.2864
    116  CB         4.2050   35.7460    9.1110 C.3    87  ALA87       0.0319
    117  N          3.1240   37.5620    4.6070 N.3    90  GLY90      -0.1210
    118  CA         3.9220   36.6080    3.8790 C.3    90  GLY90       0.1956
    119  C          5.4240   36.7090    3.9970 C.2    90  GLY90       0.2612
    120  O          5.9330   37.2260    4.9590 O.2    90  GLY90      -0.2717
    121  N          6.1180   36.2280    2.9720 N.am   91  THR91      -0.1952
    122  CA         7.5810   36.1780    2.9070 C.3    91  THR91       0.1897
    123  C          8.2330   37.4400    2.3630 C.2    91  THR91       0.2313
    124  O          7.6410   38.1830    1.5720 O.2    91  THR91      -0.2863
    125  CB         8.0500   35.0780    1.9350 C.3    91  THR91       0.1794
    126  OG1        7.8600   35.5480    0.5990 O.3    91  THR91      -0.2208
    127  CG2        7.2750   33.7530    2.1560 C.3    91  THR91       0.0378
    128  N         19.9840   27.5770    6.6070 N.3   130  ASP130     -0.1239
    129  CA        19.0550   27.9310    5.5090 C.3   130  ASP130      0.1674
    130  C         18.5110   29.3630    5.6240 C.2   130  ASP130      0.2266
    131  O         17.3250   29.6230    5.3670 O.2   130  ASP130     -0.2867
    132  CB        17.8850   26.9040    5.4860 C.3   130  ASP130      0.1410
    133  CG        17.3910   26.5590    4.0700 C.2   130  ASP130      0.3668
    134  OD1       18.1880   26.5960    3.1110 O.co2 130  ASP130     -0.2456
    135  OD2       16.1980   26.2080    3.9240 O.co2 130  ASP130     -0.2456
    136  N         17.6290   32.2460    4.3690 N.3   132  LYS132     -0.1245
    137  CA        17.3080   32.8290    3.0660 C.3   132  LYS132      0.1561
    138  C         15.9210   33.4380    3.0380 C.2   132  LYS132      0.2260
    139  O         15.0770   33.1050    3.8660 O.2   132  LYS132     -0.2867
    140  CB        17.4170   31.7600    1.9800 C.3   132  LYS132      0.0271
    141  CG        16.3860   30.6470    2.0640 C.3   132  LYS132      0.0035
    142  CD        16.6740   29.5150    1.0870 C.3   132  LYS132      0.0206
    143  CE        18.0630   28.9240    1.3030 C.3   132  LYS132      0.1093
    144  NZ        18.2300   27.5890    0.6520 N.3   132  LYS132     -0.1314
    145  N         13.0610   33.2970    1.5480 N.3   134  GLU134     -0.1231
    146  CA        11.7730   32.5920    1.4430 C.3   134  GLU134      0.1699
    147  C         11.4290   32.0320    2.8220 C.2   134  GLU134      0.2592
    148  O         10.3330   31.5380    3.0440 O.2   134  GLU134     -0.2718
    149  CB        11.7620   31.4980    0.3260 C.3   134  GLU134      0.0402
    150  CG        13.1060   30.8370   -0.0370 C.3   134  GLU134      0.1161
    151  CD        14.0400   31.7140   -0.8920 C.2   134  GLU134      0.3649
    152  OE1       13.5750   32.3530   -1.8640 O.co2 134  GLU134     -0.2457
    153  OE2       15.2520   31.7770   -0.5910 O.co2 134  GLU134     -0.2457
    154  N         12.3970   32.1370    3.7300 N.am  135  ASN135     -0.1974
    155  CA        12.3080   31.6600    5.0920 C.3   135  ASN135      0.1688
    156  C         12.2510   32.8470    6.0520 C.2   135  ASN135      0.2292
    157  O         12.7280   32.7730    7.1690 O.2   135  ASN135     -0.2864
    158  CB        13.5540   30.8460    5.3800 C.3   135  ASN135      0.1181
    159  CG        13.5010   29.4750    4.7610 C.2   135  ASN135      0.2629
    160  OD1       12.4760   29.0540    4.2340 O.2   135  ASN135     -0.2716
    161  ND2       14.5990   28.7550    4.8480 N.am  135  ASN135     -0.0877
    162  N          9.4630   35.6770    7.1980 N.3   137  LEU137     -0.1245
    163  CA         8.0800   36.0490    7.1260 C.3   137  LEU137      0.1561
    164  C          7.8850   37.3930    7.7680 C.2   137  LEU137      0.2260
    165  O          8.7290   37.8500    8.5490 O.2   137  LEU137     -0.2867
    166  CB         7.2280   34.9820    7.7780 C.3   137  LEU137      0.0270
    167  CG         7.5480   33.5660    7.2660 C.3   137  LEU137      0.0019
    168  CD1        6.5210   32.5200    7.6920 C.3   137  LEU137      0.0001
    169  CD2        7.6380   33.5570    5.7530 C.3   137  LEU137      0.0001
    170  N         11.7800   32.0280   10.0840 N.3   147  ALA147     -0.1231
    171  CA        10.9460   30.8490   10.0640 C.3   147  ALA147      0.1694
    172  C         11.6760   29.5620    9.7100 C.2   147  ALA147      0.2592
    173  O         11.0580   28.5040    9.7610 O.2   147  ALA147     -0.2718
    174  CB         9.7980   31.0630    9.0760 C.3   147  ALA147      0.0304
    175  N         12.9470   29.6310    9.3090 N.am  148  ASP148     -0.1974
    176  CA        13.7420   28.3950    9.1190 C.3   148  ASP148      0.1709
    177  C         14.3620   28.0640   10.4640 C.2   148  ASP148      0.2293
    178  O         14.9830   28.9310   11.0830 O.2   148  ASP148     -0.2864
    179  CB        14.8130   28.5380    8.0070 C.3   148  ASP148      0.1436
    180  CG        16.2520   28.5350    8.5330 C.2   148  ASP148      0.3671
    181  OD1       16.7770   27.4440    8.8480 O.co2 148  ASP148     -0.2456
    182  OD2       16.8680   29.6200    8.6130 O.co2 148  ASP148     -0.2456
@<TRIPOS>BOND
     1    21    20    1
     2    20    19    1
     3    19    18    1
     4    18    17    1
     5   152   151   ar
     6    17    14    1
     7    34    33    1
     8   151   153   ar
     9   151   150    1
    10    33    32    1
    11    13    14    1
    12    13    11   am
    13    14    15    1
    14    16    15    2
    15    25    24    2
    16    29    28    2
    17   150   149    1
    18    31    32    1
    19    31    30    1
    20    15    22   am
    21   149   146    1
    22    10    11    1
    23    10     9    1
    24    11    12    2
    25    27    28    1
    26    27    26    1
    27    27    30    1
    28   126   125    1
    29    24    26   am
    30    24    23    1
    31   144   143    1
    32    28    35   am
    33    22    23    1
    34   142   143    1
    35   142   141    1
    36     9     3   am
    37     4     3    2
    38   146   145    1
    39   146   147    1
    40   124   123    2
    41     3     2    1
    42   125   127    1
    43   125   122    1
    44    35    36    1
    45   140   141    1
    46   140   137    1
    47   123   122    1
    48    36    37    1
    49    36    39    1
    50     1     2    1
    51     2     5    1
    52    37    38    2
    53    43    41   ar
    54    43    45   ar
    55   147   148    2
    56   147   154   am
    57    41    40   ar
    58   122   121    1
    59   121   119   am
    60   138   137    1
    61   138   139    2
    62   137   136    1
    63   134   133   ar
    64    45    44   ar
    65    40    39    1
    66    40    42   ar
    67   154   155    1
    68   118   119    1
    69   118   117    1
    70   135   133   ar
    71   119   120    2
    72    46    47    1
    73   133   132    1
    74     5     6    1
    75    44    42   ar
    76   160   159    2
    77    49    48    2
    78   159   161   am
    79   159   158    1
    80     8     6    1
    81    52    50    1
    82   155   158    1
    83   155   156    1
    84     6     7    1
    85    48    47    1
    86    47    50    1
    87   131   130    2
    88    50    51    1
    89   132   129    1
    90   129   130    1
    91   129   128    1
    92   169   167    1
    93   156   157    2
    94    68    69    1
    95    68    67    1
    96    68    71    1
    97    69    70    2
    98    66    65    1
    99    65    64    1
   100   163   162    1
   101   163   164    1
   102   163   166    1
   103    71    72    1
   104   167   168    1
   105   167   166    1
   106   115   114    2
   107    74    72    1
   108   111   110    1
   109    72    73    1
   110   164   165    2
   111    63    64    1
   112    63    62    1
   113   108   110   ar
   114   108   106   ar
   115   179   180    1
   116   179   176    1
   117   110   109   ar
   118   114   113    1
   119   180   182   ar
   120   180   181   ar
   121    60    59    1
   122    60    61    2
   123    59    62    1
   124    59    58    1
   125   106   105   ar
   126   174   171    1
   127   116   113    1
   128   176   175    1
   129   176   177    1
   130   175   172   am
   131   113   112    1
   132   109   107   ar
   133   172   173    2
   134   172   171    1
   135   112   102   am
   136    57    54    1
   137   171   170    1
   138   105   107   ar
   139   105   104    1
   140   177   178    2
   141    89    88    1
   142    54    55    1
   143    54    53    1
   144   102   101    1
   145   102   103    2
   146    55    56    2
   147   104   101    1
   148   101   100    1
   149    82    80    1
   150    81    80    1
   151    88    87    1
   152    88    90    1
   153    94    93    2
   154    80    79    1
   155    87    84    1
   156   100    93   am
   157    79    76    1
   158    93    92    1
   159    86    85    2
   160    84    83    1
   161    84    85    1
   162    85    91   am
   163    76    75    1
   164    76    77    1
   165    92    91    1
   166    92    95    1
   167    96    95    1
   168    96    97    1
   169    99    97   ar
   170    97    98   ar
   171    77    78    2
