@<TRIPOS>MOLECULE
tmp/4c3wA00.pdb
 88 84 0 0 0
SMALL
GASTEIGER

@<TRIPOS>ATOM
      1  N         -4.0200  -23.9500   -4.5880 N.3    35  GLU35      -0.1245
      2  CA        -4.7050  -23.1180   -3.5980 C.3    35  GLU35       0.1567
      3  C         -5.3700  -21.9120   -4.2540 C.2    35  GLU35       0.2260
      4  O         -6.5190  -21.5920   -3.9670 O.2    35  GLU35      -0.2867
      5  CB        -3.7290  -22.6820   -2.4840 C.3    35  GLU35       0.0388
      6  CG        -3.2270  -23.8150   -1.5930 C.3    35  GLU35       0.1160
      7  CD        -4.2360  -24.3190   -0.5970 C.2    35  GLU35       0.3649
      8  OE1       -5.2790  -23.6610   -0.4260 O.co2  35  GLU35      -0.2457
      9  OE2       -4.0110  -25.3910   -0.0060 O.co2  35  GLU35      -0.2457
     10  N        -14.6070  -20.2590    4.5030 N.3    46  ASN46      -0.1240
     11  CA       -14.7200  -21.6020    5.0510 C.3    46  ASN46       0.1653
     12  C        -16.0320  -21.7200    5.8280 C.2    46  ASN46       0.2266
     13  O        -16.5900  -20.7920    6.2630 O.2    46  ASN46      -0.2867
     14  CB       -13.5250  -21.9070    5.9760 C.3    46  ASN46       0.1155
     15  CG       -12.1800  -21.7010    5.2840 C.2    46  ASN46       0.2627
     16  OD1      -11.3640  -20.9120    5.6880 O.2    46  ASN46      -0.2716
     17  ND2      -11.9800  -22.4230    4.2810 N.am   46  ASN46      -0.0877
     18  N        -14.1020  -18.6120    8.9680 N.3    50  SER50      -0.1217
     19  CA       -12.7960  -18.0890    8.5970 C.3    50  SER50       0.1889
     20  C        -12.7380  -17.9300    7.0710 C.2    50  SER50       0.2288
     21  O        -13.5940  -18.4120    6.3580 O.2    50  SER50      -0.2866
     22  CB       -11.6860  -19.0060    9.1050 C.3    50  SER50       0.2089
     23  OG       -11.6990  -20.2310    8.4670 O.3    50  SER50      -0.2183
     24  N         -9.7410  -17.8630    3.7320 N.3    52  ASP52      -0.1239
     25  CA        -8.3920  -18.1030    3.1970 C.3    52  ASP52       0.1674
     26  C         -8.0520  -16.9440    2.2400 C.2    52  ASP52       0.2266
     27  O         -8.8810  -16.5450    1.4240 O.2    52  ASP52      -0.2867
     28  CB        -8.3120  -19.3740    2.3230 C.3    52  ASP52       0.1410
     29  CG        -8.5150  -20.6890    3.0580 C.2    52  ASP52       0.3668
     30  OD1       -8.7430  -20.6980    4.2730 O.co2  52  ASP52      -0.2456
     31  OD2       -8.3500  -21.7330    2.3370 O.co2  52  ASP52      -0.2456
     32  N         -3.4270  -19.0030    0.2590 N.3    57  GLN57      -0.1245
     33  CA        -4.7110  -19.2680    0.9090 C.3    57  GLN57       0.1566
     34  C         -4.5230  -19.4160    2.4250 C.2    57  GLN57       0.2260
     35  O         -5.0200  -20.3300    3.0390 O.2    57  GLN57      -0.2867
     36  CB        -5.4280  -20.4540    0.2730 C.3    57  GLN57       0.0367
     37  CG        -5.9430  -20.1340   -1.1140 C.3    57  GLN57       0.0905
     38  CD        -7.0840  -19.1500   -1.0750 C.2    57  GLN57       0.2608
     39  OE1       -8.2440  -19.5170   -0.8840 O.2    57  GLN57      -0.2717
     40  NE2       -6.7810  -17.8700   -1.2570 N.am   57  GLN57      -0.0878
     41  N         -5.1450  -18.7810    6.1990 N.3    59  ASN59      -0.1240
     42  CA        -6.4380  -18.7540    6.8620 C.3    59  ASN59       0.1653
     43  C         -6.4900  -17.8840    8.1150 C.2    59  ASN59       0.2266
     44  O         -5.6050  -17.9120    8.9680 O.2    59  ASN59      -0.2867
     45  CB        -6.8440  -20.1880    7.1710 C.3    59  ASN59       0.1155
     46  CG        -8.2070  -20.3090    7.7640 C.2    59  ASN59       0.2627
     47  OD1       -8.3750  -20.3210    8.9460 O.2    59  ASN59      -0.2716
     48  ND2       -9.2060  -20.3980    6.9150 N.am   59  ASN59      -0.0877
     49  N         -3.8850  -17.1140   11.4450 N.3    63  TRP63      -0.1241
     50  CA        -2.6820  -16.4940   10.9330 C.3    63  TRP63       0.1605
     51  C         -2.7280  -15.0060   10.6610 C.2    63  TRP63       0.2264
     52  O         -1.7010  -14.3790   10.6160 O.2    63  TRP63      -0.2867
     53  CB        -2.1990  -17.2600    9.6730 C.3    63  TRP63       0.0550
     54  CG        -2.0040  -18.6910    9.9250 C.ar   63  TRP63       0.0003
     55  CD1       -2.7980  -19.7040    9.5020 C.ar   63  TRP63       0.0946
     56  CD2       -1.0350  -19.2800   10.8190 C.ar   63  TRP63       0.0152
     57  NE1       -2.3570  -20.8920    9.9840 N.ar   63  TRP63      -0.2442
     58  CE2       -1.2940  -20.6630   10.8220 C.ar   63  TRP63       0.0810
     59  CE3        0.0740  -18.7980   11.5110 C.ar   63  TRP63       0.0012
     60  CZ2       -0.5000  -21.5530   11.5410 C.ar   63  TRP63       0.0191
     61  CZ3        0.8410  -19.6940   12.2240 C.ar   63  TRP63       0.0001
     62  CH2        0.5610  -21.0350   12.2040 C.ar   63  TRP63       0.0015
     63  N         -0.2650  -28.3800    6.5110 N.3   107  ALA107     -0.1231
     64  CA        -1.2070  -27.2940    6.8270 C.3   107  ALA107      0.1694
     65  C         -2.0330  -26.9070    5.6050 C.2   107  ALA107      0.2592
     66  O         -3.1820  -26.4750    5.7430 O.2   107  ALA107     -0.2718
     67  CB        -0.4730  -26.0750    7.3410 C.3   107  ALA107      0.0304
     68  N         -1.4530  -27.0230    4.4070 N.am  108  TRP108     -0.1962
     69  CA        -2.1060  -26.6900    3.1250 C.3   108  TRP108      0.1771
     70  C         -2.8000  -27.9210    2.5900 C.2   108  TRP108      0.2619
     71  O         -2.1840  -28.8750    2.1710 O.2   108  TRP108     -0.2715
     72  CB        -1.1130  -26.1130    2.1200 C.3   108  TRP108      0.0590
     73  CG        -0.6810  -24.7240    2.4370 C.ar  108  TRP108      0.0006
     74  CD1       -1.3530  -23.5930    2.1510 C.ar  108  TRP108      0.0946
     75  CD2        0.4870  -24.3130    3.1650 C.ar  108  TRP108      0.0152
     76  NE1       -0.6580  -22.4880    2.6260 N.ar  108  TRP108     -0.2442
     77  CE2        0.4770  -22.9100    3.2490 C.ar  108  TRP108      0.0810
     78  CE3        1.5480  -24.9910    3.7320 C.ar  108  TRP108      0.0012
     79  CZ2        1.4440  -22.1910    3.8960 C.ar  108  TRP108      0.0191
     80  CZ3        2.5280  -24.2770    4.3910 C.ar  108  TRP108      0.0001
     81  CH2        2.4700  -22.8880    4.4570 C.ar  108  TRP108      0.0015
     82  N         -4.1250  -27.8780    2.6280 N.am  109  VAL109     -0.1977
     83  CA        -4.9560  -28.9890    2.2660 C.3   109  VAL109      0.1596
     84  C         -4.6840  -29.4010    0.8240 C.2   109  VAL109      0.2287
     85  O         -4.5040  -30.5970    0.5640 O.2   109  VAL109     -0.2864
     86  CB        -6.4550  -28.6350    2.4410 C.3   109  VAL109      0.0276
     87  CG1       -7.3310  -29.7870    1.9540 C.3   109  VAL109      0.0022
     88  CG2       -6.7650  -28.2510    3.8800 C.3   109  VAL109      0.0022
@<TRIPOS>BOND
     1     1     2    1
     2     3     4    2
     3     3     2    1
     4     2     5    1
     5     5     6    1
     6     6     7    1
     7    40    38   am
     8    37    38    1
     9    37    36    1
    10    38    39    2
    11     7     8   ar
    12     7     9   ar
    13    32    33    1
    14    36    33    1
    15    85    84    2
    16    84    83    1
    17    33    34    1
    18    27    26    2
    19    87    86    1
    20    72    73    1
    21    72    69    1
    22    74    73   ar
    23    74    76   ar
    24    71    70    2
    25    26    25    1
    26    83    86    1
    27    83    82    1
    28    28    29    1
    29    28    25    1
    30    31    29   ar
    31    34    35    2
    32    73    75   ar
    33    86    88    1
    34    70    82   am
    35    70    69    1
    36    76    77   ar
    37    29    30   ar
    38    69    68    1
    39    75    77   ar
    40    75    78   ar
    41    25    24    1
    42    77    79   ar
    43    78    80   ar
    44    79    81   ar
    45    17    15   am
    46    80    81   ar
    47    68    65   am
    48    10    11    1
    49    11    12    1
    50    11    14    1
    51    15    16    2
    52    15    14    1
    53    65    66    2
    54    65    64    1
    55    12    13    2
    56    41    42    1
    57    21    20    2
    58    63    64    1
    59    64    67    1
    60    42    45    1
    61    42    43    1
    62    48    46   am
    63    20    19    1
    64    45    46    1
    65    46    47    2
    66    43    44    2
    67    23    22    1
    68    19    18    1
    69    19    22    1
    70    55    54   ar
    71    55    57   ar
    72    53    54    1
    73    53    50    1
    74    54    56   ar
    75    57    58   ar
    76    52    51    2
    77    51    50    1
    78    56    58   ar
    79    56    59   ar
    80    58    60   ar
    81    50    49    1
    82    59    61   ar
    83    60    62   ar
    84    62    61   ar
