@<TRIPOS>MOLECULE
tmp/4c3xE01.pdb
 135 129 0 0 0
SMALL
GASTEIGER

@<TRIPOS>ATOM
      1  N       -118.9990   17.7090   31.7220 N.3    46  TYR46      -0.1227
      2  CA      -119.0400   17.2450   33.1150 C.3    46  TYR46       0.1736
      3  C       -117.8090   17.6550   33.9400 C.2    46  TYR46       0.2596
      4  O       -117.8800   17.7200   35.1710 O.2    46  TYR46      -0.2718
      5  CB      -119.1170   15.7100   33.1830 C.3    46  TYR46       0.0548
      6  CG      -120.4270   15.0720   32.7580 C.ar   46  TYR46      -0.0200
      7  CD1     -121.5880   15.8210   32.5560 C.ar   46  TYR46      -0.0009
      8  CD2     -120.5090   13.6980   32.6170 C.ar   46  TYR46      -0.0009
      9  CE1     -122.7790   15.2030   32.2250 C.ar   46  TYR46       0.0417
     10  CE2     -121.6990   13.0850   32.3000 C.ar   46  TYR46       0.0417
     11  CZ      -122.8210   13.8430   32.0940 C.ar   46  TYR46       0.1957
     12  OH      -124.0240   13.2200   31.7700 O.3    46  TYR46      -0.2866
     13  N       -116.6950   17.9090   33.2640 N.am   47  SER47      -0.1938
     14  CA      -115.4290   17.9910   33.9200 C.3    47  SER47       0.2055
     15  C       -115.3310   19.2560   34.7660 C.2    47  SER47       0.2643
     16  O       -116.1710   20.1270   34.7210 O.2    47  SER47      -0.2714
     17  CB      -114.2870   17.9520   32.9120 C.3    47  SER47       0.2130
     18  OG      -114.0750   19.2420   32.3660 O.3    47  SER47      -0.2179
     19  N       -114.3220   19.2870   35.6040 N.am   48  GLY48      -0.1954
     20  CA      -113.9860   20.5220   36.3560 C.3    48  GLY48       0.1869
     21  C       -113.2410   21.5310   35.4670 C.2    48  GLY48       0.2309
     22  O       -112.9340   22.6210   35.9110 O.2    48  GLY48      -0.2863
     23  N       -110.1770   21.7010   34.5760 N.3    50  SER50      -0.1217
     24  CA      -108.7680   21.8940   34.8020 C.3    50  SER50       0.1889
     25  C       -108.0560   21.4070   33.5380 C.2    50  SER50       0.2288
     26  O       -108.4460   20.3980   32.9460 O.2    50  SER50      -0.2866
     27  CB      -108.3480   21.1520   36.0500 C.3    50  SER50       0.2089
     28  OG      -106.9670   21.2000   36.2180 O.3    50  SER50      -0.2183
     29  N       -103.9670   23.1840   42.2850 N.3   114  PHE114     -0.1241
     30  CA      -104.3990   21.8220   42.4230 C.3   114  PHE114      0.1605
     31  C       -103.1400   21.0550   42.1330 C.2   114  PHE114      0.2264
     32  O       -102.5970   21.1610   41.0330 O.2   114  PHE114     -0.2867
     33  CB      -105.5100   21.4820   41.4050 C.3   114  PHE114      0.0534
     34  CG      -106.3830   20.3280   41.8200 C.ar  114  PHE114     -0.0203
     35  CD1     -105.9840   19.0340   41.6160 C.ar  114  PHE114     -0.0042
     36  CD2     -107.6080   20.5530   42.4290 C.ar  114  PHE114     -0.0042
     37  CE1     -106.7750   17.9690   41.9890 C.ar  114  PHE114     -0.0003
     38  CE2     -108.4180   19.4870   42.8050 C.ar  114  PHE114     -0.0003
     39  CZ      -107.9990   18.1840   42.5660 C.ar  114  PHE114     -0.0000
     40  N        -99.8360   15.0160   40.5000 N.3   117  TYR117     -0.1241
     41  CA      -100.2290   13.7830   41.1850 C.3   117  TYR117      0.1605
     42  C        -99.1080   12.8310   41.6270 C.2   117  TYR117      0.2264
     43  O        -99.3730   11.8990   42.3790 O.2   117  TYR117     -0.2867
     44  CB      -101.2630   13.0250   40.3140 C.3   117  TYR117      0.0534
     45  CG      -102.5480   13.7870   40.0890 C.ar  117  TYR117     -0.0201
     46  CD1     -102.9170   14.8510   40.8940 C.ar  117  TYR117     -0.0009
     47  CD2     -103.4140   13.4370   39.0540 C.ar  117  TYR117     -0.0009
     48  CE1     -104.0800   15.5560   40.6740 C.ar  117  TYR117      0.0417
     49  CE2     -104.5890   14.1580   38.8290 C.ar  117  TYR117      0.0417
     50  CZ      -104.9190   15.1960   39.6360 C.ar  117  TYR117      0.1957
     51  OH      -106.1280   15.9000   39.5000 O.3   117  TYR117     -0.2866
     52  N       -107.9360   26.9660   34.1110 N.3   131  ASN131     -0.1240
     53  CA      -109.3460   26.7550   34.0640 C.3   131  ASN131      0.1653
     54  C       -110.0050   27.9190   33.3660 C.2   131  ASN131      0.2266
     55  O       -109.5410   29.0470   33.4800 O.2   131  ASN131     -0.2867
     56  CB      -109.9280   26.7050   35.4820 C.3   131  ASN131      0.1155
     57  CG      -109.4830   25.4810   36.2580 C.2   131  ASN131      0.2627
     58  OD1     -108.3300   25.3650   36.6190 O.2   131  ASN131     -0.2716
     59  ND2     -110.4110   24.5880   36.5380 N.am  131  ASN131     -0.0877
     60  N       -118.0500    9.9180   40.9360 N.3   292  PHE292     -0.1241
     61  CA      -116.6180   10.2170   41.0870 C.3   292  PHE292      0.1605
     62  C       -116.3460   10.6110   42.5200 C.2   292  PHE292      0.2264
     63  O       -117.0270   11.4830   43.0490 O.2   292  PHE292     -0.2867
     64  CB      -116.2760   11.3560   40.1250 C.3   292  PHE292      0.0534
     65  CG      -114.8590   11.8180   40.1330 C.ar  292  PHE292     -0.0203
     66  CD1     -113.7980   10.9870   40.4920 C.ar  292  PHE292     -0.0042
     67  CD2     -114.5740   13.0920   39.6730 C.ar  292  PHE292     -0.0042
     68  CE1     -112.4970   11.4590   40.4700 C.ar  292  PHE292     -0.0003
     69  CE2     -113.2930   13.5660   39.6300 C.ar  292  PHE292     -0.0003
     70  CZ      -112.2360   12.7330   40.0030 C.ar  292  PHE292     -0.0000
     71  N       -113.5930   12.0930   44.8780 N.3   294  VAL294     -0.1245
     72  CA      -112.3480   12.8640   44.8110 C.3   294  VAL294      0.1561
     73  C       -112.2050   13.6550   46.1050 C.2   294  VAL294      0.2260
     74  O       -113.1890   13.9990   46.7660 O.2   294  VAL294     -0.2867
     75  CB      -112.3480   13.7290   43.5350 C.3   294  VAL294      0.0252
     76  CG1     -113.5040   14.7230   43.5300 C.3   294  VAL294      0.0019
     77  CG2     -111.0100   14.4760   43.3460 C.3   294  VAL294      0.0019
     78  N       -106.9100    9.9540   42.3080 N.3   316  TYR316     -0.1241
     79  CA      -107.9820    9.0130   41.9120 C.3   316  TYR316      0.1605
     80  C       -107.5280    7.8990   40.9620 C.2   316  TYR316      0.2264
     81  O       -107.9600    6.7750   41.1130 O.2   316  TYR316     -0.2867
     82  CB      -109.2050    9.7630   41.3350 C.3   316  TYR316      0.0534
     83  CG      -108.8940   11.0280   40.5530 C.ar  316  TYR316     -0.0201
     84  CD1     -108.6980   12.2340   41.2170 C.ar  316  TYR316     -0.0009
     85  CD2     -108.8390   11.0220   39.1470 C.ar  316  TYR316     -0.0009
     86  CE1     -108.4170   13.4040   40.5280 C.ar  316  TYR316      0.0417
     87  CE2     -108.5620   12.1890   38.4410 C.ar  316  TYR316      0.0417
     88  CZ      -108.3460   13.3780   39.1510 C.ar  316  TYR316      0.1957
     89  OH      -108.0890   14.5540   38.4940 O.3   316  TYR316     -0.2866
     90  N       -115.4910   14.3530   48.2590 N.3   350  ILE350     -0.1245
     91  CA      -116.3600   15.0220   47.2840 C.3   350  ILE350      0.1561
     92  C       -116.8400   13.9180   46.3260 C.2   350  ILE350      0.2260
     93  O       -116.0280   13.1970   45.7420 O.2   350  ILE350     -0.2867
     94  CB      -115.6010   16.0880   46.4810 C.3   350  ILE350      0.0252
     95  CG1     -114.9950   17.1350   47.4270 C.3   350  ILE350      0.0019
     96  CG2     -116.5110   16.7700   45.4740 C.3   350  ILE350      0.0019
     97  CD1     -113.9200   17.9770   46.7620 C.3   350  ILE350      0.0001
     98  N       -119.3000   13.1250   43.0400 N.3   352  ILE352     -0.1245
     99  CA      -119.9650   13.7830   41.9120 C.3   352  ILE352      0.1561
    100  C       -120.6470   12.7500   41.0040 C.2   352  ILE352      0.2260
    101  O       -119.9590   11.9150   40.3800 O.2   352  ILE352     -0.2867
    102  CB      -118.9550   14.5610   41.0630 C.3   352  ILE352      0.0252
    103  CG1     -118.0930   15.4750   41.9710 C.3   352  ILE352      0.0019
    104  CG2     -119.6890   15.3750   40.0000 C.3   352  ILE352      0.0019
    105  CD1     -117.0220   16.2580   41.2420 C.3   352  ILE352      0.0001
    106  N       -106.7880   18.5140   50.5240 N.3   416  PHE416     -0.1241
    107  CA      -108.2410   18.4650   50.6770 C.3   416  PHE416      0.1605
    108  C       -108.7550   18.4600   52.1070 C.2   416  PHE416      0.2264
    109  O       -109.9770   18.4590   52.3250 O.2   416  PHE416     -0.2867
    110  CB      -108.7850   17.2070   49.9790 C.3   416  PHE416      0.0534
    111  CG      -108.4640   17.1630   48.5210 C.ar  416  PHE416     -0.0203
    112  CD1     -109.2250   17.8660   47.6320 C.ar  416  PHE416     -0.0042
    113  CD2     -107.4030   16.4210   48.0640 C.ar  416  PHE416     -0.0042
    114  CE1     -108.9210   17.8770   46.2900 C.ar  416  PHE416     -0.0003
    115  CE2     -107.0920   16.3930   46.7210 C.ar  416  PHE416     -0.0003
    116  CZ      -107.8430   17.1390   45.8310 C.ar  416  PHE416     -0.0000
    117  N       -113.2430    8.1140   34.1950 N.3   445  LEU445     -0.1245
    118  CA      -113.5500    9.4340   33.6470 C.3   445  LEU445      0.1561
    119  C       -113.3200    9.3870   32.1280 C.2   445  LEU445      0.2260
    120  O       -112.8530   10.3540   31.5150 O.2   445  LEU445     -0.2867
    121  CB      -112.6110   10.4810   34.3010 C.3   445  LEU445      0.0270
    122  CG      -112.5550   10.4950   35.8300 C.3   445  LEU445      0.0019
    123  CD1     -111.6130   11.5910   36.3050 C.3   445  LEU445      0.0001
    124  CD2     -113.9460   10.7100   36.3900 C.3   445  LEU445      0.0001
    125  N       -103.7430   17.1920   37.2170 N.3   488  PRO488     -0.2102
    126  CA      -105.0530   17.6420   36.8250 C.3   488  PRO488      0.1504
    127  C       -105.0690   18.2370   35.4320 C.2   488  PRO488      0.2576
    128  O       -104.2180   19.0720   35.0760 O.2   488  PRO488     -0.2718
    129  CB      -105.3950   18.6990   37.8810 C.3   488  PRO488      0.0282
    130  CG      -104.0440   19.2530   38.3130 C.3   488  PRO488      0.0208
    131  CD      -103.1210   18.0760   38.2410 C.3   488  PRO488      0.0893
    132  N       -106.0400   17.8370   34.6210 N.am  489  GLY489     -0.1957
    133  CA      -106.1790   18.4480   33.2850 C.3   489  GLY489      0.1869
    134  C       -105.4060   17.8120   32.1460 C.2   489  GLY489      0.2309
    135  O       -105.4380   18.3190   31.0450 O.2   489  GLY489     -0.2863
@<TRIPOS>BOND
     1   135   134    2
     2   120   119    2
     3     1     2    1
     4    12    11    1
     5    11     9   ar
     6    11    10   ar
     7   119   118    1
     8   134   133    1
     9     9     7   ar
    10    10     8   ar
    11    18    17    1
    12     7     6   ar
    13     8     6   ar
    14     6     5    1
    15    17    14    1
    16    26    25    2
    17     2     5    1
    18     2     3    1
    19    13    14    1
    20    13     3   am
    21   133   132    1
    22    54    55    2
    23    54    53    1
    24    25    24    1
    25   118   117    1
    26   118   121    1
    27    14    15    1
    28     3     4    2
    29    53    52    1
    30    53    56    1
    31   121   122    1
    32    23    24    1
    33   132   127   am
    34    16    15    2
    35    15    19   am
    36    24    27    1
    37   128   127    2
    38   127   126    1
    39    21    22    2
    40    21    20    1
    41    56    57    1
    42    19    20    1
    43   122   123    1
    44   122   124    1
    45    27    28    1
    46    57    59   am
    47    57    58    2
    48   126   125    1
    49   126   129    1
    50   125   131    1
    51   129   130    1
    52   131   130    1
    53    87    85   ar
    54    87    88   ar
    55    89    88    1
    56    49    47   ar
    57    49    50   ar
    58    47    45   ar
    59    85    83   ar
    60    88    86   ar
    61    51    50    1
    62    69    67   ar
    63    69    70   ar
    64    50    48   ar
    65    67    65   ar
    66   104   102    1
    67    70    68   ar
    68    45    44    1
    69    45    46   ar
    70    64    65    1
    71    64    61    1
    72    65    66   ar
    73    44    41    1
    74   101   100    2
    75    68    66   ar
    76    40    41    1
    77    86    84   ar
    78    83    84   ar
    79    83    82    1
    80    48    46   ar
    81    60    61    1
    82    80    81    2
    83    80    79    1
    84   100    99    1
    85    32    31    2
    86   102    99    1
    87   102   103    1
    88    61    62    1
    89    41    42    1
    90   105   103    1
    91    82    79    1
    92    33    34    1
    93    33    30    1
    94    35    34   ar
    95    35    37   ar
    96    42    43    2
    97    34    36   ar
    98    79    78    1
    99    99    98    1
   100    37    39   ar
   101    31    30    1
   102    29    30    1
   103    36    38   ar
   104    62    63    2
   105    39    38   ar
   106    77    75    1
   107    76    75    1
   108    75    72    1
   109    72    71    1
   110    72    73    1
   111    96    94    1
   112    93    92    2
   113   116   114   ar
   114   116   115   ar
   115    73    74    2
   116   114   112   ar
   117    92    91    1
   118    94    91    1
   119    94    95    1
   120   115   113   ar
   121    97    95    1
   122    91    90    1
   123   112   111   ar
   124   113   111   ar
   125   111   110    1
   126   110   107    1
   127   106   107    1
   128   107   108    1
   129   108   109    2
