@<TRIPOS>MOLECULE
tmp/4c3yE02.pdb
 130 123 0 0 0
SMALL
GASTEIGER

@<TRIPOS>ATOM
      1  N       -117.3790   18.1560   33.1520 N.3    47  SER47      -0.1202
      2  CA      -116.0900   18.2870   33.8040 C.3    47  SER47       0.2020
      3  C       -115.9750   19.5010   34.6940 C.2    47  SER47       0.2619
      4  O       -116.7920   20.4030   34.6720 O.2    47  SER47      -0.2717
      5  CB      -115.0010   18.3330   32.7550 C.3    47  SER47       0.2103
      6  OG      -114.9790   19.6000   32.1230 O.3    47  SER47      -0.2182
      7  N       -114.9540   19.5060   35.5200 N.am   48  GLY48      -0.1956
      8  CA      -114.6030   20.7240   36.2870 C.3    48  GLY48       0.1869
      9  C       -113.8760   21.7490   35.4040 C.2    48  GLY48       0.2309
     10  O       -113.6570   22.8730   35.8190 O.2    48  GLY48      -0.2863
     11  N       -110.8610   21.8370   34.4330 N.3    50  SER50      -0.1217
     12  CA      -109.4670   22.0210   34.7080 C.3    50  SER50       0.1889
     13  C       -108.7490   21.5110   33.4820 C.2    50  SER50       0.2288
     14  O       -109.0880   20.4590   32.9570 O.2    50  SER50      -0.2866
     15  CB      -109.0890   21.2820   35.9850 C.3    50  SER50       0.2089
     16  OG      -107.6850   21.2720   36.1590 O.3    50  SER50      -0.2183
     17  N       -104.6300   23.2580   42.1060 N.3   114  PHE114     -0.1241
     18  CA      -105.0730   21.9010   42.2690 C.3   114  PHE114      0.1605
     19  C       -103.8180   21.0980   41.9480 C.2   114  PHE114      0.2264
     20  O       -103.3220   21.2000   40.8340 O.2   114  PHE114     -0.2867
     21  CB      -106.2120   21.5620   41.3010 C.3   114  PHE114      0.0534
     22  CG      -107.0160   20.3710   41.7090 C.ar  114  PHE114     -0.0203
     23  CD1     -106.5160   19.0910   41.5660 C.ar  114  PHE114     -0.0042
     24  CD2     -108.2910   20.5310   42.2210 C.ar  114  PHE114     -0.0042
     25  CE1     -107.2700   17.9870   41.9240 C.ar  114  PHE114     -0.0003
     26  CE2     -109.0500   19.4370   42.5900 C.ar  114  PHE114     -0.0003
     27  CZ      -108.5370   18.1570   42.4340 C.ar  114  PHE114     -0.0000
     28  N       -108.5040   27.0610   33.9770 N.3   131  ASN131     -0.1240
     29  CA      -109.9240   26.8880   33.9290 C.3   131  ASN131      0.1653
     30  C       -110.5690   28.0550   33.2300 C.2   131  ASN131      0.2266
     31  O       -110.0720   29.1710   33.3060 O.2   131  ASN131     -0.2867
     32  CB      -110.4840   26.8630   35.3330 C.3   131  ASN131      0.1155
     33  CG      -110.0320   25.6620   36.1220 C.2   131  ASN131      0.2627
     34  OD1     -108.8440   25.4960   36.3900 O.2   131  ASN131     -0.2716
     35  ND2     -110.9820   24.8240   36.5280 N.am  131  ASN131     -0.0877
     36  N       -118.7440    9.9640   40.8480 N.3   292  PHE292     -0.1241
     37  CA      -117.3050   10.2840   41.0110 C.3   292  PHE292      0.1605
     38  C       -117.0230   10.6760   42.4430 C.2   292  PHE292      0.2264
     39  O       -117.6910   11.5520   42.9780 O.2   292  PHE292     -0.2867
     40  CB      -116.9690   11.4470   40.0680 C.3   292  PHE292      0.0534
     41  CG      -115.5470   11.8860   40.0730 C.ar  292  PHE292     -0.0203
     42  CD1     -114.4870   11.0280   40.4240 C.ar  292  PHE292     -0.0042
     43  CD2     -115.2390   13.1620   39.6320 C.ar  292  PHE292     -0.0042
     44  CE1     -113.1910   11.4760   40.4080 C.ar  292  PHE292     -0.0003
     45  CE2     -113.9330   13.5970   39.5740 C.ar  292  PHE292     -0.0003
     46  CZ      -112.9170   12.7460   39.9460 C.ar  292  PHE292     -0.0000
     47  N       -114.2560   12.1130   44.8270 N.3   294  VAL294     -0.1245
     48  CA      -113.0320   12.8690   44.7490 C.3   294  VAL294      0.1561
     49  C       -112.8970   13.6730   46.0230 C.2   294  VAL294      0.2260
     50  O       -113.8930   14.0150   46.6780 O.2   294  VAL294     -0.2867
     51  CB      -113.0500   13.7680   43.4910 C.3   294  VAL294      0.0252
     52  CG1     -114.0930   14.8450   43.6000 C.3   294  VAL294      0.0019
     53  CG2     -111.6700   14.3720   43.2390 C.3   294  VAL294      0.0019
     54  N       -107.5630    9.9600   42.2790 N.3   316  TYR316     -0.1241
     55  CA      -108.6590    9.0590   41.8820 C.3   316  TYR316      0.1605
     56  C       -108.2040    7.9570   40.9270 C.2   316  TYR316      0.2264
     57  O       -108.6140    6.8300   41.0820 O.2   316  TYR316     -0.2867
     58  CB      -109.8840    9.8500   41.3100 C.3   316  TYR316      0.0534
     59  CG      -109.5200   11.0190   40.4370 C.ar  316  TYR316     -0.0201
     60  CD1     -109.1680   12.2560   40.9980 C.ar  316  TYR316     -0.0009
     61  CD2     -109.4690   10.8790   39.0550 C.ar  316  TYR316     -0.0009
     62  CE1     -108.7810   13.3120   40.1920 C.ar  316  TYR316      0.0417
     63  CE2     -109.0980   11.9120   38.2470 C.ar  316  TYR316      0.0417
     64  CZ      -108.7500   13.1260   38.8180 C.ar  316  TYR316      0.1957
     65  OH      -108.3670   14.1530   37.9830 O.3   316  TYR316     -0.2866
     66  N       -116.1310   14.4290   48.1930 N.3   350  ILE350     -0.1245
     67  CA      -117.0280   15.0780   47.2390 C.3   350  ILE350      0.1561
     68  C       -117.5430   14.0200   46.2780 C.2   350  ILE350      0.2260
     69  O       -116.7580   13.3110   45.6710 O.2   350  ILE350     -0.2867
     70  CB      -116.3170   16.1510   46.4090 C.3   350  ILE350      0.0252
     71  CG1     -115.6790   17.2240   47.2990 C.3   350  ILE350      0.0019
     72  CG2     -117.3000   16.8510   45.4830 C.3   350  ILE350      0.0019
     73  CD1     -114.6420   18.0780   46.5800 C.3   350  ILE350      0.0001
     74  N       -120.1420   13.2490   42.9830 N.3   352  ILE352     -0.1245
     75  CA      -120.7410   13.9340   41.8540 C.3   352  ILE352      0.1561
     76  C       -121.3950   12.9010   40.9390 C.2   352  ILE352      0.2260
     77  O       -120.7030   12.1100   40.2920 O.2   352  ILE352     -0.2867
     78  CB      -119.6900   14.7130   41.0330 C.3   352  ILE352      0.0252
     79  CG1     -118.8320   15.5910   41.9520 C.3   352  ILE352      0.0019
     80  CG2     -120.3920   15.5890   40.0010 C.3   352  ILE352      0.0019
     81  CD1     -117.7260   16.3800   41.2370 C.3   352  ILE352      0.0001
     82  N       -107.3270   18.4980   50.4780 N.3   416  PHE416     -0.1241
     83  CA      -108.7710   18.4160   50.6910 C.3   416  PHE416      0.1605
     84  C       -109.2360   18.4080   52.1270 C.2   416  PHE416      0.2264
     85  O       -110.4560   18.4660   52.4100 O.2   416  PHE416     -0.2867
     86  CB      -109.2940   17.1610   50.0270 C.3   416  PHE416      0.0534
     87  CG      -109.0830   17.1540   48.5440 C.ar  416  PHE416     -0.0203
     88  CD1     -109.9280   17.8800   47.7200 C.ar  416  PHE416     -0.0042
     89  CD2     -108.0460   16.4470   47.9790 C.ar  416  PHE416     -0.0042
     90  CE1     -109.7470   17.8850   46.3560 C.ar  416  PHE416     -0.0003
     91  CE2     -107.8660   16.4370   46.6050 C.ar  416  PHE416     -0.0003
     92  CZ      -108.7160   17.1490   45.7960 C.ar  416  PHE416     -0.0000
     93  N       -113.9590    8.2170   34.0940 N.3   445  LEU445     -0.1245
     94  CA      -114.2780    9.5200   33.5370 C.3   445  LEU445      0.1561
     95  C       -114.0860    9.4820   32.0250 C.2   445  LEU445      0.2260
     96  O       -113.6560   10.4540   31.4000 O.2   445  LEU445     -0.2867
     97  CB      -113.3460   10.5720   34.1680 C.3   445  LEU445      0.0270
     98  CG      -113.2520   10.6040   35.7030 C.3   445  LEU445      0.0019
     99  CD1     -112.2530   11.6710   36.1430 C.3   445  LEU445      0.0001
    100  CD2     -114.6200   10.8650   36.3080 C.3   445  LEU445      0.0001
    101  N       -102.3790    9.0820   34.9940 N.3   485  TYR485     -0.1241
    102  CA      -103.1140   10.3510   34.9850 C.3   485  TYR485      0.1605
    103  C       -102.2040   11.3960   35.6930 C.2   485  TYR485      0.2264
    104  O       -102.1950   11.4850   36.9190 O.2   485  TYR485     -0.2867
    105  CB      -104.4240   10.1280   35.7230 C.3   485  TYR485      0.0534
    106  CG      -105.5650   11.0960   35.4330 C.ar  485  TYR485     -0.0201
    107  CD1     -105.3740   12.4700   35.3930 C.ar  485  TYR485     -0.0009
    108  CD2     -106.8580   10.6210   35.2820 C.ar  485  TYR485     -0.0009
    109  CE1     -106.4350   13.3250   35.1630 C.ar  485  TYR485      0.0417
    110  CE2     -107.9260   11.4760   35.0700 C.ar  485  TYR485      0.0417
    111  CZ      -107.7190   12.8170   35.0150 C.ar  485  TYR485      0.1957
    112  OH      -108.7890   13.6240   34.7930 O.3   485  TYR485     -0.2866
    113  N       -104.3150   17.1640   37.1370 N.3   488  PRO488     -0.2102
    114  CA      -105.6340   17.6370   36.7320 C.3   488  PRO488      0.1504
    115  C       -105.6110   18.2530   35.3460 C.2   488  PRO488      0.2576
    116  O       -104.7660   19.1100   35.0600 O.2   488  PRO488     -0.2718
    117  CB      -105.9690   18.7000   37.7880 C.3   488  PRO488      0.0282
    118  CG      -104.6320   19.1780   38.2920 C.3   488  PRO488      0.0208
    119  CD      -103.7040   17.9990   38.1830 C.3   488  PRO488      0.0893
    120  N       -106.5450   17.8420   34.4940 N.am  489  GLY489     -0.1957
    121  CA      -106.7620   18.5160   33.2130 C.3   489  GLY489      0.1869
    122  C       -106.0550   17.8940   32.0530 C.2   489  GLY489      0.2309
    123  O       -106.1410   18.4040   30.9290 O.2   489  GLY489     -0.2863
    124  N       -106.8100   14.9860   30.4400 N.3   491  PRO491     -0.2116
    125  CA      -107.7180   14.5140   29.3920 C.3   491  PRO491      0.1372
    126  C       -108.2060   15.6360   28.4800 C.2   491  PRO491      0.2244
    127  O       -108.2100   15.4730   27.2590 O.2   491  PRO491     -0.2868
    128  CB      -108.8920   13.9130   30.1840 C.3   491  PRO491      0.0268
    129  CG      -108.2840   13.4810   31.4630 C.3   491  PRO491      0.0207
    130  CD      -107.2060   14.4980   31.7660 C.3   491  PRO491      0.0892
@<TRIPOS>BOND
     1   127   126    2
     2   126   125    1
     3   125   128    1
     4   125   124    1
     5   128   129    1
     6   124   130    1
     7   123   122    2
     8    96    95    2
     9   129   130    1
    10    95    94    1
    11   122   121    1
    12     6     5    1
    13     5     2    1
    14    14    13    2
    15     1     2    1
    16   121   120    1
    17    30    31    2
    18    30    29    1
    19    13    12    1
    20    94    93    1
    21    94    97    1
    22     2     3    1
    23    29    28    1
    24    29    32    1
    25    97    98    1
    26    11    12    1
    27   120   115   am
    28     4     3    2
    29     3     7   am
    30    12    15    1
    31   112   111    1
    32   102   101    1
    33   102   103    1
    34   102   105    1
    35   111   110   ar
    36   111   109   ar
    37   116   115    2
    38   110   108   ar
    39   109   107   ar
    40   108   106   ar
    41    32    33    1
    42   115   114    1
    43   107   106   ar
    44     9    10    2
    45     9     8    1
    46   106   105    1
    47     7     8    1
    48   103   104    2
    49    98    99    1
    50    98   100    1
    51    15    16    1
    52    33    34    2
    53    33    35   am
    54   114   113    1
    55   114   117    1
    56   113   119    1
    57   117   118    1
    58    65    64    1
    59   119   118    1
    60    63    64   ar
    61    63    61   ar
    62    64    62   ar
    63    61    59   ar
    64    45    43   ar
    65    45    46   ar
    66    43    41   ar
    67    46    44   ar
    68    80    78    1
    69    40    41    1
    70    40    37    1
    71    41    42   ar
    72    62    60   ar
    73    77    76    2
    74    44    42   ar
    75    59    60   ar
    76    59    58    1
    77    20    19    2
    78    36    37    1
    79    56    57    2
    80    56    55    1
    81    76    75    1
    82    37    38    1
    83    78    75    1
    84    78    79    1
    85    81    79    1
    86    21    22    1
    87    21    18    1
    88    58    55    1
    89    23    22   ar
    90    23    25   ar
    91    22    24   ar
    92    75    74    1
    93    55    54    1
    94    25    27   ar
    95    19    18    1
    96    17    18    1
    97    24    26   ar
    98    27    26   ar
    99    38    39    2
   100    53    51    1
   101    51    52    1
   102    51    48    1
   103    48    47    1
   104    48    49    1
   105    72    70    1
   106    69    68    2
   107    92    90   ar
   108    92    91   ar
   109    49    50    2
   110    68    67    1
   111    90    88   ar
   112    70    67    1
   113    70    71    1
   114    73    71    1
   115    91    89   ar
   116    67    66    1
   117    88    87   ar
   118    89    87   ar
   119    87    86    1
   120    86    83    1
   121    82    83    1
   122    83    84    1
   123    84    85    2
