@<TRIPOS>MOLECULE
tmp/4c3yE01.pdb
 90 90 0 0 0
SMALL
GASTEIGER

@<TRIPOS>ATOM
      1  N       -121.8830   33.9890   32.3360 N.3   136  ASP136     -0.1225
      2  CA      -123.2710   34.3980   32.4150 C.3   136  ASP136      0.1790
      3  C       -123.9190   33.9090   31.1510 C.2   136  ASP136      0.2440
      4  O       -123.5150   34.3080   30.0450 O.2   136  ASP136     -0.2733
      5  CB      -123.3780   35.9200   32.5160 C.3   136  ASP136      0.1423
      6  CG      -124.8340   36.4340   32.6100 C.2   136  ASP136      0.3668
      7  OD1     -125.8110   35.6770   32.3730 O.co2 136  ASP136     -0.2456
      8  OD2     -124.9790   37.6320   32.9100 O.co2 136  ASP136     -0.2456
      9  N       -124.9680   33.0740   31.2900 N.am  137  PRO137     -0.2718
     10  CA      -125.5920   32.4580   30.1230 C.3   137  PRO137      0.1535
     11  C       -126.1850   33.4470   29.1250 C.2   137  PRO137      0.2598
     12  O       -126.3090   33.1230   27.9440 O.2   137  PRO137     -0.2715
     13  CB      -126.6810   31.5630   30.7330 C.3   137  PRO137      0.0310
     14  CG      -126.8310   32.0150   32.1290 C.3   137  PRO137      0.0237
     15  CD      -125.5110   32.5500   32.5510 C.3   137  PRO137      0.0939
     16  N       -126.5920   34.6110   29.6030 N.am  138  ALA138     -0.1978
     17  CA      -127.1350   35.6230   28.7180 C.3   138  ALA138      0.1597
     18  C       -126.0930   36.1160   27.7080 C.2   138  ALA138      0.2287
     19  O       -126.4540   36.6080   26.6590 O.2   138  ALA138     -0.2864
     20  CB      -127.6760   36.7940   29.5250 C.3   138  ALA138      0.0319
     21  N       -126.3680   34.0460   24.2770 N.3   141  GLY141     -0.1210
     22  CA      -127.6720   33.9420   23.6330 C.3   141  GLY141      0.1956
     23  C       -128.2830   32.5620   23.7490 C.2   141  GLY141      0.2611
     24  O       -128.2330   31.9370   24.8110 O.2   141  GLY141     -0.2717
     25  N       -128.8200   32.0810   22.6270 N.am  142  ASP142     -0.1973
     26  CA      -129.5490   30.8150   22.5680 C.3   142  ASP142      0.1709
     27  C       -128.6610   29.5770   22.7030 C.2   142  ASP142      0.2293
     28  O       -129.1760   28.4500   22.8070 O.2   142  ASP142     -0.2864
     29  CB      -130.3400   30.7250   21.2590 C.3   142  ASP142      0.1436
     30  CG      -129.4440   30.7570   20.0140 C.2   142  ASP142      0.3671
     31  OD1     -128.4870   31.5630   19.9700 O.co2 142  ASP142     -0.2456
     32  OD2     -129.7040   29.9670   19.0730 O.co2 142  ASP142     -0.2456
     33  N       -126.7160   28.7800   25.2720 N.3   144  ALA144     -0.1231
     34  CA      -126.6440   28.2590   26.6280 C.3   144  ALA144      0.1694
     35  C       -127.5550   27.0470   26.8050 C.2   144  ALA144      0.2592
     36  O       -127.1480   26.0240   27.3630 O.2   144  ALA144     -0.2718
     37  CB      -126.9900   29.3390   27.6090 C.3   144  ALA144      0.0304
     38  N       -128.7560   27.1340   26.2650 N.am  145  GLY145     -0.1957
     39  CA      -129.7160   26.0520   26.3760 C.3   145  GLY145      0.1869
     40  C       -129.3450   24.8070   25.5820 C.2   145  GLY145      0.2309
     41  O       -129.9850   23.7620   25.7330 O.2   145  GLY145     -0.2863
     42  N       -132.6590   20.4710   33.7920 N.3   159  ASP159     -0.1225
     43  CA      -131.7580   21.3010   33.0010 C.3   159  ASP159      0.1805
     44  C       -130.8550   22.1180   33.9440 C.2   159  ASP159      0.2598
     45  O       -130.7610   21.7880   35.1420 O.2   159  ASP159     -0.2718
     46  CB      -132.5770   22.2230   32.1320 C.3   159  ASP159      0.1424
     47  CG      -132.0890   22.2580   30.7040 C.2   159  ASP159      0.3668
     48  OD1     -131.0070   22.8750   30.3810 O.co2 159  ASP159     -0.2456
     49  OD2     -132.8210   21.6570   29.9090 O.co2 159  ASP159     -0.2456
     50  N       -130.2300   23.1860   33.4360 N.am  160  HIS160     -0.1961
     51  CA      -129.3010   23.9970   34.2330 C.3   160  HIS160      0.1787
     52  C       -129.9540   24.5730   35.4470 C.2   160  HIS160      0.2620
     53  O       -131.0600   25.1160   35.3820 O.2   160  HIS160     -0.2715
     54  CB      -128.6870   25.1560   33.4260 C.3   160  HIS160      0.0785
     55  CG      -127.9280   24.7210   32.1890 C.ar  160  HIS160      0.0821
     56  ND1     -126.7730   24.0600   32.2520 N.ar  160  HIS160     -0.2267
     57  CD2     -128.2200   24.8810   30.8320 C.ar  160  HIS160      0.1154
     58  CE1     -126.3930   23.7360   31.0040 C.ar  160  HIS160      0.1986
     59  NE2     -127.2730   24.2490   30.1480 N.ar  160  HIS160     -0.2212
     60  N       -129.2400   24.4900   36.5620 N.am  161  ALA161     -0.1964
     61  CA      -129.6420   25.1630   37.7910 C.3   161  ALA161      0.1713
     62  C       -129.3080   26.6620   37.6920 C.2   161  ALA161      0.2458
     63  O       -128.5470   27.0720   36.8080 O.2   161  ALA161     -0.2730
     64  CB      -128.9590   24.5230   38.9980 C.3   161  ALA161      0.0333
     65  N       -129.8800   27.4790   38.5940 N.am  162  PRO162     -0.2716
     66  CA      -129.9430   28.9310   38.4250 C.3   162  PRO162      0.1536
     67  C       -128.6590   29.7270   38.5050 C.2   162  PRO162      0.2599
     68  O       -128.6750   30.9070   38.1420 O.2   162  PRO162     -0.2715
     69  CB      -130.8310   29.3760   39.5710 C.3   162  PRO162      0.0310
     70  CG      -131.6210   28.1810   39.9130 C.3   162  PRO162      0.0237
     71  CD      -130.6280   27.0710   39.7820 C.3   162  PRO162      0.0939
     72  N       -127.5490   29.1500   38.9300 N.am  163  GLY163     -0.1941
     73  CA      -126.3190   29.9480   38.9050 C.3   163  GLY163      0.1998
     74  C       -125.7310   30.3140   37.5320 C.2   163  GLY163      0.2481
     75  O       -126.3250   30.1040   36.4800 O.2   163  GLY163     -0.2729
     76  N       -124.5400   30.9100   37.5370 N.am  164  PRO164     -0.2715
     77  CA      -123.8090   31.0380   36.2830 C.3   164  PRO164      0.1536
     78  C       -123.3500   29.6660   35.7800 C.2   164  PRO164      0.2598
     79  O       -123.2780   28.7340   36.5510 O.2   164  PRO164     -0.2715
     80  CB      -122.5680   31.8660   36.6740 C.3   164  PRO164      0.0310
     81  CG      -122.4240   31.7080   38.1430 C.3   164  PRO164      0.0237
     82  CD      -123.8280   31.5390   38.6680 C.3   164  PRO164      0.0939
     83  N       -122.9940   29.5800   34.5140 N.am  165  MET165     -0.1978
     84  CA      -122.3940   28.4000   33.9860 C.3   165  MET165      0.1605
     85  C       -120.9270   28.3500   34.4260 C.2   165  MET165      0.2287
     86  O       -120.2020   29.3220   34.2620 O.2   165  MET165     -0.2864
     87  CB      -122.5150   28.4060   32.4590 C.3   165  MET165      0.0413
     88  CG      -123.9410   28.6090   31.9540 C.3   165  MET165      0.0598
     89  SD      -124.0050   28.7650   30.1610 S.3   165  MET165     -0.1393
     90  CE      -123.8230   27.0530   29.6610 C.3   165  MET165      0.0692
@<TRIPOS>BOND
     1    32    30   ar
     2    31    30   ar
     3    30    29    1
     4    29    26    1
     5    26    25    1
     6    26    27    1
     7    25    23   am
     8    27    28    2
     9    22    23    1
    10    22    21    1
    11    23    24    2
    12    33    34    1
    13    40    41    2
    14    40    39    1
    15    38    39    1
    16    38    35   am
    17    34    35    1
    18    34    37    1
    19    19    18    2
    20    35    36    2
    21    18    17    1
    22    12    11    2
    23    17    20    1
    24    17    16    1
    25    11    16   am
    26    11    10    1
    27    90    89    1
    28    49    47   ar
    29     4     3    2
    30    10    13    1
    31    10     9    1
    32    59    57   ar
    33    59    58   ar
    34    89    88    1
    35    48    47   ar
    36    47    46    1
    37    13    14    1
    38    57    55   ar
    39    58    56   ar
    40     3     9   am
    41     3     2    1
    42     9    15    1
    43    88    87    1
    44    14    15    1
    45    46    43    1
    46    55    56   ar
    47    55    54    1
    48     1     2    1
    49     7     6   ar
    50     2     5    1
    51    87    84    1
    52     5     6    1
    53     6     8   ar
    54    43    42    1
    55    43    44    1
    56    54    51    1
    57    50    44   am
    58    50    51    1
    59    44    45    2
    60    84    85    1
    61    84    83    1
    62    51    52    1
    63    86    85    2
    64    83    78   am
    65    53    52    2
    66    52    60   am
    67    78    77    1
    68    78    79    2
    69    77    80    1
    70    77    76    1
    71    75    74    2
    72    60    61    1
    73    80    81    1
    74    63    62    2
    75    74    76   am
    76    74    73    1
    77    76    82    1
    78    62    61    1
    79    62    65   am
    80    61    64    1
    81    68    67    2
    82    81    82    1
    83    66    67    1
    84    66    65    1
    85    66    69    1
    86    67    72   am
    87    65    71    1
    88    73    72    1
    89    69    70    1
    90    71    70    1
