@<TRIPOS>MOLECULE
tmp/4c49A00.pdb
 121 114 0 0 0
SMALL
GASTEIGER

@<TRIPOS>ATOM
      1  N        -12.1950   22.0950    5.4050 N.3     3  ALA3       -0.1231
      2  CA       -11.9780   20.7060    5.7940 C.3     3  ALA3        0.1694
      3  C        -13.2650   19.8880    5.8210 C.2     3  ALA3        0.2592
      4  O        -13.2730   18.7230    5.4260 O.2     3  ALA3       -0.2718
      5  CB       -11.3040   20.6480    7.1590 C.3     3  ALA3        0.0304
      6  N        -14.3500   20.5010    6.2820 N.am    4  SER4       -0.1952
      7  CA       -15.6400   19.8190    6.3300 C.3     4  SER4        0.1924
      8  C        -16.2620   19.6320    4.9510 C.2     4  SER4        0.2314
      9  O        -16.7630   18.5520    4.6340 O.2     4  SER4       -0.2863
     10  CB       -16.6140   20.5870    7.2300 C.3     4  SER4        0.2116
     11  OG       -16.8850   21.8750    6.7080 O.3     4  SER4       -0.2180
     12  N        -14.2130   16.9290    2.6960 N.3     7  VAL7       -0.1245
     13  CA       -14.3640   15.5240    3.0660 C.3     7  VAL7        0.1561
     14  C        -15.7700   15.0230    2.7560 C.2     7  VAL7        0.2260
     15  O        -15.9620   13.8510    2.4390 O.2     7  VAL7       -0.2867
     16  CB       -14.0450   15.2800    4.5600 C.3     7  VAL7        0.0252
     17  CG1      -15.1570   15.7970    5.4680 C.3     7  VAL7        0.0019
     18  CG2      -13.8230   13.8060    4.8010 C.3     7  VAL7        0.0019
     19  N         -6.6200    2.2110   13.2370 N.3   217  GLN217     -0.1245
     20  CA        -6.0070    3.4500   12.7710 C.3   217  GLN217      0.1566
     21  C         -4.5060    3.3600   12.9810 C.2   217  GLN217      0.2260
     22  O         -4.0370    3.0250   14.0690 O.2   217  GLN217     -0.2867
     23  CB        -6.5780    4.6680   13.5060 C.3   217  GLN217      0.0367
     24  CG        -6.2080    6.0010   12.8660 C.3   217  GLN217      0.0905
     25  CD        -6.6200    7.1970   13.7050 C.2   217  GLN217      0.2608
     26  OE1       -7.2650    7.0540   14.7430 O.2   217  GLN217     -0.2717
     27  NE2       -6.2350    8.3870   13.2610 N.am  217  GLN217     -0.0878
     28  N         -1.9490    9.7780    8.3270 N.3   225  THR225     -0.1218
     29  CA        -2.6320    8.7690    9.1350 C.3   225  THR225      0.1862
     30  C         -3.5750    7.9920    8.2170 C.2   225  THR225      0.2287
     31  O         -3.9730    8.5010    7.1700 O.2   225  THR225     -0.2866
     32  CB        -3.4110    9.3850   10.3090 C.3   225  THR225      0.1770
     33  OG1       -3.9160    8.3450   11.1560 O.3   225  THR225     -0.2211
     34  CG2       -4.5670   10.2450    9.8150 C.3   225  THR225      0.0375
     35  N         -6.9670    4.9360    8.0150 N.3   227  PHE227     -0.1241
     36  CA        -7.9780    4.0330    8.5830 C.3   227  PHE227      0.1605
     37  C         -8.1830    2.7910    7.7060 C.2   227  PHE227      0.2264
     38  O         -8.4170    2.9050    6.5030 O.2   227  PHE227     -0.2867
     39  CB        -9.3270    4.7440    8.7590 C.3   227  PHE227      0.0534
     40  CG        -9.3040    5.8730    9.7450 C.ar  227  PHE227     -0.0203
     41  CD1       -8.9800    7.1590    9.3500 C.ar  227  PHE227     -0.0042
     42  CD2       -9.6250    5.6460   11.0750 C.ar  227  PHE227     -0.0042
     43  CE1       -8.9670    8.1980   10.2670 C.ar  227  PHE227     -0.0003
     44  CE2       -9.6140    6.6770   11.9950 C.ar  227  PHE227     -0.0003
     45  CZ        -9.2850    7.9550   11.5930 C.ar  227  PHE227     -0.0000
     46  N        -18.5960   12.5160    8.2400 N.3   245  ARG245     -0.1245
     47  CA       -17.8480   13.1830    9.2960 C.3   245  ARG245      0.1562
     48  C        -18.2570   12.6770   10.6750 C.2   245  ARG245      0.2260
     49  O        -17.4140   12.4990   11.5540 O.2   245  ARG245     -0.2867
     50  CB       -18.0050   14.7020    9.2160 C.3   245  ARG245      0.0286
     51  CG       -17.0090   15.3360    8.2540 C.3   245  ARG245      0.0224
     52  CD       -17.0450   16.8470    8.2740 C.3   245  ARG245      0.1094
     53  NE       -18.1730   17.3970    7.5290 N.3   245  ARG245     -0.1314
     54  CZ       -19.2280   17.9960    8.0780 C.3   245  ARG245      0.1297
     55  NH1      -20.1980   18.4570    7.3020 N.3   245  ARG245     -0.1297
     56  NH2      -20.1980   18.4570    7.3020 N.3   245  ARG245      0.0000
     57  N        -16.5990    8.9410   11.3900 N.3   248  ILE248     -0.1231
     58  CA       -15.1670    8.9510   11.6970 C.3   248  ILE248      0.1692
     59  C        -14.9120    9.6880   13.0160 C.2   248  ILE248      0.2592
     60  O        -13.9630    9.3770   13.7350 O.2   248  ILE248     -0.2718
     61  CB       -14.3160    9.5520   10.5530 C.3   248  ILE248      0.0266
     62  CG1      -14.6540   11.0180   10.2930 C.3   248  ILE248      0.0019
     63  CG2      -14.4820    8.7170    9.2850 C.3   248  ILE248      0.0020
     64  CD1      -13.6770   11.6730    9.3380 C.3   248  ILE248      0.0001
     65  N        -15.7640   10.6590   13.3290 N.am  249  ASN249     -0.1974
     66  CA       -15.7160   11.3180   14.6300 C.3   249  ASN249      0.1688
     67  C        -16.0280   10.3190   15.7320 C.2   249  ASN249      0.2292
     68  O        -15.3340   10.2630   16.7450 O.2   249  ASN249     -0.2864
     69  CB       -16.7260   12.4680   14.7150 C.3   249  ASN249      0.1181
     70  CG       -16.1820   13.7810   14.1930 C.2   249  ASN249      0.2629
     71  OD1      -15.0690   14.1880   14.5270 O.2   249  ASN249     -0.2716
     72  ND2      -16.9940   14.4790   13.4040 N.am  249  ASN249     -0.0877
     73  N        -13.0540    7.7650   15.9660 N.3   252  SER252     -0.1217
     74  CA       -11.8950    8.3540   16.6380 C.3   252  SER252      0.1889
     75  C        -12.0130    8.3180   18.1590 C.2   252  SER252      0.2288
     76  O        -11.0500    7.9940   18.8550 O.2   252  SER252     -0.2866
     77  CB       -11.6920    9.7970   16.1720 C.3   252  SER252      0.2089
     78  OG       -10.6460   10.4220   16.8970 O.3   252  SER252     -0.2183
     79  N         -5.6630    9.9690    5.5180 N.3   350  PHE350     -0.1227
     80  CA        -5.8940   11.3530    5.9120 C.3   350  PHE350      0.1736
     81  C         -4.5950   12.0460    6.3090 C.2   350  PHE350      0.2595
     82  O         -3.5820   11.4040    6.5830 O.2   350  PHE350     -0.2718
     83  CB        -6.8680   11.4210    7.0930 C.3   350  PHE350      0.0547
     84  CG        -8.3190   11.3550    6.7050 C.ar  350  PHE350     -0.0202
     85  CD1       -8.9890   12.4950    6.2880 C.ar  350  PHE350     -0.0042
     86  CD2       -9.0200   10.1620    6.7780 C.ar  350  PHE350     -0.0042
     87  CE1      -10.3260   12.4440    5.9400 C.ar  350  PHE350     -0.0003
     88  CE2      -10.3550   10.1060    6.4310 C.ar  350  PHE350     -0.0003
     89  CZ       -11.0090   11.2500    6.0130 C.ar  350  PHE350     -0.0000
     90  N         -4.6630   13.3700    6.3640 N.am  351  ASP351     -0.1960
     91  CA        -3.6240   14.2030    6.9490 C.3   351  ASP351      0.1840
     92  C         -4.1050   14.7130    8.3030 C.2   351  ASP351      0.2622
     93  O         -5.1370   15.3770    8.3850 O.2   351  ASP351     -0.2715
     94  CB        -3.2910   15.3600    5.9990 C.3   351  ASP351      0.1450
     95  CG        -2.3700   16.3910    6.6220 C.2   351  ASP351      0.3671
     96  OD1       -1.5100   16.0090    7.4380 O.co2 351  ASP351     -0.2456
     97  OD2       -2.4950   17.5850    6.2800 O.co2 351  ASP351     -0.2456
     98  N         -3.3680   14.3840    9.3650 N.am  352  HIS352     -0.1973
     99  CA        -3.6990   14.8800   10.6990 C.3   352  HIS352      0.1656
    100  C         -3.7970   16.3930   10.7680 C.2   352  HIS352      0.2291
    101  O         -4.6540   16.9300   11.4710 O.2   352  HIS352     -0.2864
    102  CB        -2.6300   14.4460   11.7170 C.3   352  HIS352      0.0771
    103  CG        -2.8580   13.0970   12.3250 C.ar  352  HIS352      0.0820
    104  ND1       -3.9890   12.7880   13.0490 N.ar  352  HIS352     -0.2267
    105  CD2       -2.0750   11.9930   12.3620 C.ar  352  HIS352      0.1154
    106  CE1       -3.9060   11.5420   13.4820 C.ar  352  HIS352      0.1986
    107  NE2       -2.7550   11.0370   13.0770 N.ar  352  HIS352     -0.2212
    108  N         -6.6800   17.6120    7.8560 N.3   355  TRP355     -0.1241
    109  CA        -7.8670   16.7630    7.7120 C.3   355  TRP355      0.1605
    110  C         -8.3040   16.5150    6.2770 C.2   355  TRP355      0.2264
    111  O         -9.4510   16.1480    6.0320 O.2   355  TRP355     -0.2867
    112  CB        -9.0470   17.2510    8.5530 C.3   355  TRP355      0.0550
    113  CG        -8.7640   17.2100   10.0270 C.ar  355  TRP355      0.0003
    114  CD1       -7.8530   16.4070   10.6590 C.ar  355  TRP355      0.0946
    115  CD2       -9.4830   17.8860   11.0650 C.ar  355  TRP355      0.0152
    116  NE1       -7.9170   16.5920   12.0160 N.ar  355  TRP355     -0.2442
    117  CE2       -8.9140   17.4890   12.2940 C.ar  355  TRP355      0.0810
    118  CE3      -10.5370   18.8050   11.0750 C.ar  355  TRP355      0.0012
    119  CZ2       -9.3590   17.9860   13.5180 C.ar  355  TRP355      0.0191
    120  CZ3      -10.9740   19.2980   12.2920 C.ar  355  TRP355      0.0001
    121  CH2      -10.3890   18.8840   13.4940 C.ar  355  TRP355      0.0015
@<TRIPOS>BOND
     1    15    14    2
     2    12    13    1
     3    14    13    1
     4    13    16    1
     5    16    18    1
     6    16    17    1
     7     9     8    2
     8     8     7    1
     9     1     2    1
    10     4     3    2
    11    79    80    1
    12     2     3    1
    13     2     5    1
    14     3     6   am
    15    80    81    1
    16    80    83    1
    17    87    89   ar
    18    87    85   ar
    19    94    95    1
    20    94    91    1
    21    89    88   ar
    22   111   110    2
    23   110   109    1
    24    97    95   ar
    25     6     7    1
    26    85    84   ar
    27    81    90   am
    28    81    82    2
    29     7    10    1
    30    90    91    1
    31    88    86   ar
    32    38    37    2
    33    95    96   ar
    34    84    86   ar
    35    84    83    1
    36    11    10    1
    37    91    92    1
    38    31    30    2
    39    55    54    1
    40    53    52    1
    41    37    36    1
    42   109   108    1
    43   109   112    1
    44    35    36    1
    45    30    29    1
    46    46    47    1
    47    51    52    1
    48    51    50    1
    49    92    93    2
    50    92    98   am
    51    28    29    1
    52   112   113    1
    53    36    39    1
    54    39    40    1
    55    29    32    1
    56    50    47    1
    57    63    61    1
    58    47    48    1
    59    64    62    1
    60    41    40   ar
    61    41    43   ar
    62    98    99    1
    63    40    42   ar
    64    34    32    1
    65   113   114   ar
    66   113   115   ar
    67    43    45   ar
    68    62    61    1
    69    32    33    1
    70    61    58    1
    71   114   116   ar
    72    48    49    2
    73    99   100    1
    74    99   102    1
    75   100   101    2
    76   115   118   ar
    77   115   117   ar
    78    42    44   ar
    79   118   120   ar
    80    57    58    1
    81    45    44   ar
    82    58    59    1
    83   102   103    1
    84   116   117   ar
    85   120   121   ar
    86   117   119   ar
    87   103   105   ar
    88   103   104   ar
    89   105   107   ar
    90    20    21    1
    91    20    19    1
    92    20    23    1
    93    24    23    1
    94    24    25    1
    95    21    22    2
    96    59    65   am
    97    59    60    2
    98   104   106   ar
    99   107   106   ar
   100    27    25   am
   101    65    66    1
   102    72    70   am
   103   121   119   ar
   104    25    26    2
   105    70    71    2
   106    70    69    1
   107    66    69    1
   108    66    67    1
   109    67    68    2
   110    73    74    1
   111    77    74    1
   112    77    78    1
   113    74    75    1
   114    75    76    2
