@<TRIPOS>MOLECULE
tmp/4c4aA01.pdb
 130 129 0 0 0
SMALL
GASTEIGER

@<TRIPOS>ATOM
      1  N          0.0660   39.6980   59.7910 N.3   425  ARG425     -0.1245
      2  CA        -0.1830   38.2720   60.0260 C.3   425  ARG425      0.1563
      3  C         -1.5720   37.9840   59.4860 C.2   425  ARG425      0.2260
      4  O         -2.4980   38.7410   59.7630 O.2   425  ARG425     -0.2867
      5  CB        -0.0850   37.9180   61.5070 C.3   425  ARG425      0.0307
      6  CG         1.3170   38.0660   62.0980 C.3   425  ARG425      0.0489
      7  CD         1.3920   37.4690   63.4980 C.3   425  ARG425      0.2205
      8  NE         0.9910   36.0590   63.5190 N.pl3 425  ARG425     -0.0865
      9  CZ         1.8110   35.0350   63.2960 C.cat 425  ARG425      0.5346
     10  NH1        3.0930   35.2470   63.0320 N.pl3 425  ARG425      0.1354
     11  NH2        1.3490   33.7910   63.3400 N.pl3 425  ARG425      0.1354
     12  N          3.9840   27.5980   54.3330 N.3   448  PHE448     -0.1241
     13  CA         4.5170   28.6930   55.1430 C.3   448  PHE448      0.1605
     14  C          5.9790   28.4500   55.4290 C.2   448  PHE448      0.2264
     15  O          6.3920   27.3130   55.6710 O.2   448  PHE448     -0.2867
     16  CB         3.6990   28.8460   56.4280 C.3   448  PHE448      0.0534
     17  CG         2.2430   29.0980   56.1460 C.ar  448  PHE448     -0.0203
     18  CD1        1.7890   30.3860   55.8770 C.ar  448  PHE448     -0.0042
     19  CD2        1.3530   28.0490   56.0700 C.ar  448  PHE448     -0.0042
     20  CE1        0.4580   30.6210   55.5730 C.ar  448  PHE448     -0.0003
     21  CE2        0.0180   28.2740   55.7580 C.ar  448  PHE448     -0.0003
     22  CZ        -0.4280   29.5550   55.5120 C.ar  448  PHE448     -0.0000
     23  N          7.9820   29.0570   57.8850 N.3   450  THR450     -0.1218
     24  CA         8.3810   28.5470   59.1970 C.3   450  THR450      0.1862
     25  C          7.9710   27.0940   59.4670 C.2   450  THR450      0.2287
     26  O          8.3970   26.5140   60.4620 O.2   450  THR450     -0.2866
     27  CB         7.8070   29.4290   60.3320 C.3   450  THR450      0.1770
     28  OG1        6.3810   29.4650   60.2320 O.3   450  THR450     -0.2211
     29  CG2        8.3500   30.8520   60.2300 C.3   450  THR450      0.0375
     30  N          2.3380   18.9230   59.0500 N.3   455  TRP455     -0.1227
     31  CA         1.0760   19.4720   59.5570 C.3   455  TRP455      0.1737
     32  C          1.1880   20.9090   60.0430 C.2   455  TRP455      0.2595
     33  O          0.1810   21.5160   60.4290 O.2   455  TRP455     -0.2718
     34  CB         0.5160   18.5990   60.6840 C.3   455  TRP455      0.0564
     35  CG         1.5430   18.1400   61.6880 C.ar  455  TRP455      0.0003
     36  CD1        1.8910   18.7560   62.8560 C.ar  455  TRP455      0.0946
     37  CD2        2.3310   16.9440   61.6120 C.ar  455  TRP455      0.0152
     38  NE1        2.8530   18.0090   63.5150 N.ar  455  TRP455     -0.2442
     39  CE2        3.1350   16.8960   62.7690 C.ar  455  TRP455      0.0810
     40  CE3        2.4300   15.9090   60.6760 C.ar  455  TRP455      0.0012
     41  CZ2        4.0380   15.8520   63.0120 C.ar  455  TRP455      0.0191
     42  CZ3        3.3200   14.8640   60.9250 C.ar  455  TRP455      0.0001
     43  CH2        4.1120   14.8510   62.0780 C.ar  455  TRP455      0.0015
     44  N          2.3950   21.4750   60.0300 N.am  456  HIS456     -0.1975
     45  CA         2.5080   22.8870   60.4010 C.3   456  HIS456      0.1656
     46  C          1.7600   23.7680   59.3960 C.2   456  HIS456      0.2291
     47  O          1.3120   24.8680   59.7330 O.2   456  HIS456     -0.2864
     48  CB         3.9820   23.3050   60.5170 C.3   456  HIS456      0.0771
     49  CG         4.6430   22.8020   61.7620 C.ar  456  HIS456      0.0820
     50  ND1        6.0120   22.7460   61.9130 N.ar  456  HIS456     -0.2267
     51  CD2        4.1160   22.3490   62.9250 C.ar  456  HIS456      0.1154
     52  CE1        6.3010   22.2680   63.1110 C.ar  456  HIS456      0.1986
     53  NE2        5.1680   22.0210   63.7450 N.ar  456  HIS456     -0.2212
     54  N         -1.0880   23.4010   58.4320 N.3   458  LEU458     -0.1231
     55  CA        -2.4680   23.5750   58.9060 C.3   458  LEU458      0.1693
     56  C         -2.6950   24.9660   59.4990 C.2   458  LEU458      0.2592
     57  O         -3.8120   25.3050   59.8900 O.2   458  LEU458     -0.2718
     58  CB        -2.8350   22.5180   59.9480 C.3   458  LEU458      0.0284
     59  CG        -2.9770   21.0920   59.4320 C.3   458  LEU458      0.0019
     60  CD1       -3.2730   20.1600   60.6050 C.3   458  LEU458      0.0001
     61  CD2       -4.0840   21.0390   58.3940 C.3   458  LEU458      0.0001
     62  N         -1.6360   25.7680   59.5840 N.am  459  TYR459     -0.1976
     63  CA        -1.7890   27.1810   59.9260 C.3   459  TYR459      0.1639
     64  C         -2.7920   27.8570   58.9850 C.2   459  TYR459      0.2290
     65  O         -3.5180   28.7740   59.3880 O.2   459  TYR459     -0.2864
     66  CB        -0.4220   27.8610   59.8750 C.3   459  TYR459      0.0560
     67  CG        -0.4210   29.3650   60.0500 C.ar  459  TYR459     -0.0198
     68  CD1       -0.8320   29.9590   61.2390 C.ar  459  TYR459     -0.0009
     69  CD2        0.0480   30.1840   59.0360 C.ar  459  TYR459     -0.0009
     70  CE1       -0.7970   31.3520   61.3990 C.ar  459  TYR459      0.0417
     71  CE2        0.0870   31.5630   59.1830 C.ar  459  TYR459      0.0417
     72  CZ        -0.3340   32.1410   60.3620 C.ar  459  TYR459      0.1957
     73  OH        -0.2730   33.5190   60.4890 O.3   459  TYR459     -0.2866
     74  N         -6.1170   27.5140   60.4490 N.3   462  TYR462     -0.1241
     75  CA        -6.2370   28.4570   61.5540 C.3   462  TYR462      0.1605
     76  C         -6.6140   29.8370   61.0300 C.2   462  TYR462      0.2264
     77  O         -7.4870   30.5160   61.5910 O.2   462  TYR462     -0.2867
     78  CB        -4.9310   28.5140   62.3490 C.3   462  TYR462      0.0534
     79  CG        -4.8740   29.6430   63.3490 C.ar  462  TYR462     -0.0201
     80  CD1       -5.5690   29.5730   64.5500 C.ar  462  TYR462     -0.0009
     81  CD2       -4.1180   30.7840   63.0910 C.ar  462  TYR462     -0.0009
     82  CE1       -5.5210   30.6150   65.4670 C.ar  462  TYR462      0.0417
     83  CE2       -4.0660   31.8270   64.0000 C.ar  462  TYR462      0.0417
     84  CZ        -4.7620   31.7340   65.1830 C.ar  462  TYR462      0.1957
     85  OH        -4.7010   32.7720   66.0810 O.3   462  TYR462     -0.2866
     86  N        -11.9260   25.3740   62.6660 N.3   556  ILE556     -0.1245
     87  CA       -11.2460   24.4080   63.5230 C.3   556  ILE556      0.1561
     88  C        -12.0590   24.1450   64.7840 C.2   556  ILE556      0.2260
     89  O        -12.4930   25.0880   65.4540 O.2   556  ILE556     -0.2867
     90  CB        -9.8440   24.9030   63.9210 C.3   556  ILE556      0.0252
     91  CG1       -8.9550   25.0130   62.6900 C.3   556  ILE556      0.0019
     92  CG2       -9.2020   23.9560   64.9210 C.3   556  ILE556      0.0019
     93  CD1       -7.5470   25.4830   62.9990 C.3   556  ILE556      0.0001
     94  N         -4.5750   15.7230   67.3350 N.3   627  PHE627     -0.1241
     95  CA        -4.3290   17.0930   66.8840 C.3   627  PHE627      0.1605
     96  C         -4.8500   18.0720   67.9330 C.2   627  PHE627      0.2264
     97  O         -5.9870   17.9520   68.3940 O.2   627  PHE627     -0.2867
     98  CB        -4.9910   17.3410   65.5250 C.3   627  PHE627      0.0534
     99  CG        -5.0970   18.7950   65.1560 C.ar  627  PHE627     -0.0203
    100  CD1       -4.0030   19.4760   64.6540 C.ar  627  PHE627     -0.0042
    101  CD2       -6.2920   19.4780   65.3200 C.ar  627  PHE627     -0.0042
    102  CE1       -4.0990   20.8130   64.3170 C.ar  627  PHE627     -0.0003
    103  CE2       -6.3940   20.8080   64.9880 C.ar  627  PHE627     -0.0003
    104  CZ        -5.3000   21.4790   64.4850 C.ar  627  PHE627     -0.0000
    105  N         -5.8210   21.8300   68.7100 N.3   629  PRO629     -0.2102
    106  CA        -6.2160   23.0620   68.0110 C.3   629  PRO629      0.1504
    107  C         -5.6550   24.3680   68.5900 C.2   629  PRO629      0.2576
    108  O         -5.5260   25.3390   67.8440 O.2   629  PRO629     -0.2718
    109  CB        -7.7460   23.0490   68.1260 C.3   629  PRO629      0.0282
    110  CG        -8.0420   22.1730   69.2830 C.3   629  PRO629      0.0208
    111  CD        -6.9840   21.1160   69.2580 C.3   629  PRO629      0.0893
    112  N         -5.3450   24.4060   69.8810 N.am  630  LEU630     -0.1966
    113  CA        -4.7690   25.6130   70.4670 C.3   630  LEU630      0.1728
    114  C         -3.3410   25.8420   69.9740 C.2   630  LEU630      0.2617
    115  O         -2.9310   26.9770   69.7320 O.2   630  LEU630     -0.2715
    116  CB        -4.7790   25.5410   71.9940 C.3   630  LEU630      0.0311
    117  CG        -6.1350   25.4030   72.6760 C.3   630  LEU630      0.0022
    118  CD1       -5.9570   25.3390   74.1840 C.3   630  LEU630      0.0001
    119  CD2       -7.0470   26.5550   72.2820 C.3   630  LEU630      0.0001
    120  N         -2.5860   24.7630   69.8160 N.am  631  THR631     -0.1937
    121  CA        -1.1810   24.8750   69.4370 C.3   631  THR631      0.2028
    122  C         -0.8900   24.4660   67.9960 C.2   631  THR631      0.2642
    123  O          0.1140   24.8910   67.4120 O.2   631  THR631     -0.2714
    124  CB        -0.3040   24.0150   70.3480 C.3   631  THR631      0.1808
    125  OG1       -0.7280   22.6490   70.2490 O.3   631  THR631     -0.2208
    126  CG2       -0.4290   24.4770   71.7870 C.3   631  THR631      0.0379
    127  N         -1.7460   23.6200   67.4300 N.am  632  GLY632     -0.1954
    128  CA        -1.4960   23.0740   66.1090 C.3   632  GLY632      0.1869
    129  C         -0.6070   21.8400   66.1610 C.2   632  GLY632      0.2309
    130  O         -0.2860   21.2530   65.1290 O.2   632  GLY632     -0.2863
@<TRIPOS>BOND
     1    12    13    1
     2    13    14    1
     3    13    16    1
     4    14    15    2
     5    22    20   ar
     6    22    21   ar
     7    20    18   ar
     8    21    19   ar
     9    18    17   ar
    10    19    17   ar
    11    17    16    1
    12    23    24    1
    13    61    59    1
    14    54    55    1
    15    55    56    1
    16    55    58    1
    17    64    65    2
    18    64    63    1
    19    69    71   ar
    20    69    67   ar
    21    30    31    1
    22    71    72   ar
    23    24    25    1
    24    24    27    1
    25    46    47    2
    26    46    45    1
    27    59    58    1
    28    59    60    1
    29    25    26    2
    30     3     4    2
    31     3     2    1
    32    56    62   am
    33    56    57    2
    34    31    32    1
    35    31    34    1
    36    62    63    1
    37     1     2    1
    38    66    63    1
    39    66    67    1
    40     2     5    1
    41    44    32   am
    42    44    45    1
    43    32    33    2
    44    67    68   ar
    45    29    27    1
    46    28    27    1
    47    72    73    1
    48    72    70   ar
    49    45    48    1
    50    74    75    1
    51    48    49    1
    52    40    42   ar
    53    40    37   ar
    54    34    35    1
    55    42    43   ar
    56    76    75    1
    57    76    77    2
    58    68    70   ar
    59     5     6    1
    60    75    78    1
    61    37    35   ar
    62    37    39   ar
    63    35    36   ar
    64    49    50   ar
    65    49    51   ar
    66    50    52   ar
    67    43    41   ar
    68     6     7    1
    69    78    79    1
    70    86    87    1
    71    91    93    1
    72    91    90    1
    73    39    41   ar
    74    39    38   ar
    75    36    38   ar
    76    51    53   ar
    77    10     9    1
    78    81    79   ar
    79    81    83   ar
    80    52    53   ar
    81     9    11    1
    82     9     8    2
    83    79    80   ar
    84     7     8    1
    85    87    90    1
    86    87    88    1
    87    90    92    1
    88    83    84   ar
    89   102   104   ar
    90   102   100   ar
    91   104   103   ar
    92    80    82   ar
    93   100    99   ar
    94    88    89    2
    95   103   101   ar
    96   130   129    2
    97    99   101   ar
    98    99    98    1
    99    84    82   ar
   100    84    85    1
   101    98    95    1
   102   128   129    1
   103   128   127    1
   104    95    94    1
   105    95    96    1
   106   123   122    2
   107   127   122   am
   108   108   107    2
   109    96    97    2
   110   122   121    1
   111   106   109    1
   112   106   107    1
   113   106   105    1
   114   109   110    1
   115   107   112   am
   116   105   111    1
   117   111   110    1
   118   121   120    1
   119   121   124    1
   120   115   114    2
   121   120   114   am
   122   112   113    1
   123   114   113    1
   124   125   124    1
   125   124   126    1
   126   113   116    1
   127   116   117    1
   128   119   117    1
   129   117   118    1
