@<TRIPOS>MOLECULE
tmp/4c4aA00.pdb
 185 178 0 0 0
SMALL
GASTEIGER

@<TRIPOS>ATOM
      1  N         26.0640   11.6670   66.7080 N.3     9  TYR9       -0.1241
      2  CA        26.9520   10.7090   67.3650 C.3     9  TYR9        0.1605
      3  C         26.5960    9.2510   67.0640 C.2     9  TYR9        0.2264
      4  O         27.4870    8.4330   66.8460 O.2     9  TYR9       -0.2867
      5  CB        26.9570   10.9410   68.8750 C.3     9  TYR9        0.0534
      6  CG        27.4920   12.2990   69.2450 C.ar    9  TYR9       -0.0201
      7  CD1       28.8250   12.6220   69.0260 C.ar    9  TYR9       -0.0009
      8  CD2       26.6650   13.2610   69.8000 C.ar    9  TYR9       -0.0009
      9  CE1       29.3250   13.8770   69.3590 C.ar    9  TYR9        0.0417
     10  CE2       27.1490   14.5120   70.1360 C.ar    9  TYR9        0.0417
     11  CZ        28.4790   14.8150   69.9140 C.ar    9  TYR9        0.1957
     12  OH        28.9620   16.0570   70.2540 O.3     9  TYR9       -0.2866
     13  N         27.7800    8.2620   63.5860 N.3    12  MET12      -0.1230
     14  CA        29.2270    8.0740   63.5540 C.3    12  MET12       0.1702
     15  C         29.5880    6.6750   64.0280 C.2    12  MET12       0.2592
     16  O         30.3710    5.9800   63.3860 O.2    12  MET12      -0.2718
     17  CB        29.9410    9.1180   64.4190 C.3    12  MET12       0.0401
     18  CG        29.7360   10.5480   63.9570 C.3    12  MET12       0.0596
     19  SD        30.5870   11.7110   65.0390 S.3    12  MET12      -0.1393
     20  CE        29.4200   13.0590   65.0510 C.3    12  MET12       0.0692
     21  N         28.9940    6.2530   65.1400 N.am   13  LEU13      -0.1980
     22  CA        29.3600    4.9630   65.7330 C.3    13  LEU13       0.1596
     23  C         29.0140    3.8170   64.7860 C.2    13  LEU13       0.2287
     24  O         29.6790    2.7780   64.7850 O.2    13  LEU13      -0.2864
     25  CB        28.6770    4.7700   67.0860 C.3    13  LEU13       0.0297
     26  CG        29.1360    5.7010   68.2110 C.3    13  LEU13       0.0022
     27  CD1       28.2640    5.5130   69.4560 C.3    13  LEU13       0.0001
     28  CD2       30.6180    5.4790   68.5480 C.3    13  LEU13       0.0001
     29  N         34.3780    4.5880   58.3730 N.3    18  ARG18      -0.1245
     30  CA        35.0640    5.6180   59.1570 C.3    18  ARG18       0.1563
     31  C         35.8640    5.0440   60.3310 C.2    18  ARG18       0.2260
     32  O         37.0280    5.3870   60.5570 O.2    18  ARG18      -0.2867
     33  CB        34.0490    6.6240   59.6990 C.3    18  ARG18       0.0307
     34  CG        34.6710    7.7760   60.4750 C.3    18  ARG18       0.0489
     35  CD        33.5860    8.5190   61.2450 C.3    18  ARG18       0.2205
     36  NE        33.5220    8.0020   62.6060 N.pl3  18  ARG18      -0.0865
     37  CZ        33.6580    8.7540   63.6890 C.cat  18  ARG18       0.5346
     38  NH1       33.8220   10.0720   63.5640 N.pl3  18  ARG18       0.1354
     39  NH2       33.6140    8.1950   64.8890 N.pl3  18  ARG18       0.1354
     40  N         43.5990   14.6480   71.0050 N.3    44  ASP44      -0.1225
     41  CA        42.3990   14.2580   70.2630 C.3    44  ASP44       0.1805
     42  C         41.4160   15.4170   70.3410 C.2    44  ASP44       0.2598
     43  O         40.7810   15.5940   71.3720 O.2    44  ASP44      -0.2718
     44  CB        41.8200   12.9670   70.8770 C.3    44  ASP44       0.1424
     45  CG        40.4930   12.5470   70.2800 C.2    44  ASP44       0.3668
     46  OD1       40.0360   13.1530   69.2900 O.co2  44  ASP44      -0.2456
     47  OD2       39.9280   11.5440   70.8100 O.co2  44  ASP44      -0.2456
     48  N         41.3300   16.2350   69.2870 N.am   45  ILE45      -0.1966
     49  CA        40.4680   17.4210   69.3340 C.3    45  ILE45       0.1727
     50  C         39.0590   17.0720   68.8970 C.2    45  ILE45       0.2617
     51  O         38.8410   16.6620   67.7590 O.2    45  ILE45      -0.2715
     52  CB        41.0090   18.5470   68.4500 C.3    45  ILE45       0.0290
     53  CG1       42.4440   18.8630   68.8740 C.3    45  ILE45       0.0022
     54  CG2       40.1120   19.8040   68.5500 C.3    45  ILE45       0.0023
     55  CD1       43.0800   19.9780   68.0780 C.3    45  ILE45       0.0001
     56  N         38.1110   17.2710   69.8070 N.am   46  GLY46      -0.1940
     57  CA        36.7090   16.9810   69.5520 C.3    46  GLY46       0.2014
     58  C         36.4210   15.5140   69.7940 C.2    46  GLY46       0.2640
     59  O         35.9460   14.8030   68.8950 O.2    46  GLY46      -0.2714
     60  N         36.6850   15.0650   71.0180 N.am   47  THR47      -0.1936
     61  CA        36.7570   13.6330   71.2760 C.3    47  THR47       0.2028
     62  C         35.3980   12.9190   71.2680 C.2    47  THR47       0.2643
     63  O         35.3420   11.7010   71.0640 O.2    47  THR47      -0.2714
     64  CB        37.4890   13.3650   72.6210 C.3    47  THR47       0.1808
     65  OG1       37.9450   12.0040   72.6700 O.3    47  THR47      -0.2208
     66  CG2       36.5960   13.6600   73.8230 C.3    47  THR47       0.0379
     67  N         34.3030   13.6520   71.4450 N.am   48  GLY48      -0.1939
     68  CA        32.9920   13.0120   71.4520 C.3    48  GLY48       0.2014
     69  C         32.8840   11.9310   72.5260 C.2    48  GLY48       0.2639
     70  O         32.9970   12.2120   73.7160 O.2    48  GLY48      -0.2714
     71  N         32.6810   10.6820   72.0980 N.am   49  THR49      -0.1950
     72  CA        32.6100    9.5450   73.0150 C.3    49  THR49       0.1897
     73  C         33.9430    9.1770   73.6650 C.2    49  THR49       0.2313
     74  O         33.9790    8.4430   74.6590 O.2    49  THR49      -0.2863
     75  CB        32.1180    8.2870   72.2940 C.3    49  THR49       0.1794
     76  OG1       33.0200    7.9970   71.2170 O.3    49  THR49      -0.2208
     77  CG2       30.7130    8.4900   71.7440 C.3    49  THR49       0.0378
     78  N         36.1200    7.6400   71.6280 N.3    51  LEU51      -0.1231
     79  CA        36.4950    6.4860   70.7790 C.3    51  LEU51       0.1693
     80  C         37.9320    6.5230   70.2380 C.2    51  LEU51       0.2591
     81  O         38.6840    5.5510   70.3930 O.2    51  LEU51      -0.2718
     82  CB        35.5200    6.3720   69.5930 C.3    51  LEU51       0.0284
     83  CG        35.7480    5.1750   68.6580 C.3    51  LEU51       0.0019
     84  CD1       35.4540    3.8930   69.3940 C.3    51  LEU51       0.0001
     85  CD2       34.8870    5.2900   67.4020 C.3    51  LEU51       0.0001
     86  N         38.3280    7.6340   69.6140 N.am   52  LEU52      -0.1980
     87  CA        39.6210    7.6580   68.9320 C.3    52  LEU52       0.1596
     88  C         40.7730    7.6440   69.9400 C.2    52  LEU52       0.2287
     89  O         41.8320    7.0880   69.6590 O.2    52  LEU52      -0.2864
     90  CB        39.7290    8.8710   67.9970 C.3    52  LEU52       0.0297
     91  CG        38.6080    8.9660   66.9410 C.3    52  LEU52       0.0022
     92  CD1       38.8080   10.1680   66.0300 C.3    52  LEU52       0.0001
     93  CD2       38.4570    7.6920   66.1040 C.3    52  LEU52       0.0001
     94  N         39.8700   16.4490   74.0160 N.3    67  ILE67      -0.1231
     95  CA        39.2600   17.7630   74.1950 C.3    67  ILE67       0.1692
     96  C         37.8380   17.7280   73.6540 C.2    67  ILE67       0.2592
     97  O         37.6170   17.2680   72.5410 O.2    67  ILE67      -0.2718
     98  CB        40.0640   18.8840   73.4610 C.3    67  ILE67       0.0266
     99  CG1       41.5830   18.6780   73.5840 C.3    67  ILE67       0.0019
    100  CG2       39.6470   20.2790   73.9670 C.3    67  ILE67       0.0020
    101  CD1       42.1170   18.5930   75.0120 C.3    67  ILE67       0.0001
    102  N         36.8760   18.2130   74.4290 N.am   68  GLU68      -0.1966
    103  CA        35.4830   18.2360   73.9760 C.3    68  GLU68       0.1733
    104  C         34.7760   19.4570   74.5280 C.2    68  GLU68       0.2616
    105  O         34.6210   19.5950   75.7390 O.2    68  GLU68      -0.2715
    106  CB        34.7420   16.9680   74.4060 C.3    68  GLU68       0.0429
    107  CG        33.2360   17.0020   74.1080 C.3    68  GLU68       0.1163
    108  CD        32.9250   17.2380   72.6290 C.2    68  GLU68       0.3649
    109  OE1       33.3200   16.4180   71.7730 O.co2  68  GLU68      -0.2457
    110  OE2       32.2920   18.2620   72.3070 O.co2  68  GLU68      -0.2457
    111  N         34.3380   20.3360   73.6360 N.am   69  VAL69      -0.1963
    112  CA        33.7510   21.6000   74.0600 C.3    69  VAL69       0.1727
    113  C         32.3340   21.4250   74.6260 C.2    69  VAL69       0.2616
    114  O         31.9130   22.1930   75.4860 O.2    69  VAL69      -0.2715
    115  CB        33.7200   22.6080   72.8860 C.3    69  VAL69       0.0290
    116  CG1       32.8000   22.1210   71.7580 C.3    69  VAL69       0.0023
    117  CG2       33.2960   23.9950   73.3640 C.3    69  VAL69       0.0023
    118  N         31.6190   20.3990   74.1640 N.am   70  PHE70      -0.1974
    119  CA        30.2160   20.2200   74.5270 C.3    70  PHE70       0.1639
    120  C         30.1160   19.4620   75.8580 C.2    70  PHE70       0.2290
    121  O         30.4730   18.2830   75.9390 O.2    70  PHE70      -0.2864
    122  CB        29.4900   19.4960   73.3920 C.3    70  PHE70       0.0560
    123  CG        27.9890   19.3750   73.5790 C.ar   70  PHE70      -0.0200
    124  CD1       27.2250   20.4620   73.9800 C.ar   70  PHE70      -0.0042
    125  CD2       27.3490   18.1790   73.3100 C.ar   70  PHE70      -0.0042
    126  CE1       25.8480   20.3460   74.1350 C.ar   70  PHE70      -0.0003
    127  CE2       25.9560   18.0600   73.4590 C.ar   70  PHE70      -0.0003
    128  CZ        25.2180   19.1440   73.8740 C.ar   70  PHE70      -0.0000
    129  N         36.6920   21.8880   77.2170 N.3    95  LYS95      -0.1231
    130  CA        37.0240   23.2170   76.7260 C.3    95  LYS95       0.1693
    131  C         36.9740   23.1740   75.2010 C.2    95  LYS95       0.2592
    132  O         37.0600   22.0960   74.5990 O.2    95  LYS95      -0.2718
    133  CB        38.4320   23.6520   77.1860 C.3    95  LYS95       0.0285
    134  CG        38.6010   23.8720   78.6800 C.3    95  LYS95       0.0035
    135  CD        40.0170   24.3730   78.9950 C.3    95  LYS95       0.0206
    136  CE        40.1900   24.6610   80.4790 C.3    95  LYS95       0.1093
    137  NZ        41.5570   25.1650   80.7870 N.3    95  LYS95      -0.1314
    138  N         36.8490   24.3380   74.5710 N.am   96  HIS96      -0.1962
    139  CA        37.1880   24.4510   73.1610 C.3    96  HIS96       0.1787
    140  C         38.7150   24.3620   73.0500 C.2    96  HIS96       0.2620
    141  O         39.4230   24.9240   73.8870 O.2    96  HIS96      -0.2715
    142  CB        36.6780   25.7700   72.5790 C.3    96  HIS96       0.0785
    143  CG        36.6630   25.8100   71.0840 C.ar   96  HIS96       0.0821
    144  ND1       37.7190   26.2940   70.3370 N.ar   96  HIS96      -0.2267
    145  CD2       35.7100   25.4370   70.1940 C.ar   96  HIS96       0.1154
    146  CE1       37.4190   26.2090   69.0500 C.ar   96  HIS96       0.1986
    147  NE2       36.2060   25.6950   68.9370 N.ar   96  HIS96      -0.2212
    148  N         39.2270   23.6750   72.0300 N.am   97  SER97      -0.1950
    149  CA        40.6770   23.4820   71.9230 C.3    97  SER97       0.1924
    150  C         41.4430   24.8120   71.8490 C.2    97  SER97       0.2314
    151  O         42.6010   24.8860   72.2660 O.2    97  SER97      -0.2863
    152  CB        41.0300   22.6150   70.7110 C.3    97  SER97       0.2116
    153  OG        40.7120   23.2590   69.4900 O.3    97  SER97      -0.2180
    154  N         38.4450   14.5640   64.4240 N.3   118  GLU118     -0.1231
    155  CA        37.3650   14.3580   63.4640 C.3   118  GLU118      0.1699
    156  C         36.4680   15.6000   63.5080 C.2   118  GLU118      0.2592
    157  O         35.3580   15.5590   64.0290 O.2   118  GLU118     -0.2718
    158  CB        36.5690   13.0800   63.7710 C.3   118  GLU118      0.0402
    159  CG        35.8390   12.4930   62.5450 C.3   118  GLU118      0.1161
    160  CD        34.5490   13.2270   62.1930 C.2   118  GLU118      0.3649
    161  OE1       34.6200   14.3790   61.6930 O.co2 118  GLU118     -0.2457
    162  OE2       33.4590   12.6320   62.3790 O.co2 118  GLU118     -0.2457
    163  N         36.9840   16.7100   62.9940 N.am  119  LEU119     -0.1980
    164  CA        36.3020   18.0030   63.0900 C.3   119  LEU119      0.1596
    165  C         35.5700   18.3810   61.7980 C.2   119  LEU119      0.2287
    166  O         35.2040   19.5400   61.6020 O.2   119  LEU119     -0.2864
    167  CB        37.3230   19.0960   63.4270 C.3   119  LEU119      0.0297
    168  CG        37.9880   18.9220   64.7950 C.3   119  LEU119      0.0022
    169  CD1       39.1160   19.9220   64.9540 C.3   119  LEU119      0.0001
    170  CD2       36.9470   19.0820   65.8950 C.3   119  LEU119      0.0001
    171  N         32.8850   23.4300   60.0740 N.3   127  GLU127     -0.1245
    172  CA        32.7680   23.4130   61.5260 C.3   127  GLU127      0.1567
    173  C         34.1080   23.7020   62.2000 C.2   127  GLU127      0.2260
    174  O         34.3650   23.2560   63.3150 O.2   127  GLU127     -0.2867
    175  CB        32.1670   22.0750   61.9890 C.3   127  GLU127      0.0388
    176  CG        30.6830   21.9980   61.5770 C.3   127  GLU127      0.1160
    177  CD        30.0000   20.6880   61.9270 C.2   127  GLU127      0.3649
    178  OE1       30.6940   19.7220   62.3040 O.co2 127  GLU127     -0.2457
    179  OE2       28.7540   20.6290   61.8140 O.co2 127  GLU127     -0.2457
    180  N         40.9240   25.5060   64.1050 N.3   132  SER132     -0.1217
    181  CA        41.2620   24.5670   65.1820 C.3   132  SER132      0.1889
    182  C         42.6430   23.9660   64.9220 C.2   132  SER132      0.2288
    183  O         43.4650   23.9140   65.8260 O.2   132  SER132     -0.2866
    184  CB        40.2040   23.4660   65.3150 C.3   132  SER132      0.2089
    185  OG        38.9990   24.0030   65.8560 O.3   132  SER132     -0.2183
@<TRIPOS>BOND
     1    29    30    1
     2    30    33    1
     3    30    31    1
     4    33    34    1
     5   171   172    1
     6    31    32    2
     7    34    35    1
     8    35    36    1
     9   172   175    1
    10   172   173    1
    11   176   177    1
    12   176   175    1
    13   166   165    2
    14   161   160   ar
    15   165   164    1
    16   179   177   ar
    17   177   178   ar
    18   160   162   ar
    19   160   159    1
    20   173   174    2
    21   159   158    1
    22    36    37    2
    23   163   164    1
    24   163   156   am
    25   164   167    1
    26    16    15    2
    27   167   168    1
    28   155   156    1
    29   155   158    1
    30   155   154    1
    31   156   157    2
    32    14    13    1
    33    14    15    1
    34    14    17    1
    35    38    37    1
    36    37    39    1
    37    18    17    1
    38    18    19    1
    39    15    21   am
    40   180   181    1
    41    24    23    2
    42    23    22    1
    43   168   169    1
    44   168   170    1
    45   182   181    1
    46   182   183    2
    47    19    20    1
    48    21    22    1
    49   181   184    1
    50   184   185    1
    51    22    25    1
    52    92    91    1
    53    93    91    1
    54     1     2    1
    55     4     3    2
    56    91    90    1
    57     3     2    1
    58    25    26    1
    59     2     5    1
    60    85    83    1
    61    51    50    2
    62    90    87    1
    63    55    53    1
    64    26    28    1
    65    26    27    1
    66    52    54    1
    67    52    53    1
    68    52    49    1
    69    83    84    1
    70    83    82    1
    71     5     6    1
    72    59    58    2
    73    50    49    1
    74    50    56   am
    75    87    86    1
    76    87    88    1
    77   147   146   ar
    78   147   145   ar
    79     7     6   ar
    80     7     9   ar
    81   146   144   ar
    82     6     8   ar
    83    48    49    1
    84    48    42   am
    85    46    45   ar
    86     9    11   ar
    87   153   152    1
    88    57    58    1
    89    57    56    1
    90    82    79    1
    91    86    80   am
    92    89    88    2
    93    58    60   am
    94     8    10   ar
    95    11    10   ar
    96    11    12    1
    97   145   143   ar
    98    80    81    2
    99    80    79    1
   100    41    42    1
   101    41    44    1
   102    41    40    1
   103    45    47   ar
   104    45    44    1
   105   144   143   ar
   106    42    43    2
   107   152   149    1
   108    79    78    1
   109    60    61    1
   110    63    62    2
   111   143   142    1
   112    76    75    1
   113    62    61    1
   114    62    67   am
   115    61    64    1
   116    67    68    1
   117    68    69    1
   118    77    75    1
   119   116   115    1
   120   109   108   ar
   121   150   149    1
   122   150   151    2
   123   149   148    1
   124   148   140   am
   125    71    69   am
   126    71    72    1
   127    75    72    1
   128   110   108   ar
   129    69    70    2
   130    97    96    2
   131   142   139    1
   132    64    65    1
   133    64    66    1
   134   108   107    1
   135   115   117    1
   136   115   112    1
   137    72    73    1
   138   140   139    1
   139   140   141    2
   140   139   138    1
   141   125   127   ar
   142   125   123   ar
   143   122   123    1
   144   122   119    1
   145   127   128   ar
   146    98    99    1
   147    98   100    1
   148    98    95    1
   149   123   124   ar
   150    99   101    1
   151   111   112    1
   152   111   104   am
   153    96    95    1
   154    96   102   am
   155    73    74    2
   156   128   126   ar
   157   103   106    1
   158   103   102    1
   159   103   104    1
   160   124   126   ar
   161    94    95    1
   162   112   113    1
   163   107   106    1
   164   118   119    1
   165   118   113   am
   166   119   120    1
   167   104   105    2
   168   138   131   am
   169   132   131    2
   170   113   114    2
   171   131   130    1
   172   120   121    2
   173   130   133    1
   174   130   129    1
   175   133   134    1
   176   134   135    1
   177   135   136    1
   178   136   137    1
