@<TRIPOS>MOLECULE
tmp/4c4eA00.pdb
 136 125 0 0 0
SMALL
GASTEIGER

@<TRIPOS>ATOM
      1  N         -6.1650   53.3360  128.5410 N.3    14  LYS14      -0.1245
      2  CA        -6.1090   52.6840  127.2340 C.3    14  LYS14       0.1561
      3  C         -6.4100   51.1890  127.3500 C.2    14  LYS14       0.2260
      4  O         -6.2440   50.6200  128.4210 O.2    14  LYS14      -0.2867
      5  CB        -4.7480   52.9300  126.5340 C.3    14  LYS14       0.0271
      6  CG        -3.5030   52.4060  127.2610 C.3    14  LYS14       0.0035
      7  CD        -2.2560   52.5640  126.3750 C.3    14  LYS14       0.0206
      8  CE        -1.0080   51.9930  127.0510 C.3    14  LYS14       0.1093
      9  NZ        -1.1560   50.5550  127.3670 N.3    14  LYS14      -0.1314
     10  N         -5.2490   47.5780  126.6890 N.3    16  ILE16      -0.1245
     11  CA        -4.0000   46.8440  126.4700 C.3    16  ILE16       0.1561
     12  C         -4.2960   45.6510  125.5330 C.2    16  ILE16       0.2260
     13  O         -3.9820   45.7100  124.3440 O.2    16  ILE16      -0.2867
     14  CB        -3.3140   46.4030  127.8180 C.3    16  ILE16       0.0252
     15  CG1       -2.9500   47.6070  128.7190 C.3    16  ILE16       0.0019
     16  CG2       -2.0790   45.4990  127.5700 C.3    16  ILE16       0.0019
     17  CD1       -2.5720   47.2340  130.2000 C.3    16  ILE16       0.0001
     18  N         -8.3290   43.7240  128.4840 N.3    24  VAL24      -0.1245
     19  CA        -7.3970   44.2020  129.5010 C.3    24  VAL24       0.1561
     20  C         -7.2490   45.7120  129.2780 C.2    24  VAL24       0.2260
     21  O         -7.0380   46.1460  128.1490 O.2    24  VAL24      -0.2867
     22  CB        -6.0450   43.4470  129.5310 C.3    24  VAL24       0.0252
     23  CG1       -5.1400   43.9850  130.6400 C.3    24  VAL24       0.0019
     24  CG2       -6.2560   41.9500  129.7140 C.3    24  VAL24       0.0019
     25  N         -5.5920   49.5350  130.8790 N.3    26  GLN26      -0.1245
     26  CA        -4.5970   50.2230  131.7010 C.3    26  GLN26       0.1566
     27  C         -5.4310   51.2930  132.4180 C.2    26  GLN26       0.2260
     28  O         -6.1940   52.0150  131.7730 O.2    26  GLN26      -0.2867
     29  CB        -3.5210   50.8510  130.8320 C.3    26  GLN26       0.0367
     30  CG        -2.2950   51.2790  131.6210 C.3    26  GLN26       0.0905
     31  CD        -1.3310   52.0410  130.7500 C.2    26  GLN26       0.2608
     32  OE1       -0.1870   51.6300  130.5510 O.2    26  GLN26      -0.2717
     33  NE2       -1.7850   53.1480  130.1800 N.am   26  GLN26      -0.0878
     34  N         -3.6560   47.3410  135.8620 N.3    36  ALA36      -0.1245
     35  CA        -4.2250   46.6730  134.7070 C.3    36  ALA36       0.1562
     36  C         -5.4970   46.0170  135.2050 C.2    36  ALA36       0.2260
     37  O         -5.4870   45.3990  136.2580 O.2    36  ALA36      -0.2867
     38  CB        -3.2660   45.6250  134.1750 C.3    36  ALA36       0.0290
     39  N         -8.3060   43.3160  134.1640 N.3    38  LYS38      -0.1245
     40  CA        -8.7390   42.3190  133.2150 C.3    38  LYS38       0.1561
     41  C        -10.2470   42.0960  133.4040 C.2    38  LYS38       0.2260
     42  O        -10.7100   41.6290  134.4500 O.2    38  LYS38      -0.2867
     43  CB        -7.9230   41.0210  133.3540 C.3    38  LYS38       0.0271
     44  CG        -8.2810   39.9700  132.3160 C.3    38  LYS38       0.0035
     45  CD        -7.5460   38.7120  132.5930 C.3    38  LYS38       0.0206
     46  CE        -7.9610   37.6360  131.6640 C.3    38  LYS38       0.1093
     47  NZ        -7.1440   36.4290  131.9040 N.3    38  LYS38      -0.1314
     48  N          2.8820   37.6540  138.6740 N.3    71  ILE71      -0.1245
     49  CA         2.1470   38.9320  138.5770 C.3    71  ILE71       0.1561
     50  C          1.2730   39.2100  139.8310 C.2    71  ILE71       0.2260
     51  O          0.6950   38.2880  140.4130 O.2    71  ILE71      -0.2867
     52  CB         1.3350   38.9850  137.2490 C.3    71  ILE71       0.0252
     53  CG1        0.9160   40.4260  136.9080 C.3    71  ILE71       0.0019
     54  CG2        0.1400   37.9950  137.2390 C.3    71  ILE71       0.0019
     55  CD1       -0.0270   40.6100  135.6450 C.3    71  ILE71       0.0001
     56  N         -4.8470   44.1110  138.6690 N.3    87  MET87      -0.1230
     57  CA        -3.5090   43.5550  138.6520 C.3    87  MET87       0.1702
     58  C         -2.3970   44.5920  138.4930 C.2    87  MET87       0.2592
     59  O         -2.6380   45.7760  138.2360 O.2    87  MET87      -0.2718
     60  CB        -3.4100   42.5300  137.5180 C.3    87  MET87       0.0401
     61  CG        -4.2470   41.3050  137.7600 C.3    87  MET87       0.0596
     62  SD        -4.4760   40.3680  136.2550 S.3    87  MET87      -0.1393
     63  CE        -3.3590   39.1200  136.5590 C.3    87  MET87       0.0692
     64  N         -1.1630   44.1020  138.6420 N.am   88  GLU88      -0.1966
     65  CA         0.0870   44.8190  138.4400 C.3    88  GLU88       0.1733
     66  C          0.1500   45.1860  136.9540 C.2    88  GLU88       0.2616
     67  O         -0.1720   44.3560  136.1030 O.2    88  GLU88      -0.2715
     68  CB         1.2340   43.8420  138.7740 C.3    88  GLU88       0.0429
     69  CG         2.6350   44.4070  138.7680 C.3    88  GLU88       0.1163
     70  CD         3.6520   43.5160  139.4560 C.2    88  GLU88       0.3649
     71  OE1        3.4790   42.2740  139.4410 O.co2  88  GLU88      -0.2457
     72  OE2        4.6200   44.0680  140.0280 O.co2  88  GLU88      -0.2457
     73  N          0.5290   46.4220  136.6460 N.am   89  CYS89      -0.1954
     74  CA         0.7050   46.8620  135.2690 C.3    89  CYS89       0.1843
     75  C          2.1870   46.6390  134.8910 C.2    89  CYS89       0.2626
     76  O          3.1120   46.9640  135.6590 O.2    89  CYS89      -0.2714
     77  CB         0.2960   48.3240  135.0990 C.3    89  CYS89       0.0997
     78  SG        -0.1070   48.7860  133.3920 S.3    89  CYS89      -0.0797
     79  N          2.3910   46.0520  133.7270 N.am   90  GLY90      -0.1940
     80  CA         3.7320   45.8180  133.2140 C.3    90  GLY90       0.2014
     81  C          4.1180   46.8160  132.1450 C.2    90  GLY90       0.2639
     82  O          3.2570   47.4470  131.5250 O.2    90  GLY90      -0.2714
     83  N          5.4160   46.9420  131.9100 N.am   91  ASN91      -0.1958
     84  CA         5.9610   47.8310  130.8950 C.3    91  ASN91       0.1819
     85  C          5.6540   47.3040  129.4900 C.2    91  ASN91       0.2621
     86  O          5.1980   48.0690  128.6360 O.2    91  ASN91      -0.2715
     87  CB         7.4660   48.0150  131.1020 C.3    91  ASN91       0.1195
     88  CG         7.8030   48.6730  132.4130 C.2    91  ASN91       0.2630
     89  OD1        8.3610   48.0560  133.3180 O.2    91  ASN91      -0.2716
     90  ND2        7.4490   49.9460  132.5530 N.am   91  ASN91      -0.0877
     91  N          5.8790   45.9920  129.2640 N.am   92  ILE92      -0.1963
     92  CA         5.7130   45.3160  127.9730 C.3    92  ILE92       0.1727
     93  C          5.8030   43.8090  128.2130 C.2    92  ILE92       0.2616
     94  O          6.4320   43.3960  129.1870 O.2    92  ILE92      -0.2715
     95  CB         6.8370   45.8370  126.9920 C.3    92  ILE92       0.0290
     96  CG1        6.6730   45.2810  125.5540 C.3    92  ILE92       0.0022
     97  CG2        8.2690   45.6150  127.5440 C.3    92  ILE92       0.0023
     98  CD1        7.4570   46.0260  124.4800 C.3    92  ILE92       0.0001
     99  N          5.1950   42.9920  127.3410 N.am   93  ASP93      -0.1971
    100  CA         5.3610   41.5470  127.4400 C.3    93  ASP93       0.1709
    101  C          6.7310   41.1980  126.8170 C.2    93  ASP93       0.2293
    102  O          7.2820   42.0040  126.0570 O.2    93  ASP93      -0.2864
    103  CB         4.2170   40.7760  126.7560 C.3    93  ASP93       0.1436
    104  CG         4.1350   40.9920  125.2700 C.2    93  ASP93       0.3671
    105  OD1        3.6360   42.0580  124.8550 O.co2  93  ASP93      -0.2456
    106  OD2        4.5790   40.1040  124.5200 O.co2  93  ASP93      -0.2456
    107  N          6.7630   40.9830  122.6810 N.3    96  SER96      -0.1217
    108  CA         6.8360   42.2910  122.0260 C.3    96  SER96       0.1889
    109  C          8.2270   42.8860  122.1920 C.2    96  SER96       0.2288
    110  O          8.7820   43.3900  121.2160 O.2    96  SER96      -0.2866
    111  CB         5.7790   43.2390  122.5720 C.3    96  SER96       0.2089
    112  OG         4.4840   42.7120  122.3400 O.3    96  SER96      -0.2183
    113  N          5.8830   39.0330  131.5210 N.3   139  LEU139     -0.1245
    114  CA         5.7680   40.4810  131.5510 C.3   139  LEU139      0.1561
    115  C          7.0040   41.1260  132.1280 C.2   139  LEU139      0.2260
    116  O          7.5100   40.6920  133.1630 O.2   139  LEU139     -0.2867
    117  CB         4.5530   40.8100  132.4320 C.3   139  LEU139      0.0270
    118  CG         3.9650   42.1940  132.4380 C.3   139  LEU139      0.0019
    119  CD1        3.6390   42.6700  131.0220 C.3   139  LEU139      0.0001
    120  CD2        2.7130   42.2130  133.3070 C.3   139  LEU139      0.0001
    121  N          2.4580   35.7940  133.9330 N.3   148  ILE148     -0.1231
    122  CA         1.1170   36.4050  133.9850 C.3   148  ILE148      0.1692
    123  C         -0.0240   35.3950  134.1590 C.2   148  ILE148      0.2592
    124  O         -1.0690   35.7780  134.6670 O.2   148  ILE148     -0.2718
    125  CB         0.8300   37.4000  132.8140 C.3   148  ILE148      0.0266
    126  CG1        0.5690   36.6920  131.4700 C.3   148  ILE148      0.0019
    127  CG2        1.9450   38.4400  132.6980 C.3   148  ILE148      0.0020
    128  CD1        0.1230   37.6090  130.3480 C.3   148  ILE148      0.0001
    129  N          0.1670   34.1310  133.7620 N.am  149  ASP149     -0.1974
    130  CA        -0.8690   33.1040  133.8570 C.3   149  ASP149      0.1709
    131  C         -0.2680   31.7180  134.0780 C.2   149  ASP149      0.2293
    132  O          0.9450   31.5400  133.9410 O.2   149  ASP149     -0.2864
    133  CB        -1.7880   33.1550  132.6240 C.3   149  ASP149      0.1436
    134  CG        -1.1770   32.5760  131.3700 C.2   149  ASP149      0.3671
    135  OD1       -0.5510   33.3370  130.6130 O.co2 149  ASP149     -0.2456
    136  OD2       -1.3610   31.3660  131.1290 O.co2 149  ASP149     -0.2456
@<TRIPOS>BOND
     1   110   109    2
     2   108   109    1
     3   108   111    1
     4   108   107    1
     5   112   111    1
     6    13    12    2
     7    98    96    1
     8   106   104   ar
     9   105   104   ar
    10   104   103    1
    11    12    11    1
    12    96    95    1
    13   102   101    2
    14     7     8    1
    15     7     6    1
    16    11    10    1
    17    11    14    1
    18     5     2    1
    19     5     6    1
    20   103   100    1
    21   101   100    1
    22    95    97    1
    23    95    92    1
    24     8     9    1
    25     2     3    1
    26     2     1    1
    27    99   100    1
    28    99    93   am
    29     3     4    2
    30    16    14    1
    31    14    15    1
    32    92    93    1
    33    92    91    1
    34    21    20    2
    35    93    94    2
    36    18    19    1
    37    86    85    2
    38    15    17    1
    39    91    85   am
    40    20    19    1
    41    85    84    1
    42    19    22    1
    43    22    24    1
    44    22    23    1
    45    33    31   am
    46   128   126    1
    47    32    31    2
    48   135   134   ar
    49    31    30    1
    50    29    30    1
    51    29    26    1
    52    25    26    1
    53    84    87    1
    54    84    83    1
    55   119   118    1
    56    87    88    1
    57   136   134   ar
    58   134   133    1
    59   126   125    1
    60   113   114    1
    61    82    81    2
    62   114   115    1
    63   114   117    1
    64    46    47    1
    65    46    45    1
    66    26    27    1
    67    28    27    2
    68    83    81   am
    69   115   116    2
    70    81    80    1
    71    44    45    1
    72    44    43    1
    73    88    90   am
    74    88    89    2
    75   117   118    1
    76   118   120    1
    77   133   130    1
    78   127   125    1
    79   125   122    1
    80    80    79    1
    81    40    43    1
    82    40    41    1
    83    40    39    1
    84    78    77    1
    85    41    42    2
    86    79    75   am
    87   129   130    1
    88   129   123   am
    89   130   131    1
    90   121   122    1
    91   132   131    2
    92   122   123    1
    93   123   124    2
    94    38    35    1
    95    35    36    1
    96    35    34    1
    97    75    74    1
    98    75    76    2
    99    77    74    1
   100    36    37    2
   101    74    73    1
   102    55    53    1
   103    67    66    2
   104    62    63    1
   105    62    61    1
   106    73    66   am
   107    53    52    1
   108    66    65    1
   109    54    52    1
   110    52    49    1
   111    60    61    1
   112    60    57    1
   113    59    58    2
   114    65    64    1
   115    65    68    1
   116    58    64   am
   117    58    57    1
   118    49    48    1
   119    49    50    1
   120    57    56    1
   121    69    68    1
   122    69    70    1
   123    71    70   ar
   124    70    72   ar
   125    50    51    2
