@<TRIPOS>MOLECULE
tmp/4c4fA03.pdb
 152 139 0 0 0
SMALL
GASTEIGER

@<TRIPOS>ATOM
      1  N          5.8160   -2.7630  -14.8260 N.3    15  LYS15      -0.1245
      2  CA         5.7400   -3.4330  -13.5260 C.3    15  LYS15       0.1561
      3  C          5.9840   -4.9400  -13.6590 C.2    15  LYS15       0.2260
      4  O          5.8350   -5.5020  -14.7460 O.2    15  LYS15      -0.2867
      5  CB         4.3720   -3.1710  -12.8390 C.3    15  LYS15       0.0271
      6  CG         3.1590   -3.6940  -13.6020 C.3    15  LYS15       0.0035
      7  CD         1.8260   -3.3000  -12.9670 C.3    15  LYS15       0.0206
      8  CE         0.7140   -4.1940  -13.4770 C.3    15  LYS15       0.1093
      9  NZ        -0.6470   -3.6770  -13.1550 N.3    15  LYS15      -0.1314
     10  N          4.6890   -8.5530  -13.0510 N.3    17  ILE17      -0.1245
     11  CA         3.4250   -9.2540  -12.8890 C.3    17  ILE17       0.1561
     12  C          3.6740  -10.5080  -12.0260 C.2    17  ILE17       0.2260
     13  O          3.1740  -10.5970  -10.9020 O.2    17  ILE17      -0.2867
     14  CB         2.7970   -9.6540  -14.2520 C.3    17  ILE17       0.0252
     15  CG1        2.4010   -8.4520  -15.1310 C.3    17  ILE17       0.0019
     16  CG2        1.6320  -10.5750  -14.0170 C.3    17  ILE17       0.0019
     17  CD1        2.1640   -8.8540  -16.6500 C.3    17  ILE17       0.0001
     18  N          7.7430  -12.4040  -14.8560 N.3    25  VAL25      -0.1245
     19  CA         6.8670  -11.9020  -15.9150 C.3    25  VAL25       0.1561
     20  C          6.7030  -10.4020  -15.6900 C.2    25  VAL25       0.2260
     21  O          6.4510   -9.9620  -14.5660 O.2    25  VAL25      -0.2867
     22  CB         5.5090  -12.6390  -16.0580 C.3    25  VAL25       0.0252
     23  CG1        4.7250  -12.1150  -17.2630 C.3    25  VAL25       0.0019
     24  CG2        5.6960  -14.1550  -16.1600 C.3    25  VAL25       0.0019
     25  N          4.9830   -6.6070  -17.1710 N.3    27  GLN27      -0.1245
     26  CA         4.1060   -5.8550  -18.0470 C.3    27  GLN27       0.1566
     27  C          5.0440   -4.8090  -18.6760 C.2    27  GLN27       0.2260
     28  O          5.8240   -4.1630  -17.9640 O.2    27  GLN27      -0.2867
     29  CB         2.9930   -5.1790  -17.2600 C.3    27  GLN27       0.0367
     30  CG         2.0510   -4.4100  -18.1650 C.3    27  GLN27       0.0905
     31  CD         1.0220   -3.7240  -17.3530 C.2    27  GLN27       0.2608
     32  OE1        1.3220   -2.8590  -16.5340 O.2    27  GLN27      -0.2717
     33  NE2       -0.2100   -4.1140  -17.5490 N.am   27  GLN27      -0.0878
     34  N          3.2600   -8.6430  -22.3040 N.3    37  ALA37      -0.1245
     35  CA         3.7930   -9.3470  -21.1500 C.3    37  ALA37       0.1562
     36  C          5.1030  -10.0130  -21.6060 C.2    37  ALA37       0.2260
     37  O          5.1240  -10.6880  -22.6350 O.2    37  ALA37      -0.2867
     38  CB         2.8060  -10.3970  -20.6760 C.3    37  ALA37       0.0290
     39  N          7.9590  -12.6710  -20.4410 N.3    39  LYS39      -0.1245
     40  CA         8.4150  -13.6480  -19.4830 C.3    39  LYS39       0.1561
     41  C          9.9210  -13.8130  -19.6820 C.2    39  LYS39       0.2260
     42  O         10.3900  -14.1300  -20.7790 O.2    39  LYS39      -0.2867
     43  CB         7.6830  -14.9850  -19.6490 C.3    39  LYS39       0.0271
     44  CG         8.0950  -16.0610  -18.6440 C.3    39  LYS39       0.0035
     45  CD         7.3700  -17.3490  -18.9830 C.3    39  LYS39       0.0206
     46  CE         7.6690  -18.4550  -18.0240 C.3    39  LYS39       0.1093
     47  NZ         6.8990  -19.6830  -18.3770 N.3    39  LYS39      -0.1314
     48  N          3.4440  -23.8830  -27.4600 N.3    61  LEU61      -0.1245
     49  CA         2.7890  -22.5700  -27.4010 C.3    61  LEU61       0.1561
     50  C          2.8110  -21.8780  -28.7680 C.2    61  LEU61       0.2260
     51  O          1.7990  -21.3590  -29.2240 O.2    61  LEU61      -0.2867
     52  CB         3.4120  -21.6750  -26.3280 C.3    61  LEU61       0.0270
     53  CG         2.6430  -20.3930  -26.0440 C.3    61  LEU61       0.0019
     54  CD1        1.2990  -20.7020  -25.4590 C.3    61  LEU61       0.0001
     55  CD2        3.4420  -19.4670  -25.1320 C.3    61  LEU61       0.0001
     56  N         -2.9660  -18.2050  -25.0620 N.3    72  ILE72      -0.1245
     57  CA        -2.2260  -16.9550  -24.9910 C.3    72  ILE72       0.1561
     58  C         -1.3830  -16.6980  -26.2690 C.2    72  ILE72       0.2260
     59  O         -0.7590  -17.6210  -26.8040 O.2    72  ILE72      -0.2867
     60  CB        -1.3680  -16.8930  -23.6960 C.3    72  ILE72       0.0252
     61  CG1       -0.8940  -15.4450  -23.4240 C.3    72  ILE72       0.0019
     62  CG2       -0.1750  -17.9050  -23.7350 C.3    72  ILE72       0.0019
     63  CD1       -0.2090  -15.2440  -22.1160 C.3    72  ILE72       0.0001
     64  N         10.1990  -14.1420  -23.6840 N.3    86  MET86      -0.1245
     65  CA         8.9900  -14.4790  -24.4350 C.3    86  MET86       0.1570
     66  C          8.0920  -13.2670  -24.4700 C.2    86  MET86       0.2261
     67  O          7.7060  -12.7680  -23.4190 O.2    86  MET86      -0.2867
     68  CB         8.2620  -15.6820  -23.8240 C.3    86  MET86       0.0387
     69  CG         8.9550  -17.0090  -24.1180 C.3    86  MET86       0.0595
     70  SD         8.4940  -18.2560  -22.9050 S.3    86  MET86      -0.1393
     71  CE         6.7630  -18.5720  -23.3800 C.3    86  MET86       0.0692
     72  N          4.6550  -11.8500  -25.1500 N.3    88  MET88      -0.1230
     73  CA         3.2820  -12.3070  -25.1930 C.3    88  MET88       0.1702
     74  C          2.2670  -11.1900  -25.0330 C.2    88  MET88       0.2595
     75  O          2.6190  -10.0750  -24.6420 O.2    88  MET88      -0.2718
     76  CB         3.0530  -13.3670  -24.1020 C.3    88  MET88       0.0401
     77  CG         3.8000  -14.6660  -24.3620 C.3    88  MET88       0.0596
     78  SD         3.7510  -15.7620  -22.9440 S.3    88  MET88      -0.1393
     79  CE         4.7170  -14.8640  -21.8180 C.3    88  MET88       0.0692
     80  N          0.9840  -11.5120  -25.2740 N.am   89  GLU89      -0.1920
     81  CA        -0.0880  -10.5540  -25.0360 C.3    89  GLU89       0.1949
     82  C         -0.2370  -10.4520  -23.5160 C.2    89  GLU89       0.2659
     83  O          0.0410  -11.4280  -22.7920 O.2    89  GLU89      -0.2711
     84  CB        -1.4170  -10.9740  -25.7160 C.2    89  GLU89       0.0111
     85  CG        -2.1190  -12.1830  -25.1050 C.2    89  GLU89       0.0838
     86  CD        -3.3780  -12.6650  -25.8070 C.2    89  GLU89       0.3877
     87  OE1       -4.1770  -11.8210  -26.2650 O.co2  89  GLU89      -0.2406
     88  OE2       -3.5590  -13.8980  -25.9120 O.co2  89  GLU89      -0.2406
     89  N         -0.6000   -9.2600  -23.0390 N.am   90  CYS90      -0.1951
     90  CA        -0.7860   -9.0230  -21.6180 C.3    90  CYS90       0.1843
     91  C         -2.2570   -9.2410  -21.2200 C.2    90  CYS90       0.2626
     92  O         -3.1810   -8.6660  -21.8230 O.2    90  CYS90      -0.2714
     93  CB        -0.3060   -7.6250  -21.2370 C.3    90  CYS90       0.0997
     94  SG        -0.1260   -7.3710  -19.4550 S.3    90  CYS90      -0.0797
     95  N         -2.4520  -10.0570  -20.1940 N.am   91  GLY91      -0.1940
     96  CA        -3.7800  -10.2830  -19.6430 C.3    91  GLY91       0.2014
     97  C         -4.1340   -9.1730  -18.6770 C.2    91  GLY91       0.2639
     98  O         -3.3060   -8.3060  -18.3960 O.2    91  GLY91      -0.2714
     99  N         -5.3620   -9.1810  -18.1710 N.am   92  ASN92      -0.1958
    100  CA        -5.7960   -8.1830  -17.2000 C.3    92  ASN92       0.1819
    101  C         -5.4800   -8.7060  -15.7990 C.2    92  ASN92       0.2621
    102  O         -5.1080   -7.9300  -14.9200 O.2    92  ASN92      -0.2715
    103  CB        -7.3070   -7.9030  -17.3310 C.3    92  ASN92       0.1195
    104  CG        -7.7230   -7.3930  -18.6830 C.2    92  ASN92       0.2630
    105  OD1       -8.0630   -8.1520  -19.5900 O.2    92  ASN92      -0.2716
    106  ND2       -7.7030   -6.0870  -18.8490 N.am   92  ASN92      -0.0877
    107  N         -5.6650  -10.0260  -15.5900 N.am   93  ILE93      -0.1963
    108  CA        -5.5020  -10.7060  -14.3040 C.3    93  ILE93       0.1727
    109  C         -5.6020  -12.2020  -14.5640 C.2    93  ILE93       0.2616
    110  O         -6.1860  -12.6000  -15.5740 O.2    93  ILE93      -0.2715
    111  CB        -6.6140  -10.1840  -13.3060 C.3    93  ILE93       0.0290
    112  CG1       -6.2910  -10.5600  -11.8320 C.3    93  ILE93       0.0022
    113  CG2       -8.0580  -10.5860  -13.7220 C.3    93  ILE93       0.0023
    114  CD1       -7.1440   -9.8430  -10.7840 C.3    93  ILE93       0.0001
    115  N         -5.0400  -13.0330  -13.6750 N.am   94  ASP94      -0.1971
    116  CA        -5.1780  -14.4920  -13.8110 C.3    94  ASP94       0.1709
    117  C         -6.5450  -14.8470  -13.2010 C.2    94  ASP94       0.2293
    118  O         -7.0900  -14.0550  -12.4400 O.2    94  ASP94      -0.2864
    119  CB        -4.0480  -15.2400  -13.0830 C.3    94  ASP94       0.1436
    120  CG        -4.0220  -14.9040  -11.6140 C.2    94  ASP94       0.3671
    121  OD1       -3.7630  -13.7240  -11.2810 O.co2  94  ASP94      -0.2456
    122  OD2       -4.3760  -15.7770  -10.8070 O.co2  94  ASP94      -0.2456
    123  N         -6.5470  -15.0160   -9.0540 N.3    97  SER97      -0.1217
    124  CA        -6.6450  -13.7180   -8.3690 C.3    97  SER97       0.1889
    125  C         -8.0240  -13.0840   -8.5640 C.2    97  SER97       0.2288
    126  O         -8.5140  -12.4010   -7.6590 O.2    97  SER97      -0.2866
    127  CB        -5.5530  -12.7620   -8.8280 C.3    97  SER97       0.2089
    128  OG        -4.2840  -13.3770   -8.6840 O.3    97  SER97      -0.2183
    129  N         -5.8500  -17.0090  -17.8390 N.3   140  LEU140     -0.1245
    130  CA        -5.7610  -15.5660  -17.8070 C.3   140  LEU140      0.1561
    131  C         -6.9690  -14.9330  -18.4290 C.2   140  LEU140      0.2260
    132  O         -7.3960  -15.3590  -19.5040 O.2   140  LEU140     -0.2867
    133  CB        -4.5190  -15.2270  -18.6380 C.3   140  LEU140      0.0270
    134  CG        -3.9130  -13.8480  -18.6190 C.3   140  LEU140      0.0019
    135  CD1       -3.3720  -13.5050  -17.2260 C.3   140  LEU140      0.0001
    136  CD2       -2.7600  -13.8070  -19.6170 C.3   140  LEU140      0.0001
    137  N         -2.4240  -20.3390  -20.3030 N.3   149  ILE149     -0.1231
    138  CA        -1.0940  -19.7270  -20.4310 C.3   149  ILE149      0.1692
    139  C          0.0170  -20.7520  -20.5070 C.2   149  ILE149      0.2592
    140  O          1.1050  -20.4070  -20.9630 O.2   149  ILE149     -0.2718
    141  CB        -0.7990  -18.6180  -19.3830 C.3   149  ILE149      0.0266
    142  CG1       -0.6020  -19.1870  -17.9620 C.3   149  ILE149      0.0019
    143  CG2       -1.8870  -17.5390  -19.4380 C.3   149  ILE149      0.0020
    144  CD1       -0.1330  -18.1780  -16.8910 C.3   149  ILE149      0.0001
    145  N         -0.2400  -21.9990  -20.0820 N.am  150  ASP150     -0.1974
    146  CA         0.7800  -23.0270  -20.1340 C.3   150  ASP150      0.1709
    147  C          0.2060  -24.4160  -20.3780 C.2   150  ASP150      0.2293
    148  O         -1.0080  -24.6360  -20.2290 O.2   150  ASP150     -0.2864
    149  CB         1.6750  -22.9810  -18.8940 C.3   150  ASP150      0.1436
    150  CG         1.0060  -23.5540  -17.6830 C.2   150  ASP150      0.3671
    151  OD1       -0.0310  -23.0120  -17.2840 O.co2 150  ASP150     -0.2456
    152  OD2        1.5010  -24.5830  -17.1610 O.co2 150  ASP150     -0.2456
@<TRIPOS>BOND
     1    51    50    2
     2    50    49    1
     3    48    49    1
     4    49    52    1
     5    59    58    2
     6    52    53    1
     7    58    57    1
     8    87    86   ar
     9    53    54    1
    10    53    55    1
    11    88    86   ar
    12    86    85    1
    13    84    85    2
    14    84    81    1
    15    80    81    1
    16    80    74   am
    17    73    72    1
    18    73    74    1
    19    73    76    1
    20    56    57    1
    21    81    82    1
    22    74    75    2
    23    57    60    1
    24    66    65    1
    25    66    67    2
    26    65    68    1
    27    65    64    1
    28    77    76    1
    29    77    78    1
    30    69    68    1
    31    69    70    1
    32    62    60    1
    33    60    61    1
    34    82    89   am
    35    82    83    2
    36    61    63    1
    37    71    70    1
    38    89    90    1
    39    78    79    1
    40    37    36    2
    41    34    35    1
    42    92    91    2
    43    90    93    1
    44    90    91    1
    45    36    35    1
    46    93    94    1
    47    91    95   am
    48    35    38    1
    49   140   139    2
    50    42    41    2
    51   139   138    1
    52   139   145   am
    53    39    40    1
    54   138   137    1
    55   138   141    1
    56   147   148    2
    57   147   146    1
    58    95    96    1
    59   146   145    1
    60   146   149    1
    61    41    40    1
    62    43    40    1
    63    43    44    1
    64    96    97    1
    65   136   134    1
    66   105   104    2
    67   132   131    2
    68   143   141    1
    69   141   142    1
    70    45    44    1
    71    45    46    1
    72   149   150    1
    73   106   104   am
    74   104   103    1
    75    97    98    2
    76    97    99   am
    77    27    26    1
    78    27    28    2
    79   133   134    1
    80   133   130    1
    81   134   135    1
    82   131   130    1
    83    47    46    1
    84    99   100    1
    85    30    31    1
    86    30    29    1
    87    26    29    1
    88    26    25    1
    89   142   144    1
    90   129   130    1
    91   150   151   ar
    92   150   152   ar
    93    33    31   am
    94    31    32    2
    95   103   100    1
    96    23    22    1
    97   100   101    1
    98    17    15    1
    99    24    22    1
   100    22    19    1
   101    19    20    1
   102    19    18    1
   103   101   107   am
   104   101   102    2
   105    20    21    2
   106   107   108    1
   107   110   109    2
   108    15    14    1
   109     1     2    1
   110     4     3    2
   111   109   108    1
   112   109   115   am
   113   108   111    1
   114    14    16    1
   115    14    11    1
   116   116   115    1
   117   116   117    1
   118   116   119    1
   119   113   111    1
   120     3     2    1
   121     6     7    1
   122     6     5    1
   123     2     5    1
   124     8     9    1
   125     8     7    1
   126   111   112    1
   127   117   118    2
   128   119   120    1
   129    10    11    1
   130    11    12    1
   131    12    13    2
   132   112   114    1
   133   120   121   ar
   134   120   122   ar
   135   123   124    1
   136   127   128    1
   137   127   124    1
   138   125   124    1
   139   125   126    2
