@<TRIPOS>MOLECULE
tmp/4c4fA00.pdb
 119 110 0 0 0
SMALL
GASTEIGER

@<TRIPOS>ATOM
      1  N         13.3240  -19.3060  -11.4220 N.3    22  SER22      -0.1202
      2  CA        14.3220  -18.6080  -12.2210 C.3    22  SER22       0.2020
      3  C         13.6190  -17.6790  -13.2290 C.2    22  SER22       0.2619
      4  O         14.2880  -17.0030  -14.0130 O.2    22  SER22      -0.2717
      5  CB        15.2070  -19.6230  -12.9420 C.3    22  SER22       0.2103
      6  OG        14.4400  -20.5040  -13.7510 O.3    22  SER22      -0.2182
      7  N         12.2720  -17.6280  -13.1830 N.am   23  SER23      -0.1951
      8  CA        11.4750  -16.8110  -14.1000 C.3    23  SER23       0.1924
      9  C         10.7720  -15.6070  -13.4650 C.2    23  SER23       0.2314
     10  O         10.4620  -15.6020  -12.2770 O.2    23  SER23      -0.2863
     11  CB        10.4650  -17.6700  -14.8500 C.3    23  SER23       0.2116
     12  OG         9.5720  -18.2850  -13.9390 O.3    23  SER23      -0.2180
     13  N          7.9590  -12.6710  -20.4410 N.3    39  LYS39      -0.1245
     14  CA         8.4150  -13.6480  -19.4830 C.3    39  LYS39       0.1561
     15  C          9.9210  -13.8130  -19.6820 C.2    39  LYS39       0.2260
     16  O         10.3900  -14.1300  -20.7790 O.2    39  LYS39      -0.2867
     17  CB         7.6830  -14.9850  -19.6490 C.3    39  LYS39       0.0271
     18  CG         8.0950  -16.0610  -18.6440 C.3    39  LYS39       0.0035
     19  CD         7.3700  -17.3490  -18.9830 C.3    39  LYS39       0.0206
     20  CE         7.6690  -18.4550  -18.0240 C.3    39  LYS39       0.1093
     21  NZ         6.8990  -19.6830  -18.3770 N.3    39  LYS39      -0.1314
     22  N         13.2600  -15.8710  -18.3160 N.3    41  VAL41      -0.1245
     23  CA        13.6830  -17.1330  -17.7000 C.3    41  VAL41       0.1561
     24  C         15.2200  -17.1380  -17.6500 C.2    41  VAL41       0.2260
     25  O         15.8810  -16.9610  -18.6790 O.2    41  VAL41      -0.2867
     26  CB        13.1330  -18.3860  -18.4360 C.3    41  VAL41       0.0252
     27  CG1       13.4540  -19.6810  -17.6730 C.3    41  VAL41       0.0019
     28  CG2       11.6370  -18.2640  -18.7050 C.3    41  VAL41       0.0019
     29  N         11.5450  -26.8120  -21.2670 N.3    54  TYR54      -0.1241
     30  CA        11.2760  -25.3960  -21.5460 C.3    54  TYR54       0.1605
     31  C         11.0770  -25.1850  -23.0530 C.2    54  TYR54       0.2264
     32  O         10.1710  -24.4620  -23.4440 O.2    54  TYR54      -0.2867
     33  CB        12.4550  -24.5230  -21.0680 C.3    54  TYR54       0.0534
     34  CG        12.6000  -24.3480  -19.5760 C.ar   54  TYR54      -0.0201
     35  CD1       11.6580  -24.8720  -18.6940 C.ar   54  TYR54      -0.0009
     36  CD2       13.6490  -23.6090  -19.0440 C.ar   54  TYR54      -0.0009
     37  CE1       11.7630  -24.6700  -17.3180 C.ar   54  TYR54       0.0417
     38  CE2       13.7670  -23.3990  -17.6710 C.ar   54  TYR54       0.0417
     39  CZ        12.8190  -23.9270  -16.8110 C.ar   54  TYR54       0.1957
     40  OH        12.9510  -23.7330  -15.4570 O.3    54  TYR54      -0.2866
     41  N          7.7290  -26.9120  -24.3690 N.3    57  GLU57      -0.1231
     42  CA         6.6060  -26.0650  -24.0450 C.3    57  GLU57       0.1699
     43  C          6.5010  -24.8150  -24.9770 C.2    57  GLU57       0.2592
     44  O          5.3910  -24.4810  -25.4410 O.2    57  GLU57      -0.2718
     45  CB         6.6950  -25.6630  -22.5730 C.3    57  GLU57       0.0402
     46  CG         5.6830  -24.5940  -22.1930 C.3    57  GLU57       0.1161
     47  CD         4.5280  -24.9790  -21.2970 C.2    57  GLU57       0.3649
     48  OE1        4.6440  -25.9410  -20.5040 O.co2  57  GLU57      -0.2457
     49  OE2        3.5280  -24.2340  -21.3260 O.co2  57  GLU57      -0.2457
     50  N          7.6490  -24.1260  -25.2340 N.am   58  ILE58      -0.1980
     51  CA         7.7100  -22.9560  -26.1250 C.3    58  ILE58       0.1595
     52  C          7.2370  -23.3590  -27.5580 C.2    58  ILE58       0.2287
     53  O          6.4690  -22.6340  -28.1870 O.2    58  ILE58      -0.2864
     54  CB         9.1280  -22.2980  -26.0960 C.3    58  ILE58       0.0276
     55  CG1        9.3800  -21.5850  -24.7440 C.3    58  ILE58       0.0022
     56  CG2        9.3410  -21.3220  -27.2650 C.3    58  ILE58       0.0022
     57  CD1       10.8400  -21.2340  -24.4960 C.3    58  ILE58       0.0001
     58  N          3.4440  -23.8830  -27.4600 N.3    61  LEU61      -0.1245
     59  CA         2.7890  -22.5700  -27.4010 C.3    61  LEU61       0.1561
     60  C          2.8110  -21.8780  -28.7680 C.2    61  LEU61       0.2260
     61  O          1.7990  -21.3590  -29.2240 O.2    61  LEU61      -0.2867
     62  CB         3.4120  -21.6750  -26.3280 C.3    61  LEU61       0.0270
     63  CG         2.6430  -20.3930  -26.0440 C.3    61  LEU61       0.0019
     64  CD1        1.2990  -20.7020  -25.4590 C.3    61  LEU61       0.0001
     65  CD2        3.4420  -19.4670  -25.1320 C.3    61  LEU61       0.0001
     66  N         15.8430  -16.8750  -21.6700 N.3    84  ILE84      -0.1245
     67  CA        14.6930  -16.8790  -22.5470 C.3    84  ILE84       0.1561
     68  C         13.9240  -15.5730  -22.2790 C.2    84  ILE84       0.2260
     69  O         13.7440  -15.1880  -21.1270 O.2    84  ILE84      -0.2867
     70  CB        13.7620  -18.0930  -22.3600 C.3    84  ILE84       0.0252
     71  CG1       14.5410  -19.4300  -22.4870 C.3    84  ILE84       0.0019
     72  CG2       12.5920  -18.0150  -23.3760 C.3    84  ILE84       0.0019
     73  CD1       13.7740  -20.7070  -22.0370 C.3    84  ILE84       0.0001
     74  N         10.1990  -14.1420  -23.6840 N.3    86  MET86      -0.1245
     75  CA         8.9900  -14.4790  -24.4350 C.3    86  MET86       0.1570
     76  C          8.0920  -13.2670  -24.4700 C.2    86  MET86       0.2261
     77  O          7.7060  -12.7680  -23.4190 O.2    86  MET86      -0.2867
     78  CB         8.2620  -15.6820  -23.8240 C.3    86  MET86       0.0387
     79  CG         8.9550  -17.0090  -24.1180 C.3    86  MET86       0.0595
     80  SD         8.4940  -18.2560  -22.9050 S.3    86  MET86      -0.1393
     81  CE         6.7630  -18.5720  -23.3800 C.3    86  MET86       0.0692
     82  N         -2.4240  -20.3390  -20.3030 N.3   149  ILE149     -0.1231
     83  CA        -1.0940  -19.7270  -20.4310 C.3   149  ILE149      0.1692
     84  C          0.0170  -20.7520  -20.5070 C.2   149  ILE149      0.2592
     85  O          1.1050  -20.4070  -20.9630 O.2   149  ILE149     -0.2718
     86  CB        -0.7990  -18.6180  -19.3830 C.3   149  ILE149      0.0266
     87  CG1       -0.6020  -19.1870  -17.9620 C.3   149  ILE149      0.0019
     88  CG2       -1.8870  -17.5390  -19.4380 C.3   149  ILE149      0.0020
     89  CD1       -0.1330  -18.1780  -16.8910 C.3   149  ILE149      0.0001
     90  N         -0.2400  -21.9990  -20.0820 N.am  150  ASP150     -0.1974
     91  CA         0.7800  -23.0270  -20.1340 C.3   150  ASP150      0.1709
     92  C          0.2060  -24.4160  -20.3780 C.2   150  ASP150      0.2293
     93  O         -1.0080  -24.6360  -20.2290 O.2   150  ASP150     -0.2864
     94  CB         1.6750  -22.9810  -18.8940 C.3   150  ASP150      0.1436
     95  CG         1.0060  -23.5540  -17.6830 C.2   150  ASP150      0.3671
     96  OD1       -0.0310  -23.0120  -17.2840 O.co2 150  ASP150     -0.2456
     97  OD2        1.5010  -24.5830  -17.1610 O.co2 150  ASP150     -0.2456
     98  N          6.7080  -27.6610  -19.1920 N.3   154  ALA154     -0.1231
     99  CA         7.8840  -27.0380  -18.5620 C.3   154  ALA154      0.1694
    100  C          8.0000  -27.4080  -17.1050 C.2   154  ALA154      0.2592
    101  O          6.9880  -27.4200  -16.4050 O.2   154  ALA154     -0.2718
    102  CB         7.8420  -25.5260  -18.7140 C.3   154  ALA154      0.0304
    103  N          9.2280  -27.7520  -16.6560 N.am  155  ASN155     -0.1960
    104  CA         9.5150  -28.1140  -15.2630 C.3   155  ASN155      0.1819
    105  C          9.1560  -26.9440  -14.3350 C.2   155  ASN155      0.2621
    106  O          9.6660  -25.8300  -14.5160 O.2   155  ASN155     -0.2715
    107  CB        10.9880  -28.5290  -15.0860 C.3   155  ASN155      0.1195
    108  CG        11.3630  -29.8980  -15.6240 C.2   155  ASN155      0.2630
    109  OD1       10.4930  -30.7280  -15.9160 O.2   155  ASN155     -0.2716
    110  ND2       12.6490  -30.1710  -15.8090 N.am  155  ASN155     -0.0877
    111  N          8.2170  -27.1830  -13.3950 N.am  156  GLN156     -0.1977
    112  CA         7.7720  -26.1780  -12.4280 C.3   156  GLN156      0.1601
    113  C          8.6330  -26.2270  -11.1580 C.2   156  GLN156      0.2287
    114  O          9.8530  -26.4050  -11.2300 O.2   156  GLN156     -0.2864
    115  CB         6.2880  -26.3730  -12.0940 C.3   156  GLN156      0.0394
    116  CG         5.4760  -26.4410  -13.3620 C.3   156  GLN156      0.0908
    117  CD         3.9900  -26.3970  -13.1560 C.2   156  GLN156      0.2608
    118  OE1        3.5130  -26.2880  -12.0130 O.2   156  GLN156     -0.2717
    119  NE2        3.2360  -26.4940  -14.2450 N.am  156  GLN156     -0.0878
@<TRIPOS>BOND
     1    61    60    2
     2    60    59    1
     3    53    52    2
     4    52    51    1
     5    58    59    1
     6    59    62    1
     7    56    54    1
     8    62    63    1
     9    51    54    1
    10    51    50    1
    11    54    55    1
    12    63    64    1
    13    63    65    1
    14    44    43    2
    15    50    43   am
    16    43    42    1
    17    55    57    1
    18    76    75    1
    19    76    77    2
    20    75    78    1
    21    75    74    1
    22    41    42    1
    23    79    78    1
    24    79    80    1
    25    42    45    1
    26    32    31    2
    27    81    80    1
    28    72    70    1
    29    31    30    1
    30    45    46    1
    31    67    70    1
    32    67    68    1
    33    67    66    1
    34    71    70    1
    35    71    73    1
    36    68    69    2
    37    46    47    1
    38    30    29    1
    39    30    33    1
    40    49    47   ar
    41    47    48   ar
    42    33    34    1
    43    85    84    2
    44    16    15    2
    45    84    83    1
    46    84    90   am
    47    13    14    1
    48    83    82    1
    49    83    86    1
    50    92    93    2
    51    92    91    1
    52    91    90    1
    53    91    94    1
    54    15    14    1
    55    17    14    1
    56    17    18    1
    57    34    36   ar
    58    34    35   ar
    59    88    86    1
    60    86    87    1
    61    98    99    1
    62    36    38   ar
    63    19    18    1
    64    19    20    1
    65    94    95    1
    66   102    99    1
    67    28    26    1
    68    35    37   ar
    69    25    24    2
    70    99   100    1
    71    26    23    1
    72    26    27    1
    73    21    20    1
    74    22    23    1
    75    87    89    1
    76    23    24    1
    77    95    96   ar
    78    95    97   ar
    79    38    39   ar
    80    37    39   ar
    81   100   103   am
    82   100   101    2
    83    39    40    1
    84   103   104    1
    85   109   108    2
    86   110   108   am
    87   108   107    1
    88   104   107    1
    89   104   105    1
    90    11     8    1
    91    11    12    1
    92   106   105    2
    93   105   111   am
    94   119   117   am
    95     8     9    1
    96     8     7    1
    97     4     3    2
    98     6     5    1
    99     9    10    2
   100   111   112    1
   101   116   117    1
   102   116   115    1
   103     3     7   am
   104     3     2    1
   105   117   118    2
   106     5     2    1
   107   112   115    1
   108   112   113    1
   109     2     1    1
   110   114   113    2
