@<TRIPOS>MOLECULE
tmp/4c4iA00.pdb
 176 161 0 0 0
SMALL
GASTEIGER

@<TRIPOS>ATOM
      1  N         -6.3800  -15.6380   -1.5990 N.3    14  LYS14      -0.1245
      2  CA        -6.3590  -14.2960   -2.1770 C.3    14  LYS14       0.1561
      3  C         -6.5780  -14.3800   -3.6850 C.2    14  LYS14       0.2260
      4  O         -6.4650  -15.4600   -4.2660 O.2    14  LYS14      -0.2867
      5  CB        -5.0060  -13.6060   -1.8950 C.3    14  LYS14       0.0271
      6  CG        -3.8710  -14.3150   -2.5300 C.3    14  LYS14       0.0035
      7  CD        -2.7730  -13.3380   -2.3460 C.3    14  LYS14       0.0206
      8  CE        -2.0150  -13.3640   -3.6550 C.3    14  LYS14       0.1093
      9  NZ        -1.1640  -12.1860   -3.7380 N.3    14  LYS14      -0.1314
     10  N         -5.0890  -13.4480   -7.1940 N.3    16  ILE16      -0.1231
     11  CA        -3.7980  -13.1720   -7.8390 C.3    16  ILE16       0.1692
     12  C         -3.9810  -12.0030   -8.8170 C.2    16  ILE16       0.2593
     13  O         -3.1960  -11.0640   -8.8110 O.2    16  ILE16      -0.2718
     14  CB        -3.2740  -14.4510   -8.5650 C.3    16  ILE16       0.0266
     15  CG1       -2.9120  -15.5750   -7.5710 C.3    16  ILE16       0.0019
     16  CG2       -2.1170  -14.1360   -9.5180 C.3    16  ILE16       0.0020
     17  CD1       -2.7590  -16.9910   -8.1750 C.3    16  ILE16       0.0001
     18  N         -5.0040  -12.0960   -9.6570 N.am   17  GLY17      -0.1942
     19  CA        -5.3340  -11.0910  -10.6570 C.3    17  GLY17       0.2014
     20  C         -6.7390  -11.2680  -11.1850 C.2    17  GLY17       0.2639
     21  O         -7.3650  -12.3070  -10.9580 O.2    17  GLY17      -0.2714
     22  N         -7.2560  -10.2460  -11.8740 N.am   18  SER18      -0.1949
     23  CA        -8.5990  -10.2910  -12.4400 C.3    18  SER18       0.1924
     24  C         -8.6330   -9.5860  -13.7810 C.2    18  SER18       0.2314
     25  O         -8.3640   -8.3860  -13.8560 O.2    18  SER18      -0.2863
     26  CB        -9.6190   -9.6850  -11.4770 C.3    18  SER18       0.2116
     27  OG        -9.4720   -8.3160  -11.3110 O.3    18  SER18      -0.2180
     28  N         -8.3620  -14.9200  -11.2150 N.3    24  VAL24      -0.1245
     29  CA        -7.4360  -15.9830  -10.8100 C.3    24  VAL24       0.1561
     30  C         -7.1870  -15.8530   -9.3080 C.2    24  VAL24       0.2260
     31  O         -6.9730  -14.7470   -8.8070 O.2    24  VAL24      -0.2867
     32  CB        -6.1460  -16.1530  -11.6650 C.3    24  VAL24       0.0252
     33  CG1       -5.3360  -14.8690  -11.7460 C.3    24  VAL24       0.0019
     34  CG2       -5.2840  -17.3100  -11.1540 C.3    24  VAL24       0.0019
     35  N         -5.4400  -17.6580   -5.5760 N.3    26  GLN26      -0.1245
     36  CA        -4.4940  -18.5210   -4.8930 C.3    26  GLN26       0.1566
     37  C         -5.4110  -19.2990   -3.9230 C.2    26  GLN26       0.2260
     38  O         -6.1350  -18.6830   -3.1290 O.2    26  GLN26      -0.2867
     39  CB        -3.4450  -17.6960   -4.1580 C.3    26  GLN26       0.0367
     40  CG        -2.2240  -18.5090   -3.7670 C.3    26  GLN26       0.0905
     41  CD        -1.0810  -17.6330   -3.3310 C.2    26  GLN26       0.2608
     42  OE1       -1.2380  -16.7150   -2.5220 O.2    26  GLN26      -0.2717
     43  NE2        0.1010  -17.9010   -3.8590 N.am   26  GLN26      -0.0878
     44  N         -3.6520  -22.5240   -8.2960 N.3    36  ALA36      -0.1245
     45  CA        -4.2270  -21.2760   -8.7810 C.3    36  ALA36       0.1562
     46  C         -5.4740  -21.6740   -9.5180 C.2    36  ALA36       0.2260
     47  O         -5.4270  -22.6270  -10.2980 O.2    36  ALA36      -0.2867
     48  CB        -3.2700  -20.5550   -9.7010 C.3    36  ALA36       0.0290
     49  N         -8.4700  -20.3990  -12.0270 N.3    38  LYS38      -0.1245
     50  CA        -8.9710  -19.4020  -12.9610 C.3    38  LYS38       0.1561
     51  C        -10.4720  -19.6230  -13.0610 C.2    38  LYS38       0.2260
     52  O        -10.9170  -20.7020  -13.4570 O.2    38  LYS38      -0.2867
     53  CB        -8.2930  -19.5410  -14.3270 C.3    38  LYS38       0.0271
     54  CG        -8.6270  -18.4410  -15.3220 C.3    38  LYS38       0.0035
     55  CD        -7.9910  -18.7760  -16.6720 C.3    38  LYS38       0.0206
     56  CE        -8.0090  -17.6070  -17.6100 C.3    38  LYS38       0.1093
     57  NZ        -7.2930  -17.9200  -18.8710 N.3    38  LYS38      -0.1314
     58  N         -8.2270  -22.6900  -26.1970 N.3    56  GLU56      -0.1245
     59  CA        -7.0340  -22.5610  -25.3600 C.3    56  GLU56       0.1567
     60  C         -6.9460  -23.6500  -24.3130 C.2    56  GLU56       0.2260
     61  O         -5.8520  -24.1750  -24.1140 O.2    56  GLU56      -0.2867
     62  CB        -6.8500  -21.1680  -24.7390 C.3    56  GLU56       0.0388
     63  CG        -5.4410  -20.6780  -25.0140 C.3    56  GLU56       0.1160
     64  CD        -4.9320  -19.4200  -24.3440 C.2    56  GLU56       0.3649
     65  OE1       -5.2570  -18.3040  -24.8100 O.co2  56  GLU56      -0.2457
     66  OE2       -4.0790  -19.5610  -23.4410 O.co2  56  GLU56      -0.2457
     67  N         -3.9090  -26.2710  -23.9120 N.3    60  LEU60      -0.1245
     68  CA        -3.2410  -26.2960  -22.6280 C.3    60  LEU60       0.1561
     69  C         -3.2420  -27.7050  -22.0340 C.2    60  LEU60       0.2260
     70  O         -2.2750  -28.1170  -21.4100 O.2    60  LEU60      -0.2867
     71  CB        -3.8920  -25.2900  -21.6950 C.3    60  LEU60       0.0270
     72  CG        -3.2670  -25.1280  -20.3240 C.3    60  LEU60       0.0019
     73  CD1       -1.8850  -24.5050  -20.4210 C.3    60  LEU60       0.0001
     74  CD2       -4.1280  -24.2890  -19.4610 C.3    60  LEU60       0.0001
     75  N          2.5310  -24.2860  -18.1030 N.3    71  ILE71      -0.1245
     76  CA         1.8430  -24.3540  -16.8080 C.3    71  ILE71       0.1561
     77  C          0.9660  -25.6280  -16.6680 C.2    71  ILE71       0.2260
     78  O          0.2840  -26.0030  -17.6290 O.2    71  ILE71      -0.2867
     79  CB         1.0540  -23.0460  -16.5180 C.3    71  ILE71       0.0252
     80  CG1        0.7410  -22.9540  -15.0100 C.3    71  ILE71       0.0019
     81  CG2       -0.1710  -22.8810  -17.4460 C.3    71  ILE71       0.0019
     82  CD1       -0.3870  -22.1680  -14.6210 C.3    71  ILE71       0.0001
     83  N        -10.6220  -23.5040  -13.6800 N.3    85  MET85      -0.1245
     84  CA        -9.3950  -24.1880  -14.1020 C.3    85  MET85       0.1570
     85  C         -8.4590  -24.3830  -12.9260 C.2    85  MET85       0.2261
     86  O         -8.1260  -23.4070  -12.2500 O.2    85  MET85      -0.2867
     87  CB        -8.7140  -23.4180  -15.2180 C.3    85  MET85       0.0387
     88  CG        -9.4310  -23.5640  -16.5340 C.3    85  MET85       0.0595
     89  SD        -8.9040  -22.3050  -17.7010 S.3    85  MET85      -0.1393
     90  CE        -7.2400  -22.8630  -18.0780 C.3    85  MET85       0.0692
     91  N         -4.9270  -25.1320  -11.7500 N.3    87  MET87      -0.1230
     92  CA        -3.5640  -25.0210  -12.2180 C.3    87  MET87       0.1702
     93  C         -2.5370  -25.0310  -11.0820 C.2    87  MET87       0.2595
     94  O         -2.9030  -24.9680   -9.9070 O.2    87  MET87      -0.2718
     95  CB        -3.4630  -23.7350  -13.0470 C.3    87  MET87       0.0401
     96  CG        -4.3540  -23.7640  -14.2560 C.3    87  MET87       0.0596
     97  SD        -4.2150  -22.3610  -15.3700 S.3    87  MET87      -0.1393
     98  CE        -5.0200  -21.1160  -14.3720 C.3    87  MET87       0.0692
     99  N         -1.2470  -25.1160  -11.4240 N.am   88  GLU88      -0.1920
    100  CA        -0.1960  -25.0420  -10.4130 C.3    88  GLU88       0.1949
    101  C          0.0340  -23.5580  -10.0670 C.2    88  GLU88       0.2659
    102  O         -0.2620  -22.6760  -10.8820 O.2    88  GLU88      -0.2711
    103  CB         1.0830  -25.7610  -10.8640 C.2    88  GLU88       0.0111
    104  CG         1.9960  -24.9700  -11.7890 C.2    88  GLU88       0.0838
    105  CD         3.1000  -25.7470  -12.4860 C.2    88  GLU88       0.3877
    106  OE1        3.8630  -26.4660  -11.8050 O.co2  88  GLU88      -0.2406
    107  OE2        3.1840  -25.6540  -13.7290 O.co2  88  GLU88      -0.2406
    108  N          0.4980  -23.2880   -8.8390 N.am   89  CYS89      -0.1951
    109  CA         0.7580  -21.9260   -8.3920 C.3    89  CYS89       0.1843
    110  C          2.2000  -21.5040   -8.6440 C.2    89  CYS89       0.2626
    111  O          3.1470  -22.1800   -8.2200 O.2    89  CYS89      -0.2714
    112  CB         0.3560  -21.7150   -6.9350 C.3    89  CYS89       0.0997
    113  SG        -0.0750  -19.9990   -6.5450 S.3    89  CYS89      -0.0797
    114  N          2.3420  -20.4010   -9.3630 N.am   90  GLY90      -0.1940
    115  CA         3.6380  -19.8010   -9.6340 C.3    90  GLY90       0.2014
    116  C          3.9320  -18.7260   -8.6200 C.2    90  GLY90       0.2639
    117  O          3.0190  -18.1600   -8.0100 O.2    90  GLY90      -0.2714
    118  N          5.1990  -18.4480   -8.4280 N.am   91  ASN91      -0.1958
    119  CA         5.6400  -17.4670   -7.4360 C.3    91  ASN91       0.1819
    120  C          5.3400  -16.0220   -7.8610 C.2    91  ASN91       0.2621
    121  O          4.9140  -15.2200   -7.0220 O.2    91  ASN91      -0.2715
    122  CB         7.1260  -17.6720   -7.1110 C.3    91  ASN91       0.1195
    123  CG         7.4990  -19.1250   -6.9340 C.2    91  ASN91       0.2630
    124  OD1        8.3030  -19.6790   -7.6980 O.2    91  ASN91      -0.2716
    125  ND2        6.8690  -19.7970   -5.9690 N.am   91  ASN91      -0.0877
    126  N          5.5390  -15.7080   -9.1680 N.am   92  ILE92      -0.1963
    127  CA         5.3710  -14.3780   -9.7520 C.3    92  ILE92       0.1727
    128  C          5.5240  -14.4690  -11.2640 C.2    92  ILE92       0.2616
    129  O          6.1920  -15.3790  -11.7630 O.2    92  ILE92      -0.2715
    130  CB         6.4050  -13.3880   -9.1110 C.3    92  ILE92       0.0290
    131  CG1        6.1040  -11.9180   -9.4760 C.3    92  ILE92       0.0022
    132  CG2        7.8650  -13.7840   -9.4120 C.3    92  ILE92       0.0023
    133  CD1        6.8850  -10.9000   -8.6860 C.3    92  ILE92       0.0001
    134  N          4.8900  -13.5350  -11.9960 N.am   93  ASP93      -0.1971
    135  CA         5.0210  -13.4480  -13.4550 C.3    93  ASP93       0.1709
    136  C          6.3460  -12.7360  -13.7380 C.2    93  ASP93       0.2293
    137  O          6.8040  -11.9350  -12.9110 O.2    93  ASP93      -0.2864
    138  CB         3.8410  -12.6820  -14.0960 C.3    93  ASP93       0.1436
    139  CG         3.6860  -11.2690  -13.5790 C.2    93  ASP93       0.3671
    140  OD1        3.3500  -11.1090  -12.3870 O.co2  93  ASP93      -0.2456
    141  OD2        3.9260  -10.3240  -14.3570 O.co2  93  ASP93      -0.2456
    142  N          6.1620   -8.5960  -13.5200 N.3    96  SER96      -0.1217
    143  CA         6.1910   -8.0860  -12.1470 C.3    96  SER96       0.1889
    144  C          7.5620   -8.3030  -11.4960 C.2    96  SER96       0.2288
    145  O          8.0330   -7.4250  -10.7640 O.2    96  SER96      -0.2866
    146  CB         5.0950   -8.7320  -11.3080 C.3    96  SER96       0.2089
    147  OG         3.7990   -8.3150  -11.7050 O.3    96  SER96      -0.2183
    148  N          4.5930  -10.8610  -19.1110 N.3   136  ALA136     -0.1245
    149  CA         3.4550  -11.2240  -18.2740 C.3   136  ALA136      0.1562
    150  C          2.9810  -12.6490  -18.5420 C.2   136  ALA136      0.2260
    151  O          2.4920  -13.3250  -17.6430 O.2   136  ALA136     -0.2867
    152  CB         2.3180  -10.2380  -18.4740 C.3   136  ALA136      0.0290
    153  N          5.5090  -17.2590  -16.2650 N.3   139  LEU139     -0.1245
    154  CA         5.4270  -17.4270  -14.8190 C.3   139  LEU139      0.1561
    155  C          6.6590  -18.1260  -14.2430 C.2   139  LEU139      0.2260
    156  O          7.1110  -19.1280  -14.8030 O.2   139  LEU139     -0.2867
    157  CB         4.1750  -18.2740  -14.5350 C.3   139  LEU139      0.0270
    158  CG         3.6330  -18.2880  -13.1310 C.3   139  LEU139      0.0019
    159  CD1        2.8840  -17.0240  -12.8470 C.3   139  LEU139      0.0001
    160  CD2        2.7060  -19.4340  -12.9550 C.3   139  LEU139      0.0001
    161  N          2.1170  -19.2040  -19.6510 N.3   148  ILE148     -0.1231
    162  CA         0.8080  -19.0950  -19.0180 C.3   148  ILE148      0.1692
    163  C         -0.3530  -19.1970  -20.0120 C.2   148  ILE148      0.2592
    164  O         -1.3770  -19.8050  -19.6660 O.2   148  ILE148     -0.2718
    165  CB         0.7930  -17.7720  -18.1650 C.3   148  ILE148      0.0266
    166  CG1        1.3350  -18.0120  -16.7650 C.3   148  ILE148      0.0019
    167  CG2       -0.5370  -17.0100  -18.1100 C.3   148  ILE148      0.0020
    168  CD1        0.9580  -19.3040  -16.1380 C.3   148  ILE148      0.0001
    169  N         -0.2240  -18.5690  -21.2020 N.am  149  ASP149     -0.1974
    170  CA        -1.2750  -18.5420  -22.2180 C.3   149  ASP149      0.1709
    171  C         -0.7280  -18.7030  -23.6160 C.2   149  ASP149      0.2293
    172  O          0.4830  -18.6150  -23.8070 O.2   149  ASP149     -0.2864
    173  CB        -2.1360  -17.2630  -22.0930 C.3   149  ASP149      0.1436
    174  CG        -1.4740  -15.9930  -22.5870 C.2   149  ASP149      0.3671
    175  OD1       -0.2560  -15.8350  -22.3590 O.co2 149  ASP149     -0.2456
    176  OD2       -2.1790  -15.1500  -23.1970 O.co2 149  ASP149     -0.2456
@<TRIPOS>BOND
     1    58    59    1
     2    59    62    1
     3    59    60    1
     4    63    62    1
     5    63    64    1
     6    65    64   ar
     7    64    66   ar
     8    60    61    2
     9    67    68    1
    10   172   171    2
    11   171   170    1
    12   176   174   ar
    13    68    69    1
    14    68    71    1
    15   174   175   ar
    16   174   173    1
    17   170   173    1
    18   170   169    1
    19    69    70    2
    20    71    72    1
    21   169   163   am
    22    73    72    1
    23    72    74    1
    24   163   164    2
    25   163   162    1
    26   161   162    1
    27   148   149    1
    28   162   165    1
    29    57    56    1
    30   150   149    1
    31   150   151    2
    32   152   149    1
    33   165   167    1
    34   165   166    1
    35    75    76    1
    36    90    89    1
    37    89    88    1
    38    78    77    2
    39    56    55    1
    40    81    79    1
    41    76    77    1
    42    76    79    1
    43   166   168    1
    44    55    54    1
    45    88    87    1
    46    79    80    1
    47   153   154    1
    48    97    98    1
    49    97    96    1
    50    54    53    1
    51    87    84    1
    52    80    82    1
    53   154   157    1
    54   154   155    1
    55   156   155    2
    56   157   158    1
    57   141   139   ar
    58    53    50    1
    59    96    95    1
    60    84    83    1
    61    84    85    1
    62   138   139    1
    63   138   135    1
    64    25    24    2
    65    24    23    1
    66   136   135    1
    67   136   137    2
    68   107   105   ar
    69   139   140   ar
    70   142   143    1
    71    52    51    2
    72   135   134    1
    73   158   160    1
    74   158   159    1
    75    51    50    1
    76    95    92    1
    77    50    49    1
    78    85    86    2
    79   105   106   ar
    80   105   104    1
    81    23    22    1
    82    23    26    1
    83    92    91    1
    84    92    93    1
    85   143   144    1
    86   143   146    1
    87   134   128   am
    88    22    20   am
    89   104   103    2
    90   129   128    2
    91    33    32    1
    92   147   146    1
    93    32    34    1
    94    32    29    1
    95   144   145    2
    96    26    27    1
    97    99    93   am
    98    99   100    1
    99   128   127    1
   100    28    29    1
   101    20    21    2
   102    20    19    1
   103    93    94    2
   104   102   101    2
   105   103   100    1
   106    29    30    1
   107    19    18    1
   108   100   101    1
   109    47    46    2
   110   101   108   am
   111   127   126    1
   112   127   130    1
   113    48    45    1
   114    18    12   am
   115   115   114    1
   116   115   116    1
   117    46    45    1
   118    16    14    1
   119   131   130    1
   120   131   133    1
   121   132   130    1
   122   114   110   am
   123    30    31    2
   124   126   120   am
   125   108   109    1
   126    12    13    2
   127    12    11    1
   128    45    44    1
   129   110   109    1
   130   110   111    2
   131   116   118   am
   132   116   117    2
   133    14    11    1
   134    14    15    1
   135   118   119    1
   136   109   112    1
   137    17    15    1
   138   120   119    1
   139   120   121    2
   140    11    10    1
   141   124   123    2
   142   119   122    1
   143   122   123    1
   144   112   113    1
   145   123   125   am
   146    35    36    1
   147    36    39    1
   148    36    37    1
   149     4     3    2
   150    39    40    1
   151    37    38    2
   152    43    41   am
   153    40    41    1
   154     9     8    1
   155     3     2    1
   156     8     7    1
   157    41    42    2
   158     6     7    1
   159     6     5    1
   160     2     5    1
   161     2     1    1
