@<TRIPOS>MOLECULE
tmp/4c4oA00.pdb
 178 170 0 0 0
SMALL
GASTEIGER

@<TRIPOS>ATOM
      1  N        -46.7680    5.0490   47.3630 N.3    42  HIS42      -0.1226
      2  CA       -48.0660    4.9180   46.6420 C.3    42  HIS42       0.1752
      3  C        -48.2630    3.4930   46.1610 C.2    42  HIS42       0.2596
      4  O        -49.3990    3.0500   46.0550 O.2    42  HIS42      -0.2718
      5  CB       -48.2050    5.8970   45.4530 C.3    42  HIS42       0.0759
      6  CG       -48.3220    7.3430   45.8910 C.ar   42  HIS42       0.0818
      7  ND1      -49.3640    7.8880   46.5630 N.ar   42  HIS42      -0.2268
      8  CD2      -47.5530    8.3900   45.4600 C.ar   42  HIS42       0.1154
      9  CE1      -49.2100    9.1870   46.6960 C.ar   42  HIS42       0.1986
     10  NE2      -48.0910    9.4990   46.0610 N.ar   42  HIS42      -0.2212
     11  N        -47.1620    2.7720   45.9100 N.am   43  SER43      -0.1952
     12  CA       -47.2270    1.3780   45.4550 C.3    43  SER43       0.1924
     13  C        -47.9040    0.4230   46.4630 C.2    43  SER43       0.2314
     14  O        -48.4990   -0.5920   46.0560 O.2    43  SER43      -0.2863
     15  CB       -45.8280    0.8320   45.0180 C.3    43  SER43       0.2116
     16  OG       -45.3600    1.4990   43.8700 O.3    43  SER43      -0.2180
     17  N        -51.5910    0.5910   45.6140 N.3    46  HIS46      -0.1241
     18  CA       -51.9770   -0.1510   44.3960 C.3    46  HIS46       0.1621
     19  C        -52.1420   -1.6450   44.6950 C.2    46  HIS46       0.2264
     20  O        -53.0650   -2.2800   44.1850 O.2    46  HIS46      -0.2867
     21  CB       -50.9770   -0.0010   43.2430 C.3    46  HIS46       0.0745
     22  CG       -50.6150    1.4140   42.9060 C.ar   46  HIS46       0.0817
     23  ND1      -51.5280    2.4470   42.9150 N.ar   46  HIS46      -0.2268
     24  CD2      -49.4350    1.9610   42.5240 C.ar   46  HIS46       0.1154
     25  CE1      -50.9270    3.5710   42.5660 C.ar   46  HIS46       0.1986
     26  NE2      -49.6570    3.3040   42.3250 N.ar   46  HIS46      -0.2212
     27  N        -34.8810    4.7310   42.7820 N.3   153  THR153     -0.1218
     28  CA       -35.4800    4.6350   41.5020 C.3   153  THR153      0.1862
     29  C        -35.0310    5.6990   40.4720 C.2   153  THR153      0.2287
     30  O        -34.5860    5.3300   39.3560 O.2   153  THR153     -0.2866
     31  CB       -37.0430    4.5100   41.6280 C.3   153  THR153      0.1770
     32  OG1      -37.3280    3.2780   42.3070 O.3   153  THR153     -0.2211
     33  CG2      -37.6760    4.4410   40.2890 C.3   153  THR153      0.0375
     34  N        -39.9930   15.7530   33.2710 N.3   172  ILE172     -0.1231
     35  CA       -41.4100   16.0750   33.2330 C.3   172  ILE172      0.1692
     36  C        -42.0250   15.4820   34.4620 C.2   172  ILE172      0.2593
     37  O        -42.0060   14.2770   34.6460 O.2   172  ILE172     -0.2718
     38  CB       -42.0910   15.5680   31.9880 C.3   172  ILE172      0.0266
     39  CG1      -41.3810   16.1470   30.7640 C.3   172  ILE172      0.0019
     40  CG2      -43.6030   16.0010   31.9600 C.3   172  ILE172      0.0020
     41  CD1      -41.9310   15.6820   29.4540 C.3   172  ILE172      0.0001
     42  N        -42.5180   16.3430   35.3660 N.am  173  GLY173     -0.1942
     43  CA       -43.1550   15.8490   36.6240 C.3   173  GLY173      0.2014
     44  C        -42.2530   15.8840   37.8330 C.2   173  GLY173      0.2639
     45  O        -41.4060   15.0140   38.0330 O.2   173  GLY173     -0.2714
     46  N        -42.4600   16.8850   38.6890 N.am  174  ALA174     -0.1963
     47  CA       -41.6000   17.0880   39.8320 C.3   174  ALA174      0.1728
     48  C        -42.2500   16.7140   41.1750 C.2   174  ALA174      0.2617
     49  O        -42.1990   17.4920   42.1100 O.2   174  ALA174     -0.2715
     50  CB       -41.1490   18.5290   39.8270 C.3   174  ALA174      0.0334
     51  N        -42.8260   15.5240   41.2960 N.am  175  GLY175     -0.1940
     52  CA       -43.3900   15.0550   42.5960 C.3   175  GLY175      0.2014
     53  C        -42.4080   14.2460   43.4120 C.2   175  GLY175      0.2639
     54  O        -41.2000   14.5410   43.4690 O.2   175  GLY175     -0.2714
     55  N        -42.8900   13.1840   44.0280 N.am  176  GLY176     -0.1939
     56  CA       -42.0280   12.3750   44.9020 C.3   176  GLY176      0.2014
     57  C        -40.7110   11.9220   44.2680 C.2   176  GLY176      0.2639
     58  O        -39.6090   12.2450   44.7580 O.2   176  GLY176     -0.2714
     59  N        -40.8180   11.1390   43.1940 N.am  177  LEU177     -0.1963
     60  CA       -39.6300   10.6800   42.4430 C.3   177  LEU177      0.1728
     61  C        -38.9790   11.8590   41.7080 C.2   177  LEU177      0.2616
     62  O        -37.7710   12.0180   41.7850 O.2   177  LEU177     -0.2715
     63  CB       -39.9980    9.5890   41.4380 C.3   177  LEU177      0.0311
     64  CG       -39.7680    8.1380   41.9230 C.3   177  LEU177      0.0022
     65  CD1      -40.5360    7.8230   43.1910 C.3   177  LEU177      0.0001
     66  CD2      -40.0890    7.1280   40.8300 C.3   177  LEU177      0.0001
     67  N        -39.7760   12.6900   41.0230 N.am  178  GLY178     -0.1955
     68  CA       -39.2230   13.7890   40.1990 C.3   178  GLY178      0.1869
     69  C        -38.3600   14.7660   40.9780 C.2   178  GLY178      0.2309
     70  O        -37.3460   15.2750   40.4810 O.2   178  GLY178     -0.2863
     71  N        -40.5610   20.5020   33.7650 N.3   195  LEU195     -0.1231
     72  CA       -41.9180   20.8520   33.3760 C.3   195  LEU195      0.1693
     73  C        -42.8590   20.2410   34.3800 C.2   195  LEU195      0.2592
     74  O        -42.7350   19.0540   34.7110 O.2   195  LEU195     -0.2718
     75  CB       -42.3200   20.2480   32.0820 C.3   195  LEU195      0.0284
     76  CG       -41.7250   20.7390   30.8180 C.3   195  LEU195      0.0019
     77  CD1      -42.3630   19.9950   29.6540 C.3   195  LEU195      0.0001
     78  CD2      -41.9610   22.2300   30.7120 C.3   195  LEU195      0.0001
     79  N        -43.7570   21.0500   34.9430 N.am  196  ASP196     -0.1960
     80  CA       -44.8000   20.5140   35.7940 C.3   196  ASP196      0.1840
     81  C        -46.0310   21.4240   35.6860 C.2   196  ASP196      0.2622
     82  O        -45.9030   22.6520   35.5410 O.2   196  ASP196     -0.2715
     83  CB       -44.3410   20.3490   37.2360 C.3   196  ASP196      0.1450
     84  CG       -45.2440   19.4330   38.0240 C.2   196  ASP196      0.3671
     85  OD1      -46.4800   19.7050   38.0870 O.co2 196  ASP196     -0.2456
     86  OD2      -44.7520   18.4600   38.6470 O.co2 196  ASP196     -0.2456
     87  N        -47.2000   20.8080   35.6920 N.am  197  LYS197     -0.1963
     88  CA       -48.4680   21.5320   35.5030 C.3   197  LYS197      0.1728
     89  C        -48.8850   22.2570   36.8000 C.2   197  LYS197      0.2616
     90  O        -49.6570   23.1810   36.7340 O.2   197  LYS197     -0.2715
     91  CB       -49.5800   20.5680   35.0200 C.3   197  LYS197      0.0311
     92  CG       -50.0240   19.5660   36.0870 C.3   197  LYS197      0.0038
     93  CD       -51.1770   18.7020   35.6160 C.3   197  LYS197      0.0206
     94  CE       -51.5210   17.7140   36.7040 C.3   197  LYS197      0.1093
     95  NZ       -52.6730   16.8660   36.3150 N.3   197  LYS197     -0.1314
     96  N        -48.3720   21.8240   37.9510 N.am  198  LYS198     -0.1977
     97  CA       -48.7670   22.3620   39.2660 C.3   198  LYS198      0.1596
     98  C        -47.7910   23.4030   39.7670 C.2   198  LYS198      0.2287
     99  O        -46.5820   23.1460   39.9090 O.2   198  LYS198     -0.2864
    100  CB       -48.9140   21.2470   40.3090 C.3   198  LYS198      0.0298
    101  CG       -49.9650   20.1620   40.0800 C.3   198  LYS198      0.0038
    102  CD       -51.2810   20.9130   40.1570 C.3   198  LYS198      0.0206
    103  CE       -52.3380   19.9760   40.6220 C.3   198  LYS198      0.1093
    104  NZ       -53.7150   20.5540   40.6190 N.3   198  LYS198     -0.1314
    105  N        -45.3780   22.5320   42.5630 N.3   201  ALA201     -0.1245
    106  CA       -44.2940   21.6030   42.1920 C.3   201  ALA201      0.1562
    107  C        -43.2390   22.4100   41.4590 C.2   201  ALA201      0.2260
    108  O        -42.0620   22.1920   41.6420 O.2   201  ALA201     -0.2867
    109  CB       -44.8440   20.4550   41.3320 C.3   201  ALA201      0.0290
    110  N        -44.1780   25.5950   32.9260 N.3   215  GLU215     -0.1245
    111  CA       -45.4350   24.9170   32.7600 C.3   215  GLU215      0.1567
    112  C        -45.4880   24.3050   31.3750 C.2   215  GLU215      0.2260
    113  O        -45.9180   23.1820   31.2310 O.2   215  GLU215     -0.2867
    114  CB       -46.6310   25.8560   32.9150 C.3   215  GLU215      0.0388
    115  CG       -47.9640   25.1880   32.7670 C.3   215  GLU215      0.1160
    116  CD       -49.1630   26.0450   33.0300 C.2   215  GLU215      0.3649
    117  OE1      -49.0230   27.2280   33.2590 O.co2 215  GLU215     -0.2457
    118  OE2      -50.3210   25.6290   32.8680 O.co2 215  GLU215     -0.2457
    119  N        -41.6810   11.4550   34.2120 N.3   232  PHE232     -0.1227
    120  CA       -42.2310   10.8650   35.4340 C.3   232  PHE232      0.1736
    121  C        -43.7640   10.8510   35.3720 C.2   232  PHE232      0.2595
    122  O        -44.3930   10.4180   36.3320 O.2   232  PHE232     -0.2718
    123  CB       -41.7140   11.5880   36.7450 C.3   232  PHE232      0.0547
    124  CG       -40.2210   11.4460   36.9310 C.ar  232  PHE232     -0.0202
    125  CD1      -39.6700   10.2830   37.5090 C.ar  232  PHE232     -0.0042
    126  CD2      -39.3600   12.4160   36.4430 C.ar  232  PHE232     -0.0042
    127  CE1      -38.2910   10.1140   37.6040 C.ar  232  PHE232     -0.0003
    128  CE2      -37.9870   12.2520   36.5550 C.ar  232  PHE232     -0.0003
    129  CZ       -37.4590   11.0870   37.0950 C.ar  232  PHE232     -0.0000
    130  N        -44.3590   11.2840   34.2680 N.am  233  VAL233     -0.1980
    131  CA       -45.8270   11.1360   34.1390 C.3   233  VAL233      0.1595
    132  C        -46.1940   10.0020   33.1620 C.2   233  VAL233      0.2287
    133  O        -46.9250    9.0830   33.5200 O.2   233  VAL233     -0.2864
    134  CB       -46.5650   12.4530   33.9390 C.3   233  VAL233      0.0276
    135  CG1      -45.6340   13.5550   33.5870 C.3   233  VAL233      0.0022
    136  CG2      -47.7290   12.3130   32.9530 C.3   233  VAL233      0.0022
    137  N        -47.8340    9.8130   29.9550 N.3   235  VAL235     -0.1245
    138  CA       -48.9770    9.7310   29.0770 C.3   235  VAL235      0.1561
    139  C        -48.5000   10.1330   27.7380 C.2   235  VAL235      0.2260
    140  O        -47.4000   10.6950   27.5980 O.2   235  VAL235     -0.2867
    141  CB       -50.1720   10.6370   29.5470 C.3   235  VAL235      0.0252
    142  CG1      -50.6540   10.2220   30.9520 C.3   235  VAL235      0.0019
    143  CG2      -49.8080   12.1080   29.5830 C.3   235  VAL235      0.0019
    144  N        -49.1440   12.5840   25.7440 N.3   237  ALA237     -0.1231
    145  CA       -48.7530   13.9970   25.4800 C.3   237  ALA237      0.1694
    146  C        -47.3390   14.3250   26.0250 C.2   237  ALA237      0.2592
    147  O        -46.6050   15.1230   25.4600 O.2   237  ALA237     -0.2718
    148  CB       -49.7700   14.9620   26.1320 C.3   237  ALA237      0.0304
    149  N        -47.0230   13.7790   27.1750 N.am  238  THR238     -0.1953
    150  CA       -45.7090   14.0170   27.7930 C.3   238  THR238      0.1897
    151  C        -44.6000   13.2300   27.0290 C.2   238  THR238      0.2313
    152  O        -43.4570   13.7530   26.8210 O.2   238  THR238     -0.2863
    153  CB       -45.6950   13.7210   29.2810 C.3   238  THR238      0.1794
    154  OG1      -46.0180   12.3490   29.5570 O.3   238  THR238     -0.2208
    155  CG2      -46.7420   14.6210   30.0260 C.3   238  THR238      0.0378
    156  N        -40.3960    6.8760   32.9550 N.3   255  VAL255     -0.1231
    157  CA       -40.2070    6.2790   34.2940 C.3   255  VAL255      0.1692
    158  C        -41.5270    6.2490   35.0110 C.2   255  VAL255      0.2593
    159  O        -41.7740    5.3300   35.7650 O.2   255  VAL255     -0.2718
    160  CB       -39.0710    6.9640   35.1320 C.3   255  VAL255      0.0266
    161  CG1      -37.7140    6.6200   34.5340 C.3   255  VAL255      0.0020
    162  CG2      -39.1870    8.4780   35.0770 C.3   255  VAL255      0.0020
    163  N        -42.4180    7.1580   34.6750 N.am  256  GLY256     -0.1942
    164  CA       -43.7860    7.0760   35.1250 C.3   256  GLY256      0.2014
    165  C        -44.6450    5.9730   34.5490 C.2   256  GLY256      0.2639
    166  O        -44.2980    5.3690   33.5270 O.2   256  GLY256     -0.2714
    167  N        -45.8430    5.8310   35.1000 N.am  257  LEU257     -0.1963
    168  CA       -46.7580    4.7980   34.6690 C.3   257  LEU257      0.1728
    169  C        -48.1620    5.3540   34.3820 C.2   257  LEU257      0.2616
    170  O        -49.1560    4.8000   34.8220 O.2   257  LEU257     -0.2715
    171  CB       -46.7470    3.6940   35.7440 C.3   257  LEU257      0.0311
    172  CG       -47.1920    2.2880   35.4000 C.3   257  LEU257      0.0022
    173  CD1      -46.2920    1.6430   34.3540 C.3   257  LEU257      0.0001
    174  CD2      -47.2080    1.4390   36.6740 C.3   257  LEU257      0.0001
    175  N        -48.2660    6.3760   33.5520 N.am  258  GLY258     -0.1955
    176  CA       -49.5380    7.0720   33.3630 C.3   258  GLY258      0.1869
    177  C        -50.4520    6.4880   32.2760 C.2   258  GLY258      0.2309
    178  O        -51.6520    6.8410   32.1850 O.2   258  GLY258     -0.2863
@<TRIPOS>BOND
     1   147   146    2
     2   145   144    1
     3   145   146    1
     4   145   148    1
     5   146   149   am
     6   152   151    2
     7   151   150    1
     8   149   150    1
     9   140   139    2
    10   139   138    1
    11   150   153    1
    12   138   141    1
    13   138   137    1
    14   153   154    1
    15   153   155    1
    16    41    39    1
    17   141   143    1
    18   141   142    1
    19    77    76    1
    20    78    76    1
    21    39    38    1
    22    76    75    1
    23   113   112    2
    24   112   111    1
    25    40    38    1
    26    38    35    1
    27    75    72    1
    28   178   177    2
    29   177   176    1
    30   111   114    1
    31   111   110    1
    32   115   114    1
    33   115   116    1
    34   118   116   ar
    35   136   134    1
    36   156   157    1
    37   116   117   ar
    38   132   133    2
    39   132   131    1
    40    35    34    1
    41    35    36    1
    42   176   175    1
    43    72    71    1
    44    72    73    1
    45   166   165    2
    46   175   169   am
    47   135   134    1
    48   134   131    1
    49   131   130    1
    50   119   120    1
    51   130   121   am
    52   157   158    1
    53   157   160    1
    54   173   172    1
    55    73    74    2
    56    73    79   am
    57   169   168    1
    58   169   170    2
    59    36    37    2
    60    36    42   am
    61   161   160    1
    62   165   167   am
    63   165   164    1
    64   168   167    1
    65   168   171    1
    66   163   158   am
    67   163   164    1
    68    79    80    1
    69   158   159    2
    70    91    88    1
    71    91    92    1
    72   162   160    1
    73    42    43    1
    74   121   120    1
    75   121   122    2
    76   172   171    1
    77   172   174    1
    78   120   123    1
    79    88    87    1
    80    88    89    1
    81    82    81    2
    82    93    92    1
    83    93    94    1
    84    81    87   am
    85    81    80    1
    86    80    83    1
    87    95    94    1
    88   126   128   ar
    89   126   124   ar
    90   128   129   ar
    91    43    44    1
    92    90    89    2
    93   123   124    1
    94    89    96   am
    95   124   125   ar
    96   129   127   ar
    97    83    84    1
    98   125   127   ar
    99    44    45    2
   100    44    46   am
   101    96    97    1
   102    84    85   ar
   103    84    86   ar
   104    46    47    1
   105    97    98    1
   106    97   100    1
   107    30    29    2
   108    98    99    2
   109    50    47    1
   110    47    48    1
   111   101   102    1
   112   101   100    1
   113   102   103    1
   114    68    69    1
   115    68    67    1
   116    33    31    1
   117    29    28    1
   118    70    69    2
   119   104   103    1
   120    66    64    1
   121    67    61   am
   122    48    51   am
   123    48    49    2
   124    51    52    1
   125   109   106    1
   126    63    64    1
   127    63    60    1
   128   107   108    2
   129   107   106    1
   130    28    31    1
   131    28    27    1
   132    31    32    1
   133    61    62    2
   134    61    60    1
   135    64    65    1
   136   106   105    1
   137    26    24   ar
   138    26    25   ar
   139    60    59    1
   140    24    22   ar
   141    25    23   ar
   142    52    53    1
   143    22    23   ar
   144    22    21    1
   145    59    57   am
   146    21    18    1
   147    53    54    2
   148    53    55   am
   149    16    15    1
   150    55    56    1
   151    20    19    2
   152    57    58    2
   153    57    56    1
   154    18    19    1
   155    18    17    1
   156    15    12    1
   157     5     6    1
   158     5     2    1
   159    12    11    1
   160    12    13    1
   161     8     6   ar
   162     8    10   ar
   163     6     7   ar
   164    11     3   am
   165     4     3    2
   166    14    13    2
   167    10     9   ar
   168     3     2    1
   169     7     9   ar
   170     2     1    1
