@<TRIPOS>MOLECULE
tmp/4c4tA00.pdb
 151 145 0 0 0
SMALL
GASTEIGER

@<TRIPOS>ATOM
      1  N          7.2510    3.4870  -11.4500 N.3     8  ASP8       -0.1239
      2  CA         7.1910    2.0320  -11.3360 C.3     8  ASP8        0.1674
      3  C          6.9250    1.6810   -9.8710 C.2     8  ASP8        0.2266
      4  O          7.1450    2.5120   -8.9610 O.2     8  ASP8       -0.2867
      5  CB         8.5080    1.4130  -11.8520 C.3     8  ASP8        0.1410
      6  CG         8.5650   -0.1010  -11.6950 C.2     8  ASP8        0.3668
      7  OD1        7.6190   -0.7890  -12.1550 O.co2   8  ASP8       -0.2456
      8  OD2        9.5950   -0.5950  -11.1410 O.co2   8  ASP8       -0.2456
      9  N          7.4460   -2.0840   -8.3290 N.3    10  ASP10      -0.1239
     10  CA         8.2930   -3.1270   -7.7510 C.3    10  ASP10       0.1674
     11  C          9.7560   -2.7330   -7.8790 C.2    10  ASP10       0.2266
     12  O         10.2270   -2.4470   -8.9810 O.2    10  ASP10      -0.2867
     13  CB         8.0540   -4.4370   -8.4700 C.3    10  ASP10       0.1410
     14  CG         6.5780   -4.8640   -8.4720 C.2    10  ASP10       0.3668
     15  OD1        5.9120   -4.8370   -7.4070 O.co2  10  ASP10      -0.2456
     16  OD2        6.0800   -5.2410   -9.5530 O.co2  10  ASP10      -0.2456
     17  N          8.9050  -10.9860   -6.3490 N.3    20  HIS20      -0.1241
     18  CA         8.6850  -11.4800   -7.6940 C.3    20  HIS20       0.1621
     19  C          9.7890  -12.4500   -8.1150 C.2    20  HIS20       0.2264
     20  O          9.5140  -13.5070   -8.7030 O.2    20  HIS20      -0.2867
     21  CB         8.5860  -10.3220   -8.6830 C.3    20  HIS20       0.0745
     22  CG         7.2370   -9.6830   -8.7400 C.ar   20  HIS20       0.0817
     23  ND1        6.0970  -10.3960   -9.0350 N.ar   20  HIS20      -0.2268
     24  CD2        6.8440   -8.4000   -8.5480 C.ar   20  HIS20       0.1154
     25  CE1        5.0580   -9.5780   -9.0190 C.ar   20  HIS20       0.1986
     26  NE2        5.4890   -8.3630   -8.7070 N.ar   20  HIS20      -0.2212
     27  N          9.0950  -16.3760   -8.9390 N.3    24  TRP24      -0.1241
     28  CA         9.3870  -16.9380  -10.2600 C.3    24  TRP24       0.1605
     29  C         10.4290  -18.0560  -10.1760 C.2    24  TRP24       0.2264
     30  O         10.3150  -19.0510  -10.8940 O.2    24  TRP24      -0.2867
     31  CB         9.9060  -15.8720  -11.2390 C.3    24  TRP24       0.0550
     32  CG         8.8630  -14.9740  -11.8480 C.ar   24  TRP24       0.0003
     33  CD1        8.8510  -13.6200  -11.8050 C.ar   24  TRP24       0.0946
     34  CD2        7.7180  -15.3540  -12.6250 C.ar   24  TRP24       0.0152
     35  NE1        7.7960  -13.1200  -12.5040 N.ar   24  TRP24      -0.2442
     36  CE2        7.0570  -14.1670  -12.9990 C.ar   24  TRP24       0.0810
     37  CE3        7.1690  -16.5820  -13.0330 C.ar   24  TRP24       0.0012
     38  CZ2        5.8890  -14.1580  -13.7550 C.ar   24  TRP24       0.0191
     39  CZ3        5.9970  -16.5760  -13.7800 C.ar   24  TRP24       0.0001
     40  CH2        5.3740  -15.3930  -14.1470 C.ar   24  TRP24       0.0015
     41  N         13.5310  -10.3380  -16.1220 N.3    44  LEU44      -0.1231
     42  CA        12.1580  -10.4630  -15.6590 C.3    44  LEU44       0.1693
     43  C         11.6480   -9.2010  -14.9370 C.2    44  LEU44       0.2592
     44  O         10.4470   -9.0240  -14.7860 O.2    44  LEU44      -0.2718
     45  CB        12.0220  -11.6720  -14.7290 C.3    44  LEU44       0.0284
     46  CG        12.4760  -13.0130  -15.3140 C.3    44  LEU44       0.0019
     47  CD1       12.2570  -14.1160  -14.2900 C.3    44  LEU44       0.0001
     48  CD2       11.7800  -13.3390  -16.6300 C.3    44  LEU44       0.0001
     49  N         12.5330   -8.3260  -14.4870 N.am   45  LYS45      -0.1966
     50  CA        12.0860   -7.0530  -13.8900 C.3    45  LYS45       0.1728
     51  C         11.3920   -6.2060  -14.9470 C.2    45  LYS45       0.2617
     52  O         11.8960   -6.0460  -16.0540 O.2    45  LYS45      -0.2715
     53  CB        13.2750   -6.2930  -13.2890 C.3    45  LYS45       0.0311
     54  CG        13.9060   -6.9760  -12.0840 C.3    45  LYS45       0.0038
     55  CD        15.0260   -6.1320  -11.4590 C.3    45  LYS45       0.0206
     56  CE        15.5850   -6.7710  -10.1680 C.3    45  LYS45       0.1093
     57  NZ        16.7940   -6.0590   -9.6770 N.3    45  LYS45      -0.1314
     58  N         10.2090   -5.6820  -14.6220 N.am   46  GLY46      -0.1940
     59  CA         9.4810   -4.8100  -15.5120 C.3    46  GLY46       0.2014
     60  C          8.6500   -5.4820  -16.5830 C.2    46  GLY46       0.2639
     61  O          7.8580   -4.8420  -17.2400 O.2    46  GLY46      -0.2714
     62  N          8.8050   -6.7890  -16.7250 N.am   47  VAL47      -0.1963
     63  CA         8.1720   -7.5370  -17.8000 C.3    47  VAL47       0.1727
     64  C          6.8310   -8.0990  -17.3350 C.2    47  VAL47       0.2617
     65  O          6.7120   -8.5610  -16.2120 O.2    47  VAL47      -0.2715
     66  CB         9.1320   -8.6610  -18.2370 C.3    47  VAL47       0.0290
     67  CG1        8.4940   -9.5870  -19.2280 C.3    47  VAL47       0.0023
     68  CG2       10.3680   -8.0100  -18.8410 C.3    47  VAL47       0.0023
     69  N          5.8180   -8.0470  -18.1900 N.am   48  SER48      -0.1936
     70  CA         4.4870   -8.5510  -17.8320 C.3    48  SER48       0.2055
     71  C          4.5000  -10.0000  -17.3280 C.2    48  SER48       0.2642
     72  O          5.4570  -10.7400  -17.5550 O.2    48  SER48      -0.2714
     73  CB         3.5510   -8.4530  -19.0420 C.3    48  SER48       0.2130
     74  OG         3.7750   -9.5680  -19.9070 O.3    48  SER48      -0.2179
     75  N          3.4300  -10.3990  -16.6500 N.am   49  ARG49      -0.1977
     76  CA         3.3920  -11.7000  -16.0230 C.3    49  ARG49       0.1597
     77  C          3.5490  -12.8120  -17.0770 C.2    49  ARG49       0.2287
     78  O          4.3500  -13.7170  -16.9180 O.2    49  ARG49      -0.2864
     79  CB         2.0980  -11.8630  -15.2440 C.3    49  ARG49       0.0334
     80  CG         2.0630  -13.0980  -14.3570 C.3    49  ARG49       0.0492
     81  CD         0.7020  -13.3430  -13.7270 C.3    49  ARG49       0.2205
     82  NE         0.2730  -12.1780  -12.9450 N.pl3  49  ARG49      -0.0865
     83  CZ        -0.9220  -12.0290  -12.4120 C.cat  49  ARG49       0.5346
     84  NH1       -1.8380  -12.9940  -12.5310 N.pl3  49  ARG49       0.1354
     85  NH2       -1.2310  -10.9200  -11.7760 N.pl3  49  ARG49       0.1354
     86  N          6.9630  -12.7570  -18.6980 N.3    52  SER52      -0.1217
     87  CA         7.9430  -13.2520  -17.7380 C.3    52  SER52       0.1889
     88  C          7.9790  -14.7910  -17.7740 C.2    52  SER52       0.2288
     89  O          9.0320  -15.4090  -17.8730 O.2    52  SER52      -0.2866
     90  CB         7.5940  -12.7340  -16.3440 C.3    52  SER52       0.2089
     91  OG         7.7980  -11.3430  -16.2060 O.3    52  SER52      -0.2183
     92  N          2.1920  -18.9960   -9.8000 N.3    76  LYS76      -0.1231
     93  CA         3.2150  -18.0590   -9.3400 C.3    76  LYS76       0.1693
     94  C          2.5420  -16.8390   -8.7180 C.2    76  LYS76       0.2592
     95  O          2.9800  -16.3600   -7.6610 O.2    76  LYS76      -0.2718
     96  CB         4.1840  -17.6620  -10.4650 C.3    76  LYS76       0.0285
     97  CG         5.1980  -16.5940  -10.0460 C.3    76  LYS76       0.0035
     98  CD         4.6970  -15.1920  -10.3990 C.3    76  LYS76       0.0206
     99  CE         5.6200  -14.0830   -9.8540 C.3    76  LYS76       0.1093
    100  NZ         5.1280  -12.7790  -10.4120 N.3    76  LYS76      -0.1314
    101  N          1.4790  -16.3390   -9.3450 N.am   77  ASN77      -0.1974
    102  CA         0.7880  -15.1880   -8.7820 C.3    77  ASN77       0.1688
    103  C          0.1780  -15.4780   -7.4220 C.2    77  ASN77       0.2292
    104  O          0.2250  -14.6500   -6.5150 O.2    77  ASN77      -0.2864
    105  CB        -0.2960  -14.6370   -9.7050 C.3    77  ASN77       0.1181
    106  CG        -0.8320  -13.3020   -9.2110 C.2    77  ASN77       0.2629
    107  OD1       -0.0680  -12.3600   -8.9810 O.2    77  ASN77      -0.2716
    108  ND2       -2.1220  -13.2200   -9.0130 N.am   77  ASN77      -0.0877
    109  N          2.8570    0.9810  -13.3760 N.3   114  SER114     -0.1202
    110  CA         3.2450   -0.3940  -13.0780 C.3   114  SER114      0.2020
    111  C          2.5600   -1.4080  -13.9830 C.2   114  SER114      0.2619
    112  O          1.3960   -1.2650  -14.3350 O.2   114  SER114     -0.2717
    113  CB         2.9280   -0.7200  -11.6040 C.3   114  SER114      0.2103
    114  OG         3.2590   -2.0610  -11.2690 O.3   114  SER114     -0.2182
    115  N          3.3060   -2.4480  -14.3260 N.am  115  ALA115     -0.1965
    116  CA         2.7770   -3.6220  -14.9990 C.3   115  ALA115      0.1728
    117  C          1.8490   -4.4470  -14.1310 C.2   115  ALA115      0.2617
    118  O          1.1810   -5.3530  -14.6390 O.2   115  ALA115     -0.2715
    119  CB         3.9340   -4.5090  -15.4160 C.3   115  ALA115      0.0334
    120  N          1.8560   -4.2020  -12.8200 N.am  116  SER116     -0.1936
    121  CA         1.3250   -5.1860  -11.8690 C.3   116  SER116      0.2055
    122  C         -0.1400   -5.0400  -11.5500 C.2   116  SER116      0.2643
    123  O         -0.6150   -3.9700  -11.1500 O.2   116  SER116     -0.2714
    124  CB         2.1320   -5.1630  -10.5790 C.3   116  SER116      0.2130
    125  OG         1.6220   -6.1150   -9.6470 O.3   116  SER116     -0.2179
    126  N         -0.8640   -6.1500  -11.7090 N.am  117  LYS117     -0.1963
    127  CA        -2.2570   -6.2080  -11.2940 C.3   117  LYS117      0.1728
    128  C         -2.3740   -6.1530   -9.7840 C.2   117  LYS117      0.2616
    129  O         -3.4400   -5.8180   -9.2610 O.2   117  LYS117     -0.2715
    130  CB        -2.9550   -7.4420  -11.8780 C.3   117  LYS117      0.0311
    131  CG        -3.0520   -7.3040  -13.3800 C.3   117  LYS117      0.0038
    132  CD        -3.8300   -8.4290  -14.0810 C.3   117  LYS117      0.0206
    133  CE        -3.5670   -8.4030  -15.5920 C.3   117  LYS117      0.1093
    134  NZ        -4.5950   -9.1310  -16.3940 N.3   117  LYS117     -0.1314
    135  N         -1.2670   -6.4180   -9.0990 N.am  118  ASN118     -0.1972
    136  CA        -1.2150   -6.3050   -7.6430 C.3   118  ASN118      0.1688
    137  C         -0.9050   -4.8630   -7.1500 C.2   118  ASN118      0.2292
    138  O         -0.8200   -4.6350   -5.9620 O.2   118  ASN118     -0.2864
    139  CB        -0.2070   -7.3160   -7.1030 C.3   118  ASN118      0.1181
    140  CG        -0.5990   -8.7390   -7.4610 C.2   118  ASN118      0.2629
    141  OD1       -1.6610   -9.1910   -7.0480 O.2   118  ASN118     -0.2716
    142  ND2        0.1980   -9.4150   -8.2820 N.am  118  ASN118     -0.0877
    143  N          5.9120   -3.1810  -21.0400 N.3   145  LYS145     -0.1245
    144  CA         7.3220   -2.8290  -21.0560 C.3   145  LYS145      0.1561
    145  C          8.1000   -3.9610  -21.7070 C.2   145  LYS145      0.2260
    146  O          7.8550   -5.1290  -21.3950 O.2   145  LYS145     -0.2867
    147  CB         7.8280   -2.5820  -19.6370 C.3   145  LYS145      0.0271
    148  CG         7.0500   -1.5570  -18.8680 C.3   145  LYS145      0.0035
    149  CD         7.4640   -1.4940  -17.3800 C.3   145  LYS145      0.0206
    150  CE         6.5320   -0.6160  -16.6020 C.3   145  LYS145      0.1093
    151  NZ         6.8980   -0.5110  -15.1380 N.3   145  LYS145     -0.1314
@<TRIPOS>BOND
     1   145   146    2
     2   145   144    1
     3   144   143    1
     4   144   147    1
     5    74    73    1
     6   147   148    1
     7    67    66    1
     8    73    70    1
     9   148   149    1
    10    68    66    1
    11    86    87    1
    12    66    63    1
    13    69    70    1
    14    69    64   am
    15    89    88    2
    16    70    71    1
    17    63    64    1
    18    63    62    1
    19    88    87    1
    20    87    90    1
    21    72    71    2
    22   149   150    1
    23    64    65    2
    24    71    75   am
    25    61    60    2
    26    77    78    2
    27    77    76    1
    28    62    60   am
    29    75    76    1
    30    48    46    1
    31   150   151    1
    32    60    59    1
    33   134   133    1
    34    90    91    1
    35    41    42    1
    36    52    51    2
    37    76    79    1
    38    42    43    1
    39    42    45    1
    40   133   132    1
    41    59    58    1
    42   119   116    1
    43    46    45    1
    44    46    47    1
    45    79    80    1
    46   116   115    1
    47   116   117    1
    48    51    58   am
    49    51    50    1
    50    43    44    2
    51    43    49   am
    52   118   117    2
    53    49    50    1
    54    80    81    1
    55   112   111    2
    56   115   111   am
    57    40    39   ar
    58    40    38   ar
    59   117   120   am
    60   132   131    1
    61   111   110    1
    62    50    53    1
    63    39    37   ar
    64    38    36   ar
    65    81    82    1
    66   131   130    1
    67   109   110    1
    68    53    54    1
    69   110   113    1
    70    37    34   ar
    71    36    34   ar
    72    36    35   ar
    73    82    83    2
    74   120   121    1
    75    34    32   ar
    76    84    83    1
    77    35    33   ar
    78    83    85    1
    79     7     6   ar
    80    54    55    1
    81   130   127    1
    82   121   122    1
    83   121   124    1
    84     5     6    1
    85     5     2    1
    86    32    33   ar
    87    32    31    1
    88   126   122   am
    89   126   127    1
    90     6     8   ar
    91   113   114    1
    92   122   123    2
    93    55    56    1
    94     1     2    1
    95     2     3    1
    96   127   128    1
    97    31    28    1
    98    30    29    2
    99   124   125    1
   100    96    97    1
   101    96    93    1
   102   100    99    1
   103    98    97    1
   104    98    99    1
   105    28    29    1
   106    28    27    1
   107    56    57    1
   108     3     4    2
   109    92    93    1
   110   128   129    2
   111   128   135   am
   112   105   106    1
   113   105   102    1
   114    16    14   ar
   115   101   102    1
   116   101    94   am
   117    93    94    1
   118   106   108   am
   119   106   107    2
   120   135   136    1
   121    23    25   ar
   122    23    22   ar
   123    25    26   ar
   124    12    11    2
   125   102   103    1
   126    22    21    1
   127    22    24   ar
   128    94    95    2
   129    26    24   ar
   130    20    19    2
   131    21    18    1
   132    14    13    1
   133    14    15   ar
   134    13    10    1
   135     9    10    1
   136   142   140   am
   137    19    18    1
   138    11    10    1
   139    18    17    1
   140   136   137    1
   141   136   139    1
   142   140   139    1
   143   140   141    2
   144   103   104    2
   145   137   138    2
