@<TRIPOS>MOLECULE
tmp/4c4xB00.pdb
 189 185 0 0 0
SMALL
GASTEIGER

@<TRIPOS>ATOM
      1  N         11.8710   13.5770    3.4990 N.3    34  PHE34      -0.1228
      2  CA        13.2840   13.8930    3.2910 C.3    34  PHE34       0.1721
      3  C         13.5880   15.3830    3.4980 C.2    34  PHE34       0.2437
      4  O         12.8900   16.2160    2.9180 O.2    34  PHE34      -0.2733
      5  CB        13.7250   13.4590    1.8700 C.3    34  PHE34       0.0547
      6  CG        15.1300   13.8600    1.4690 C.ar   34  PHE34      -0.0202
      7  CD1       15.3880   15.1160    0.9280 C.ar   34  PHE34      -0.0042
      8  CD2       16.1910   12.9760    1.6150 C.ar   34  PHE34      -0.0042
      9  CE1       16.6860   15.4920    0.5720 C.ar   34  PHE34      -0.0003
     10  CE2       17.4880   13.3490    1.2470 C.ar   34  PHE34      -0.0003
     11  CZ        17.7270   14.6060    0.7340 C.ar   34  PHE34      -0.0000
     12  N         14.6850   15.7560    4.2040 N.am   35  PRO35      -0.2729
     13  CA        15.6480   14.9430    4.9640 C.3    35  PRO35       0.1401
     14  C         15.2670   15.0610    6.4500 C.2    35  PRO35       0.2269
     15  O         15.8830   15.8180    7.2100 O.2    35  PRO35      -0.2865
     16  CB        16.9740   15.6460    4.6350 C.3    35  PRO35       0.0296
     17  CG        16.5810   17.1190    4.3070 C.3    35  PRO35       0.0237
     18  CD        15.0600   17.1750    4.3100 C.3    35  PRO35       0.0939
     19  N          5.7010   13.7800    2.6700 N.3   102  ASP102     -0.1225
     20  CA         6.7660   13.7710    1.6590 C.3   102  ASP102      0.1805
     21  C          7.0560   12.3450    1.1400 C.2   102  ASP102      0.2597
     22  O          6.1340   11.7180    0.6200 O.2   102  ASP102     -0.2718
     23  CB         8.0100   14.5080    2.1830 C.3   102  ASP102      0.1424
     24  CG         9.0220   14.8290    1.1190 C.2   102  ASP102      0.3668
     25  OD1        8.7730   15.7550    0.3380 O.co2 102  ASP102     -0.2456
     26  OD2       10.0630   14.1420    1.0650 O.co2 102  ASP102     -0.2456
     27  N          8.2910   11.8130    1.3140 N.am  103  TRP103     -0.1976
     28  CA         8.6350   10.4500    0.8940 C.3   103  TRP103      0.1640
     29  C          7.8980    9.3940    1.7220 C.2   103  TRP103      0.2290
     30  O          7.6010    8.3150    1.2100 O.2   103  TRP103     -0.2864
     31  CB        10.1530   10.2190    0.8590 C.3   103  TRP103      0.0576
     32  CG        10.7640   10.5640   -0.4690 C.ar  103  TRP103      0.0006
     33  CD1       11.5060   11.6690   -0.7660 C.ar  103  TRP103      0.0946
     34  CD2       10.6100    9.8410   -1.6990 C.ar  103  TRP103      0.0152
     35  NE1       11.8540   11.6620   -2.0970 N.ar  103  TRP103     -0.2442
     36  CE2       11.3130   10.5530   -2.6960 C.ar  103  TRP103      0.0810
     37  CE3        9.9590    8.6460   -2.0550 C.ar  103  TRP103      0.0012
     38  CZ2       11.3870   10.1110   -4.0220 C.ar  103  TRP103      0.0191
     39  CZ3       10.0320    8.2090   -3.3690 C.ar  103  TRP103      0.0001
     40  CH2       10.7330    8.9400   -4.3380 C.ar  103  TRP103      0.0015
     41  N          4.5430    9.0460    0.2050 N.3   106  MET106     -0.1245
     42  CA         4.6230    8.1770   -0.9700 C.3   106  MET106      0.1570
     43  C          4.5490    6.7180   -0.4970 C.2   106  MET106      0.2261
     44  O          3.8360    5.9190   -1.1050 O.2   106  MET106     -0.2867
     45  CB         5.9250    8.4420   -1.7510 C.3   106  MET106      0.0387
     46  CG         6.0210    7.6930   -3.0730 C.3   106  MET106      0.0595
     47  SD         4.9520    8.3490   -4.3780 S.3   106  MET106     -0.1393
     48  CE         5.9200    9.7520   -4.9090 C.3   106  MET106      0.0692
     49  N          2.0460   14.8850   -0.3670 N.3   127  THR127     -0.1218
     50  CA         2.2610   13.8650   -1.3970 C.3   127  THR127      0.1862
     51  C          0.9590   13.2850   -1.9630 C.2   127  THR127      0.2287
     52  O          0.2050   12.6340   -1.2330 O.2   127  THR127     -0.2866
     53  CB         3.2510   12.7910   -0.9280 C.3   127  THR127      0.1770
     54  OG1        4.3770   13.4350   -0.3470 O.3   127  THR127     -0.2211
     55  CG2        3.7200   11.8850   -2.0660 C.3   127  THR127      0.0375
     56  N         11.2430   20.0860  -10.7940 N.3   148  PHE148     -0.1241
     57  CA        11.8510   18.8360  -10.3220 C.3   148  PHE148      0.1605
     58  C         13.2910   18.5980  -10.8410 C.2   148  PHE148      0.2264
     59  O         13.7020   17.4450  -11.0020 O.2   148  PHE148     -0.2867
     60  CB        10.9340   17.6290  -10.6190 C.3   148  PHE148      0.0534
     61  CG         9.5050   17.7450  -10.1370 C.ar  148  PHE148     -0.0203
     62  CD1        9.1850   17.5510   -8.7980 C.ar  148  PHE148     -0.0042
     63  CD2        8.4730   18.0000  -11.0310 C.ar  148  PHE148     -0.0042
     64  CE1        7.8610   17.6360   -8.3590 C.ar  148  PHE148     -0.0003
     65  CE2        7.1490   18.0900  -10.5900 C.ar  148  PHE148     -0.0003
     66  CZ         6.8520   17.9070   -9.2570 C.ar  148  PHE148     -0.0000
     67  N         16.1720   19.4190   -9.2050 N.3   150  TYR150     -0.1227
     68  CA        16.9570   19.0160   -8.0270 C.3   150  TYR150      0.1736
     69  C         17.0130   17.4850   -7.8530 C.2   150  TYR150      0.2595
     70  O         17.9690   16.9740   -7.2670 O.2   150  TYR150     -0.2718
     71  CB        16.3880   19.6780   -6.7530 C.3   150  TYR150      0.0548
     72  CG        15.0060   19.1840   -6.3810 C.ar  150  TYR150     -0.0200
     73  CD1       13.8770   19.6410   -7.0520 C.ar  150  TYR150     -0.0009
     74  CD2       14.8330   18.2130   -5.3990 C.ar  150  TYR150     -0.0009
     75  CE1       12.6090   19.1590   -6.7450 C.ar  150  TYR150      0.0417
     76  CE2       13.5700   17.7190   -5.0870 C.ar  150  TYR150      0.0417
     77  CZ        12.4610   18.1980   -5.7630 C.ar  150  TYR150      0.1957
     78  OH        11.2110   17.7220   -5.4820 O.3   150  TYR150     -0.2866
     79  N         15.9650   16.7710   -8.3260 N.am  151  GLN151     -0.1979
     80  CA        15.8520   15.3120   -8.2670 C.3   151  GLN151      0.1601
     81  C         16.9140   14.6410   -9.1320 C.2   151  GLN151      0.2287
     82  O         17.4540   13.6080   -8.7360 O.2   151  GLN151     -0.2864
     83  CB        14.4490   14.8550   -8.6810 C.3   151  GLN151      0.0394
     84  CG        13.4320   14.9580   -7.5540 C.3   151  GLN151      0.0908
     85  CD        12.0990   14.3680   -7.9310 C.2   151  GLN151      0.2608
     86  OE1       11.1090   15.0790   -8.1070 O.2   151  GLN151     -0.2717
     87  NE2       12.0320   13.0490   -8.0260 N.am  151  GLN151     -0.0878
     88  N         20.1840   14.8770   -7.3950 N.3   154  PHE154     -0.1241
     89  CA        20.2040   13.9040   -6.2970 C.3   154  PHE154      0.1605
     90  C         20.4940   12.4600   -6.7640 C.2   154  PHE154      0.2264
     91  O         20.6740   11.5820   -5.9190 O.2   154  PHE154     -0.2867
     92  CB        18.8630   13.9460   -5.5270 C.3   154  PHE154      0.0534
     93  CG        18.5730   15.1400   -4.6370 C.ar  154  PHE154     -0.0203
     94  CD1       19.5590   16.0830   -4.3560 C.ar  154  PHE154     -0.0042
     95  CD2       17.3280   15.2920   -4.0360 C.ar  154  PHE154     -0.0042
     96  CE1       19.2930   17.1690   -3.5180 C.ar  154  PHE154     -0.0003
     97  CE2       17.0650   16.3790   -3.1970 C.ar  154  PHE154     -0.0003
     98  CZ        18.0480   17.3100   -2.9440 C.ar  154  PHE154     -0.0000
     99  N         16.9530   24.6280    4.5400 N.3   175  LEU175     -0.1245
    100  CA        15.8140   23.8080    4.1230 C.3   175  LEU175      0.1561
    101  C         14.5500   24.0840    4.9290 C.2   175  LEU175      0.2260
    102  O         13.5260   24.4210    4.3360 O.2   175  LEU175     -0.2867
    103  CB        16.1520   22.3030    4.1360 C.3   175  LEU175      0.0270
    104  CG        17.1610   21.8140    3.0930 C.3   175  LEU175      0.0019
    105  CD1       17.7990   20.5190    3.5240 C.3   175  LEU175      0.0001
    106  CD2       16.5300   21.6680    1.7220 C.3   175  LEU175      0.0001
    107  N         15.7570   28.8460   -1.7420 N.3   184  LEU184     -0.1245
    108  CA        15.9780   27.7450   -2.6820 C.3   184  LEU184      0.1561
    109  C         15.3760   28.0130   -4.0600 C.2   184  LEU184      0.2260
    110  O         14.2490   28.5000   -4.1650 O.2   184  LEU184     -0.2867
    111  CB        15.4250   26.4170   -2.1220 C.3   184  LEU184      0.0270
    112  CG        16.0710   25.8540   -0.8490 C.3   184  LEU184      0.0019
    113  CD1       15.1220   24.9180   -0.1320 C.3   184  LEU184      0.0001
    114  CD2       17.3760   25.1330   -1.1540 C.3   184  LEU184      0.0001
    115  N         15.2330   25.4250   -6.7660 N.3   186  MET186     -0.1245
    116  CA        15.3320   24.0290   -7.2120 C.3   186  MET186      0.1570
    117  C         15.0290   23.7500   -8.7020 C.2   186  MET186      0.2261
    118  O         15.2220   22.6190   -9.1580 O.2   186  MET186     -0.2867
    119  CB        14.5610   23.0810   -6.2640 C.3   186  MET186      0.0387
    120  CG        13.0400   23.2090   -6.3310 C.3   186  MET186      0.0595
    121  SD        12.3720   24.6330   -5.4340 S.3   186  MET186     -0.1393
    122  CE        12.3830   24.0030   -3.7660 C.3   186  MET186      0.0692
    123  N         22.6450   23.2140   -4.1990 N.3   195  LEU195     -0.1245
    124  CA        21.2550   23.5250   -3.8570 C.3   195  LEU195      0.1561
    125  C         21.1620   24.8000   -3.0040 C.2   195  LEU195      0.2260
    126  O         20.1720   25.5270   -3.1060 O.2   195  LEU195     -0.2867
    127  CB        20.6320   22.3310   -3.1070 C.3   195  LEU195      0.0270
    128  CG        19.1030   22.2650   -3.0330 C.3   195  LEU195      0.0019
    129  CD1       18.5160   21.6210   -4.2780 C.3   195  LEU195      0.0001
    130  CD2       18.6560   21.4880   -1.8130 C.3   195  LEU195      0.0001
    131  N         15.3750    8.6540   -3.6090 N.3   233  TYR233     -0.1241
    132  CA        15.2430    9.3270   -4.9070 C.3   233  TYR233      0.1605
    133  C         15.8060    8.4910   -6.0550 C.2   233  TYR233      0.2264
    134  O         15.3940    8.6750   -7.2010 O.2   233  TYR233     -0.2867
    135  CB        16.0320   10.6460   -4.8790 C.3   233  TYR233      0.0534
    136  CG        15.4060   11.7460   -4.0580 C.ar  233  TYR233     -0.0201
    137  CD1       15.6520   11.8510   -2.6920 C.ar  233  TYR233     -0.0009
    138  CD2       14.6210   12.7250   -4.6560 C.ar  233  TYR233     -0.0009
    139  CE1       15.0960   12.8780   -1.9340 C.ar  233  TYR233      0.0417
    140  CE2       14.0730   13.7640   -3.9130 C.ar  233  TYR233      0.0417
    141  CZ        14.3050   13.8330   -2.5500 C.ar  233  TYR233      0.1957
    142  OH        13.7500   14.8520   -1.8200 O.3   233  TYR233     -0.2866
    143  N         13.6280    5.5230   -8.9550 N.3   236  MET236     -0.1245
    144  CA        12.5460    5.9910   -9.8300 C.3   236  MET236      0.1570
    145  C         12.0010    4.9460  -10.8020 C.2   236  MET236      0.2261
    146  O         10.7870    4.7340  -10.8270 O.2   236  MET236     -0.2867
    147  CB        12.9410    7.2860  -10.5610 C.3   236  MET236      0.0387
    148  CG        12.0530    8.4620  -10.2220 C.3   236  MET236      0.0595
    149  SD        12.2860    9.0920   -8.5400 S.3   236  MET236     -0.1393
    150  CE        10.7330    9.8990   -8.2970 C.3   236  MET236      0.0692
    151  N          6.6720   22.3710   -4.7790 N.3   265  VAL265     -0.1231
    152  CA         7.0920   21.1070   -5.3790 C.3   265  VAL265      0.1692
    153  C          5.8850   20.1600   -5.4320 C.2   265  VAL265      0.2591
    154  O          5.4940   19.7310   -6.5200 O.2   265  VAL265     -0.2718
    155  CB         8.3150   20.5000   -4.6460 C.3   265  VAL265      0.0266
    156  CG1        8.5170   19.0390   -5.0300 C.3   265  VAL265      0.0020
    157  CG2        9.5780   21.3120   -4.9260 C.3   265  VAL265      0.0020
    158  N          5.2930   19.8550   -4.2620 N.am  266  LEU266     -0.1980
    159  CA         4.1210   18.9910   -4.1490 C.3   266  LEU266      0.1596
    160  C          2.8870   19.8950   -4.0940 C.2   266  LEU266      0.2287
    161  O          2.2240   20.0110   -3.0580 O.2   266  LEU266     -0.2864
    162  CB         4.2270   18.0600   -2.9170 C.3   266  LEU266      0.0297
    163  CG         5.4390   17.1120   -2.8600 C.3   266  LEU266      0.0022
    164  CD1        5.6580   16.5890   -1.4530 C.3   266  LEU266      0.0001
    165  CD2        5.2970   15.9540   -3.8410 C.3   266  LEU266      0.0001
    166  N          6.1690   23.5420    2.4180 N.3   291  HIS291     -0.1226
    167  CA         6.4990   22.1240    2.2820 C.3   291  HIS291      0.1752
    168  C          6.5700   21.3910    3.6260 C.2   291  HIS291      0.2596
    169  O          6.1210   20.2490    3.7260 O.2   291  HIS291     -0.2718
    170  CB         7.8140   21.9460    1.5100 C.3   291  HIS291      0.0759
    171  CG         8.2110   20.5130    1.3620 C.ar  291  HIS291      0.0818
    172  ND1        7.5550   19.6760    0.4800 N.ar  291  HIS291     -0.2268
    173  CD2        9.1430   19.7990    2.0360 C.ar  291  HIS291      0.1154
    174  CE1        8.1230   18.4940    0.6230 C.ar  291  HIS291      0.1986
    175  NE2        9.0840   18.5180    1.5480 N.ar  291  HIS291     -0.2212
    176  N          7.1460   22.0440    4.6430 N.am  292  TRP292     -0.1976
    177  CA         7.3490   21.4950    5.9840 C.3   292  TRP292      0.1640
    178  C          6.0780   21.6550    6.8260 C.2   292  TRP292      0.2290
    179  O          6.0740   22.3510    7.8390 O.2   292  TRP292     -0.2864
    180  CB         8.5910   22.1460    6.6260 C.3   292  TRP292      0.0576
    181  CG         9.7120   22.3340    5.6460 C.ar  292  TRP292      0.0006
    182  CD1       10.0240   23.4790    4.9730 C.ar  292  TRP292      0.0946
    183  CD2       10.5680   21.3120    5.1160 C.ar  292  TRP292      0.0152
    184  NE1       11.0540   23.2450    4.0930 N.ar  292  TRP292     -0.2442
    185  CE2       11.4150   21.9250    4.1670 C.ar  292  TRP292      0.0810
    186  CE3       10.7250   19.9400    5.3780 C.ar  292  TRP292      0.0012
    187  CZ2       12.4050   21.2150    3.4770 C.ar  292  TRP292      0.0191
    188  CZ3       11.7080   19.2380    4.6970 C.ar  292  TRP292      0.0001
    189  CH2       12.5310   19.8720    3.7550 C.ar  292  TRP292      0.0015
@<TRIPOS>BOND
     1    63    65   ar
     2    63    61   ar
     3    59    58    2
     4    58    57    1
     5   146   145    2
     6   145   144    1
     7    56    57    1
     8    60    57    1
     9    60    61    1
    10    65    66   ar
    11   147   148    1
    12   147   144    1
    13   148   149    1
    14    61    62   ar
    15   144   143    1
    16    66    64   ar
    17    67    68    1
    18   118   117    2
    19    81    82    2
    20    81    80    1
    21    62    64   ar
    22   117   116    1
    23    83    80    1
    24    83    84    1
    25   149   150    1
    26    79    80    1
    27    79    69   am
    28    86    85    2
    29    68    69    1
    30    68    71    1
    31    87    85   am
    32    85    84    1
    33    69    70    2
    34    88    89    1
    35   116   115    1
    36   116   119    1
    37   134   133    2
    38    73    75   ar
    39    73    72   ar
    40    90    89    1
    41    90    91    2
    42    71    72    1
    43    75    77   ar
    44   154   153    2
    45    72    74   ar
    46   120   119    1
    47   120   121    1
    48    89    92    1
    49   133   132    1
    50    77    78    1
    51    77    76   ar
    52    92    93    1
    53   121   122    1
    54   153   152    1
    55   153   158   am
    56    74    76   ar
    57   152   151    1
    58   152   155    1
    59   156   155    1
    60   157   155    1
    61    48    47    1
    62   132   135    1
    63   132   131    1
    64   135   136    1
    65   138   136   ar
    66   138   140   ar
    67    93    94   ar
    68    93    95   ar
    69    47    46    1
    70    94    96   ar
    71    40    38   ar
    72    40    39   ar
    73   129   128    1
    74   158   159    1
    75   123   124    1
    76   110   109    2
    77   159   160    1
    78   159   162    1
    79   160   161    2
    80   109   108    1
    81   136   137   ar
    82    95    97   ar
    83    38    36   ar
    84   140   141   ar
    85   124   127    1
    86   124   125    1
    87   165   163    1
    88    96    98   ar
    89    39    37   ar
    90    97    98   ar
    91   127   128    1
    92   126   125    2
    93    46    45    1
    94   128   130    1
    95   162   163    1
    96   163   164    1
    97    36    35   ar
    98    36    34   ar
    99   137   139   ar
   100   108   111    1
   101   108   107    1
   102   141   139   ar
   103   141   142    1
   104   111   112    1
   105    35    33   ar
   106    55    53    1
   107    37    34   ar
   108    51    50    1
   109    51    52    2
   110    45    42    1
   111    34    32   ar
   112    50    53    1
   113    50    49    1
   114   114   112    1
   115    44    43    2
   116    42    43    1
   117    42    41    1
   118    53    54    1
   119   112   113    1
   120    33    32   ar
   121    32    31    1
   122    25    24   ar
   123   172   174   ar
   124   172   171   ar
   125     9    11   ar
   126     9     7   ar
   127    22    21    2
   128   174   175   ar
   129    11    10   ar
   130    31    28    1
   131    28    27    1
   132    28    29    1
   133     7     6   ar
   134    26    24   ar
   135    24    23    1
   136    21    27   am
   137    21    20    1
   138    30    29    2
   139    10     8   ar
   140   171   170    1
   141   171   173   ar
   142     6     8   ar
   143     6     5    1
   144   170   167    1
   145   175   173   ar
   146    20    23    1
   147    20    19    1
   148   106   104    1
   149     5     2    1
   150   167   166    1
   151   167   168    1
   152     4     3    2
   153   104   105    1
   154   104   103    1
   155     2     3    1
   156     2     1    1
   157   187   189   ar
   158   187   185   ar
   159     3    12   am
   160   168   169    2
   161   168   176   am
   162   189   188   ar
   163   184   185   ar
   164   184   182   ar
   165   100   103    1
   166   100    99    1
   167   100   101    1
   168   185   183   ar
   169    12    18    1
   170    12    13    1
   171    17    18    1
   172    17    16    1
   173   102   101    2
   174    16    13    1
   175   176   177    1
   176   188   186   ar
   177    13    14    1
   178   182   181   ar
   179   183   186   ar
   180   183   181   ar
   181   181   180    1
   182   177   180    1
   183   177   178    1
   184    14    15    2
   185   178   179    2
