@<TRIPOS>MOLECULE
tmp/4c4yA00.pdb
 173 171 0 0 0
SMALL
GASTEIGER

@<TRIPOS>ATOM
      1  N        106.0450  104.6840   96.2390 N.3    34  PHE34      -0.1228
      2  CA       105.8910  106.1180   96.4840 C.3    34  PHE34       0.1721
      3  C        106.2120  106.4810   97.9420 C.2    34  PHE34       0.2437
      4  O        105.6490  105.8540   98.8420 O.2    34  PHE34      -0.2733
      5  CB       104.4410  106.5520   96.1510 C.3    34  PHE34       0.0547
      6  CG       104.0730  107.9810   96.4960 C.ar   34  PHE34      -0.0202
      7  CD1      103.6970  108.3290   97.7900 C.ar   34  PHE34      -0.0042
      8  CD2      104.0660  108.9680   95.5210 C.ar   34  PHE34      -0.0042
      9  CE1      103.3660  109.6490   98.1100 C.ar   34  PHE34      -0.0003
     10  CE2      103.7220  110.2870   95.8400 C.ar   34  PHE34      -0.0003
     11  CZ       103.3770  110.6180   97.1320 C.ar   34  PHE34      -0.0000
     12  N        106.9920  107.5540   98.2180 N.am   35  PRO35      -0.2729
     13  CA       107.7310  108.4410   97.3070 C.3    35  PRO35       0.1401
     14  C        109.1950  107.9790   97.2540 C.2    35  PRO35       0.2269
     15  O        110.0680  108.5540   97.9120 O.2    35  PRO35      -0.2865
     16  CB       107.5540  109.8100   97.9850 C.3    35  PRO35       0.0296
     17  CG       107.2980  109.4930   99.4890 C.3    35  PRO35       0.0237
     18  CD       107.2170  107.9830   99.6080 C.3    35  PRO35       0.0939
     19  N        104.9530   98.4680   96.7020 N.3   102  ASP102     -0.1225
     20  CA       103.9730   99.5610   96.7870 C.3   102  ASP102      0.1805
     21  C        103.2760   99.8040   95.4250 C.2   102  ASP102      0.2597
     22  O        102.6230   98.8800   94.9360 O.2   102  ASP102     -0.2718
     23  CB       104.5780  100.8240   97.4400 C.3   102  ASP102      0.1424
     24  CG       103.5830  101.9280   97.7210 C.2   102  ASP102      0.3668
     25  OD1      102.8770  101.8410   98.7420 O.co2 102  ASP102     -0.2456
     26  OD2      103.5010  102.8700   96.9060 O.co2 102  ASP102     -0.2456
     27  N        103.4420  100.9940   94.7960 N.am  103  TRP103     -0.1976
     28  CA       102.8370  101.3070   93.4960 C.3   103  TRP103      0.1640
     29  C        103.4470  100.4960   92.3600 C.2   103  TRP103      0.2290
     30  O        102.7540  100.1920   91.3890 O.2   103  TRP103     -0.2864
     31  CB       102.8610  102.8110   93.1930 C.3   103  TRP103      0.0576
     32  CG       101.6250  103.5300   93.6460 C.ar  103  TRP103      0.0006
     33  CD1      101.5210  104.4050   94.6860 C.ar  103  TRP103      0.0946
     34  CD2      100.3070  103.4090   93.0890 C.ar  103  TRP103      0.0152
     35  NE1      100.2240  104.8460   94.8070 N.ar  103  TRP103     -0.2442
     36  CE2       99.4560  104.2480   93.8410 C.ar  103  TRP103      0.0810
     37  CE3       99.7600  102.6710   92.0240 C.ar  103  TRP103      0.0012
     38  CZ2       98.0900  104.3770   93.5590 C.ar  103  TRP103      0.0191
     39  CZ3       98.4070  102.7940   91.7500 C.ar  103  TRP103      0.0001
     40  CH2       97.5860  103.6360   92.5130 C.ar  103  TRP103      0.0015
     41  N        101.6910   97.1360   92.1740 N.3   106  MET106     -0.1245
     42  CA       100.4280   97.2190   91.4370 C.3   106  MET106      0.1570
     43  C        100.7180   97.0700   89.9370 C.2   106  MET106      0.2261
     44  O         99.9990   96.3440   89.2500 O.2   106  MET106     -0.2867
     45  CB        99.7220   98.5580   91.7320 C.3   106  MET106      0.0387
     46  CG        98.3280   98.6800   91.1290 C.3   106  MET106      0.0595
     47  SD        97.0890   97.5740   91.8540 S.3   106  MET106     -0.1393
     48  CE        96.5490   98.5540   93.2340 C.3   106  MET106      0.0692
     49  N        102.1010   94.8340   98.3690 N.3   127  THR127     -0.1218
     50  CA       100.9520   95.0310   97.4750 C.3   127  THR127      0.1862
     51  C        100.1980   93.7440   97.0940 C.2   127  THR127      0.2287
     52  O        100.7500   92.8980   96.3840 O.2   127  THR127     -0.2866
     53  CB       101.3390   95.9170   96.2770 C.3   127  THR127      0.1770
     54  OG1      101.7840   97.1720   96.7780 O.3   127  THR127     -0.2211
     55  CG2      100.1810   96.1470   95.3020 C.3   127  THR127      0.0375
     56  N         92.6060  104.3980  104.1400 N.3   148  PHE148     -0.1241
     57  CA        92.9020  105.0290  102.8480 C.3   148  PHE148      0.1605
     58  C         92.3450  106.4650  102.7220 C.2   148  PHE148      0.2264
     59  O         92.1060  106.9390  101.6070 O.2   148  PHE148     -0.2867
     60  CB        92.4450  104.1310  101.6770 C.3   148  PHE148      0.0534
     61  CG        92.9590  102.7090  101.7090 C.ar  148  PHE148     -0.0203
     62  CD1       94.2960  102.4280  101.4540 C.ar  148  PHE148     -0.0042
     63  CD2       92.0980  101.6490  101.9590 C.ar  148  PHE148     -0.0042
     64  CE1       94.7670  101.1130  101.4730 C.ar  148  PHE148     -0.0003
     65  CE2       92.5690  100.3330  101.9760 C.ar  148  PHE148     -0.0003
     66  CZ        93.9000  100.0750  101.7320 C.ar  148  PHE148     -0.0000
     67  N         93.9680  109.2400  103.3740 N.3   150  TYR150     -0.1227
     68  CA        95.0750  110.0430  102.8420 C.3   150  TYR150      0.1736
     69  C         95.0120  110.2010  101.3100 C.2   150  TYR150      0.2595
     70  O         95.5180  111.1920  100.7790 O.2   150  TYR150     -0.2718
     71  CB        96.4270  109.4330  103.2740 C.3   150  TYR150      0.0548
     72  CG        96.7670  108.1210  102.5950 C.ar  150  TYR150     -0.0200
     73  CD1       96.2510  106.9150  103.0630 C.ar  150  TYR150     -0.0009
     74  CD2       97.6010  108.0860  101.4820 C.ar  150  TYR150     -0.0009
     75  CE1       96.5480  105.7090  102.4320 C.ar  150  TYR150      0.0417
     76  CE2       97.9040  106.8860  100.8420 C.ar  150  TYR150      0.0417
     77  CZ        97.3790  105.6980  101.3240 C.ar  150  TYR150      0.1957
     78  OH        97.6660  104.5150  100.6900 O.3   150  TYR150     -0.2866
     79  N         94.4240  109.2030  100.6130 N.am  151  GLN151     -0.1979
     80  CA        94.2700  109.1550   99.1560 C.3   151  GLN151      0.1601
     81  C         93.4140  110.2970   98.6120 C.2   151  GLN151      0.2287
     82  O         93.7040  110.8020   97.5270 O.2   151  GLN151     -0.2864
     83  CB        93.6970  107.8010   98.7190 C.3   151  GLN151      0.0394
     84  CG        94.7410  106.8660   98.1310 C.3   151  GLN151      0.0908
     85  CD        94.4350  105.4230   98.4310 C.2   151  GLN151      0.2608
     86  OE1       94.9650  104.8400   99.3790 O.2   151  GLN151     -0.2717
     87  NE2       93.5790  104.8110   97.6270 N.am  151  GLN151     -0.0878
     88  N         95.4100  113.3850   98.3050 N.3   154  PHE154     -0.1241
     89  CA        96.3420  113.2240   97.1860 C.3   154  PHE154      0.1605
     90  C         95.6720  113.4020   95.8070 C.2   154  PHE154      0.2264
     91  O         96.3770  113.4630   94.7980 O.2   154  PHE154     -0.2867
     92  CB        97.0590  111.8560   97.2750 C.3   154  PHE154      0.0534
     93  CG        98.1000  111.6580   98.3620 C.ar  154  PHE154     -0.0203
     94  CD1       98.5320  112.7250   99.1450 C.ar  154  PHE154     -0.0042
     95  CD2       98.6830  110.4140   98.5690 C.ar  154  PHE154     -0.0042
     96  CE1       99.5060  112.5430  100.1310 C.ar  154  PHE154     -0.0003
     97  CE2       99.6600  110.2340   99.5530 C.ar  154  PHE154     -0.0003
     98  CZ       100.0610  111.2990  100.3300 C.ar  154  PHE154     -0.0000
     99  N        108.6330  110.1030  106.6900 N.3   175  LEU175     -0.1245
    100  CA       108.1040  108.9590  105.9480 C.3   175  LEU175      0.1561
    101  C        108.9350  107.6880  106.1100 C.2   175  LEU175      0.2260
    102  O        108.3850  106.6730  106.5370 O.2   175  LEU175     -0.2867
    103  CB       107.8820  109.3000  104.4620 C.3   175  LEU175      0.0270
    104  CG       106.6790  110.1960  104.1490 C.3   175  LEU175      0.0019
    105  CD1      106.9090  110.9980  102.8910 C.3   175  LEU175      0.0001
    106  CD2      105.3990  109.3870  104.0220 C.3   175  LEU175      0.0001
    107  N         97.5500  107.9070  108.8460 N.3   186  MET186     -0.1245
    108  CA        96.9740  107.8590  107.4970 C.3   186  MET186      0.1570
    109  C         95.4630  108.1020  107.4460 C.2   186  MET186      0.2261
    110  O         94.9660  108.5980  106.4330 O.2   186  MET186     -0.2867
    111  CB        97.3550  106.5520  106.7710 C.3   186  MET186      0.0387
    112  CG        98.8580  106.3240  106.6490 C.3   186  MET186      0.0595
    113  SD        99.7220  107.5500  105.6340 S.3   186  MET186     -0.1393
    114  CE       101.4060  107.1830  106.0640 C.3   186  MET186      0.0692
    115  N         99.5550  115.6560  105.5240 N.3   195  LEU195     -0.1245
    116  CA       100.1260  114.3620  105.9020 C.3   195  LEU195      0.1561
    117  C        100.9930  114.4670  107.1640 C.2   195  LEU195      0.2260
    118  O        100.9510  113.5640  108.0010 O.2   195  LEU195     -0.2867
    119  CB       100.9370  113.7780  104.7280 C.3   195  LEU195      0.0270
    120  CG       101.2900  112.2890  104.7980 C.3   195  LEU195      0.0019
    121  CD1      100.1490  111.4230  104.2780 C.3   195  LEU195      0.0001
    122  CD2      102.5440  111.9990  104.0020 C.3   195  LEU195      0.0001
    123  N         98.0110  108.1680   91.8280 N.3   233  TYR233     -0.1241
    124  CA        96.7860  108.1060   92.6310 C.3   233  TYR233      0.1605
    125  C         95.5880  108.7000   91.8840 C.2   233  TYR233      0.2264
    126  O         94.4550  108.2840   92.1180 O.2   233  TYR233     -0.2867
    127  CB        96.9610  108.9110   93.9300 C.3   233  TYR233      0.0534
    128  CG        97.9960  108.3740   94.8910 C.ar  233  TYR233     -0.0201
    129  CD1       97.6430  107.4730   95.8900 C.ar  233  TYR233     -0.0009
    130  CD2       99.3090  108.8310   94.8590 C.ar  233  TYR233     -0.0009
    131  CE1       98.5830  107.0030   96.8040 C.ar  233  TYR233      0.0417
    132  CE2      100.2600  108.3640   95.7620 C.ar  233  TYR233      0.0417
    133  CZ        99.8910  107.4540   96.7380 C.ar  233  TYR233      0.1957
    134  OH       100.8210  106.9930   97.6350 O.3   233  TYR233     -0.2866
    135  N         99.4680  100.5840  106.3660 N.3   265  VAL265     -0.1231
    136  CA        98.7640  101.0200  105.1570 C.3   265  VAL265      0.1692
    137  C         98.4000   99.8240  104.2570 C.2   265  VAL265      0.2591
    138  O         97.2230   99.6470  103.9330 O.2   265  VAL265     -0.2718
    139  CB        99.4180  102.2360  104.4310 C.3   265  VAL265      0.0266
    140  CG1      100.8720  101.9760  104.0460 C.3   265  VAL265      0.0020
    141  CG2       98.6000  102.6800  103.2250 C.3   265  VAL265      0.0020
    142  N         99.3920   98.9880  103.9000 N.am  266  LEU266     -0.1980
    143  CA        99.1780   97.7780  103.1050 C.3   266  LEU266      0.1596
    144  C         99.3550   96.5720  104.0350 C.2   266  LEU266      0.2287
    145  O        100.4140   95.9390  104.0640 O.2   266  LEU266     -0.2864
    146  CB       100.1150   97.7160  101.8790 C.3   266  LEU266      0.0297
    147  CG        99.8590   98.7300  100.7580 C.3   266  LEU266      0.0022
    148  CD1      101.0970   98.9180   99.9080 C.3   266  LEU266      0.0001
    149  CD2       98.6870   98.3120   99.8790 C.3   266  LEU266      0.0001
    150  N        106.3940   99.3600  106.4440 N.3   291  HIS291     -0.1226
    151  CA       106.0390   99.5600  105.0340 C.3   291  HIS291      0.1752
    152  C        107.2440   99.4770  104.0950 C.2   291  HIS291      0.2596
    153  O        107.1360   98.9020  103.0110 O.2   291  HIS291     -0.2718
    154  CB       105.2920  100.8870  104.8210 C.3   291  HIS291      0.0759
    155  CG       104.8730  101.0950  103.3990 C.ar  291  HIS291      0.0818
    156  ND1      103.7660  100.4560  102.8770 N.ar  291  HIS291     -0.2268
    157  CD2      105.4710  101.8080  102.4170 C.ar  291  HIS291      0.1154
    158  CE1      103.7050  100.8230  101.6090 C.ar  291  HIS291      0.1986
    159  NE2      104.7170  101.6270  101.2840 N.ar  291  HIS291     -0.2212
    160  N        108.3730  100.0690  104.5030 N.am  292  TRP292     -0.1976
    161  CA       109.6120  100.1290  103.7250 C.3   292  TRP292      0.1640
    162  C        110.3980   98.8220  103.8760 C.2   292  TRP292      0.2290
    163  O        111.4880   98.8040  104.4470 O.2   292  TRP292     -0.2864
    164  CB       110.4340  101.3650  104.1360 C.3   292  TRP292      0.0576
    165  CG       109.5870  102.5690  104.4340 C.ar  292  TRP292      0.0006
    166  CD1      109.1500  102.9800  105.6590 C.ar  292  TRP292      0.0946
    167  CD2      108.9880  103.4510  103.4770 C.ar  292  TRP292      0.0152
    168  NE1      108.3520  104.0910  105.5280 N.ar  292  TRP292     -0.2442
    169  CE2      108.2340  104.4020  104.1990 C.ar  292  TRP292      0.0810
    170  CE3      109.0390  103.5500  102.0760 C.ar  292  TRP292      0.0012
    171  CZ2      107.5350  105.4370  103.5690 C.ar  292  TRP292      0.0191
    172  CZ3      108.3320  104.5660  101.4530 C.ar  292  TRP292      0.0001
    173  CH2      107.6250  105.5170  102.1980 C.ar  292  TRP292      0.0015
@<TRIPOS>BOND
     1    44    43    2
     2    43    42    1
     3    46    45    1
     4    46    47    1
     5    30    29    2
     6    42    45    1
     7    42    41    1
     8    39    37   ar
     9    39    40   ar
    10   123   124    1
    11    47    48    1
    12   125   126    2
    13   125   124    1
    14    37    34   ar
    15    29    28    1
    16    40    38   ar
    17   124   127    1
    18    34    32   ar
    19    34    36   ar
    20    31    28    1
    21    31    32    1
    22    28    27    1
    23    38    36   ar
    24    32    33   ar
    25    36    35   ar
    26   127   128    1
    27    33    35   ar
    28    27    21   am
    29    91    90    2
    30   130   128   ar
    31   130   132   ar
    32   128   129   ar
    33    22    21    2
    34    55    53    1
    35    21    20    1
    36     8    10   ar
    37     8     6   ar
    38   132   133   ar
    39    90    89    1
    40    10    11   ar
    41   129   131   ar
    42     5     2    1
    43     5     6    1
    44     1     2    1
    45    53    54    1
    46    53    50    1
    47    52    51    2
    48     2     3    1
    49     6     7   ar
    50    19    20    1
    51   133   131   ar
    52   133   134    1
    53    20    23    1
    54    26    24   ar
    55    51    50    1
    56    11     9   ar
    57    89    92    1
    58    89    88    1
    59    14    13    1
    60    14    15    2
    61    92    93    1
    62    13    16    1
    63    13    12    1
    64    23    24    1
    65    50    49    1
    66    82    81    2
    67    87    85   am
    68    24    25   ar
    69     7     9   ar
    70     3    12   am
    71     3     4    2
    72    16    17    1
    73    84    85    1
    74    84    83    1
    75    12    18    1
    76    93    95   ar
    77    93    94   ar
    78    85    86    2
    79    95    97   ar
    80    81    80    1
    81    83    80    1
    82    94    96   ar
    83    80    79    1
    84    17    18    1
    85    97    98   ar
    86   149   147    1
    87   148   147    1
    88    96    98   ar
    89    79    69   am
    90    78    77    1
    91   147   146    1
    92    70    69    2
    93    76    77   ar
    94    76    74   ar
    95   159   158   ar
    96   159   157   ar
    97    69    68    1
    98    77    75   ar
    99   172   170   ar
   100   172   173   ar
   101    62    64   ar
   102    62    61   ar
   103    64    66   ar
   104    74    72   ar
   105    59    58    2
   106   158   156   ar
   107    60    61    1
   108    60    57    1
   109    61    63   ar
   110    66    65   ar
   111   146   143    1
   112    63    65   ar
   113   170   167   ar
   114   173   171   ar
   115   157   155   ar
   116    75    73   ar
   117    72    73   ar
   118    72    71    1
   119    58    57    1
   120    68    71    1
   121    68    67    1
   122    57    56    1
   123   156   155   ar
   124   105   104    1
   125   153   152    2
   126   143   142    1
   127   143   144    1
   128   141   139    1
   129   155   154    1
   130   167   169   ar
   131   167   165   ar
   132   171   169   ar
   133   161   162    1
   134   161   164    1
   135   161   160    1
   136   162   163    2
   137   142   137   am
   138   138   137    2
   139   122   120    1
   140   106   104    1
   141   144   145    2
   142   140   139    1
   143   152   160   am
   144   152   151    1
   145   164   165    1
   146   104   103    1
   147   169   168   ar
   148   137   136    1
   149   121   120    1
   150   139   136    1
   151   165   166   ar
   152   103   100    1
   153   119   120    1
   154   119   116    1
   155   154   151    1
   156   151   150    1
   157   136   135    1
   158   115   116    1
   159   168   166   ar
   160   113   114    1
   161   113   112    1
   162   116   117    1
   163   100   101    1
   164   100    99    1
   165   101   102    2
   166   110   109    2
   167   112   111    1
   168   111   108    1
   169   117   118    2
   170   109   108    1
   171   108   107    1
