@<TRIPOS>MOLECULE
tmp/4c4zB00.pdb
 200 198 0 0 0
SMALL
GASTEIGER

@<TRIPOS>ATOM
      1  N         11.6810   13.2980    2.5510 N.3    38  PHE38      -0.1228
      2  CA        13.1060   13.5100    2.2980 C.3    38  PHE38       0.1721
      3  C         13.5250   14.9770    2.4720 C.2    38  PHE38       0.2437
      4  O         12.8770   15.8540    1.8940 O.2    38  PHE38      -0.2733
      5  CB        13.4770   13.0240    0.8740 C.3    38  PHE38       0.0547
      6  CG        14.8810   13.3640    0.4170 C.ar   38  PHE38      -0.0202
      7  CD1       15.1560   14.5830   -0.1970 C.ar   38  PHE38      -0.0042
      8  CD2       15.9230   12.4630    0.5880 C.ar   38  PHE38      -0.0042
      9  CE1       16.4540   14.9050   -0.5990 C.ar   38  PHE38      -0.0003
     10  CE2       17.2200   12.7820    0.1740 C.ar   38  PHE38      -0.0003
     11  CZ        17.4760   14.0020   -0.4120 C.ar   38  PHE38      -0.0000
     12  N         14.6670   15.2720    3.1400 N.am   39  PRO39      -0.2729
     13  CA        15.5950   14.3890    3.8640 C.3    39  PRO39       0.1401
     14  C         15.2920   14.5150    5.3640 C.2    39  PRO39       0.2269
     15  O         15.9760   15.2410    6.0920 O.2    39  PRO39      -0.2865
     16  CB        16.9570   14.9850    3.4760 C.3    39  PRO39       0.0296
     17  CG        16.6640   16.4820    3.1460 C.3    39  PRO39       0.0237
     18  CD        15.1570   16.6570    3.2130 C.3    39  PRO39       0.0939
     19  N          5.5090   14.0940    2.0760 N.3   106  ASP106     -0.1225
     20  CA         6.4790   14.0110    0.9760 C.3   106  ASP106      0.1805
     21  C          6.6180   12.5650    0.4480 C.2   106  ASP106      0.2597
     22  O          5.6210   12.0240   -0.0310 O.2   106  ASP106     -0.2718
     23  CB         7.8180   14.6690    1.3660 C.3   106  ASP106      0.1424
     24  CG         8.7760   14.8490    0.2130 C.2   106  ASP106      0.3668
     25  OD1        8.4370   15.5940   -0.7230 O.co2 106  ASP106     -0.2456
     26  OD2        9.8480   14.2050    0.2280 O.co2 106  ASP106     -0.2456
     27  N          7.8090   11.9230    0.5820 N.am  107  TRP107     -0.1976
     28  CA         8.0120   10.5330    0.1590 C.3   107  TRP107      0.1640
     29  C          7.2040    9.5560    1.0090 C.2   107  TRP107      0.2290
     30  O          6.7720    8.5200    0.5010 O.2   107  TRP107     -0.2864
     31  CB         9.4970   10.1460    0.1110 C.3   107  TRP107      0.0576
     32  CG        10.0860   10.2290   -1.2680 C.ar  107  TRP107      0.0006
     33  CD1       11.0510   11.0930   -1.6930 C.ar  107  TRP107      0.0946
     34  CD2        9.7100    9.4510   -2.4150 C.ar  107  TRP107      0.0152
     35  NE1       11.3140   10.8900   -3.0270 N.ar  107  TRP107     -0.2442
     36  CE2       10.5020    9.8920   -3.4980 C.ar  107  TRP107      0.0810
     37  CE3        8.7780    8.4200   -2.6350 C.ar  107  TRP107      0.0012
     38  CZ2       10.3960    9.3380   -4.7800 C.ar  107  TRP107      0.0191
     39  CZ3        8.6670    7.8780   -3.9060 C.ar  107  TRP107      0.0001
     40  CH2        9.4760    8.3290   -4.9600 C.ar  107  TRP107      0.0015
     41  N          3.7140    9.4450   -0.3730 N.3   110  MET110     -0.1245
     42  CA         3.6300    8.5620   -1.5370 C.3   110  MET110      0.1570
     43  C          3.5010    7.1090   -1.0740 C.2   110  MET110      0.2261
     44  O          2.7250    6.3550   -1.6570 O.2   110  MET110     -0.2867
     45  CB         4.8460    8.7380   -2.4630 C.3   110  MET110      0.0387
     46  CG         4.6130    8.2310   -3.8780 C.3   110  MET110      0.0595
     47  SD         3.7260    9.4080   -4.9320 S.3   110  MET110     -0.1393
     48  CE         2.0470    8.8190   -4.7490 C.3   110  MET110      0.0692
     49  N          1.8130   15.6060   -0.7290 N.3   131  THR131     -0.1218
     50  CA         1.8600   14.5880   -1.7840 C.3   131  THR131      0.1862
     51  C          0.4710   14.1410   -2.2600 C.2   131  THR131      0.2287
     52  O         -0.2800   13.5430   -1.4840 O.2   131  THR131     -0.2866
     53  CB         2.7830   13.4210   -1.3960 C.3   131  THR131      0.1770
     54  OG1        4.0490   13.9520   -1.0230 O.3   131  THR131     -0.2211
     55  CG2        2.9790   12.4160   -2.5340 C.3   131  THR131      0.0375
     56  N         10.6170   19.7740  -11.3070 N.3   152  PHE152     -0.1241
     57  CA        11.2140   18.4900  -10.9200 C.3   152  PHE152      0.1605
     58  C         12.5970   18.2690  -11.5710 C.2   152  PHE152      0.2264
     59  O         12.9300   17.1470  -11.9700 O.2   152  PHE152     -0.2867
     60  CB        10.2540   17.3250  -11.2290 C.3   152  PHE152      0.0534
     61  CG         8.8820   17.4270  -10.6060 C.ar  152  PHE152     -0.0203
     62  CD1        8.6610   17.0100   -9.2990 C.ar  152  PHE152     -0.0042
     63  CD2        7.8010   17.8940  -11.3410 C.ar  152  PHE152     -0.0042
     64  CE1        7.3860   17.0830   -8.7310 C.ar  152  PHE152     -0.0003
     65  CE2        6.5270   17.9670  -10.7730 C.ar  152  PHE152     -0.0003
     66  CZ         6.3270   17.5620   -9.4710 C.ar  152  PHE152     -0.0000
     67  N         15.6870   18.8350  -10.0080 N.3   154  TYR154     -0.1227
     68  CA        16.5150   18.2200   -8.9590 C.3   154  TYR154      0.1736
     69  C         16.4010   16.6860   -8.9320 C.2   154  TYR154      0.2595
     70  O         17.3330   16.0170   -8.4900 O.2   154  TYR154     -0.2718
     71  CB        16.1530   18.8110   -7.5780 C.3   154  TYR154      0.0548
     72  CG        14.7590   18.4540   -7.1070 C.ar  154  TYR154     -0.0200
     73  CD1       13.6470   19.1630   -7.5490 C.ar  154  TYR154     -0.0009
     74  CD2       14.5500   17.3890   -6.2360 C.ar  154  TYR154     -0.0009
     75  CE1       12.3600   18.8120   -7.1510 C.ar  154  TYR154      0.0417
     76  CE2       13.2690   17.0280   -5.8310 C.ar  154  TYR154      0.0417
     77  CZ        12.1770   17.7460   -6.2870 C.ar  154  TYR154      0.1957
     78  OH        10.9150   17.3920   -5.8860 O.3   154  TYR154     -0.2866
     79  N         15.2450   16.1460   -9.3820 N.am  155  GLN155     -0.1979
     80  CA        14.9520   14.7130   -9.4470 C.3   155  GLN155      0.1601
     81  C         15.9280   13.9860  -10.3760 C.2   155  GLN155      0.2287
     82  O         16.3870   12.8970  -10.0340 O.2   155  GLN155     -0.2864
     83  CB        13.4970   14.4790   -9.8790 C.3   155  GLN155      0.0394
     84  CG        12.7360   13.5510   -8.9430 C.3   155  GLN155      0.0908
     85  CD        11.3200   14.0090   -8.6970 C.2   155  GLN155      0.2608
     86  OE1       11.0700   15.0810   -8.1350 O.2   155  GLN155     -0.2717
     87  NE2       10.3570   13.1810   -9.0670 N.am  155  GLN155     -0.0878
     88  N         19.3170   13.9630   -8.7660 N.3   158  PHE158     -0.1241
     89  CA        19.3020   12.9610   -7.6980 C.3   158  PHE158      0.1605
     90  C         19.4940   11.5220   -8.2170 C.2   158  PHE158      0.2264
     91  O         19.7670   10.6280   -7.4140 O.2   158  PHE158     -0.2867
     92  CB        17.9870   13.0610   -6.8920 C.3   158  PHE158      0.0534
     93  CG        17.8330   14.1920   -5.8920 C.ar  158  PHE158     -0.0203
     94  CD1       18.8380   15.1400   -5.7200 C.ar  158  PHE158     -0.0042
     95  CD2       16.6920   14.2920   -5.1050 C.ar  158  PHE158     -0.0042
     96  CE1       18.6950   16.1750   -4.7900 C.ar  158  PHE158     -0.0003
     97  CE2       16.5530   15.3240   -4.1730 C.ar  158  PHE158     -0.0003
     98  CZ        17.5530   16.2610   -4.0250 C.ar  158  PHE158     -0.0000
     99  N         17.6860   23.9530    3.6250 N.3   179  LEU179     -0.1245
    100  CA        16.4730   23.2070    3.2920 C.3   179  LEU179      0.1561
    101  C         15.2790   23.5590    4.1650 C.2   179  LEU179      0.2260
    102  O         14.2440   23.9520    3.6280 O.2   179  LEU179     -0.2867
    103  CB        16.7220   21.6860    3.2980 C.3   179  LEU179      0.0270
    104  CG        17.4160   21.1070    2.0640 C.3   179  LEU179      0.0019
    105  CD1       18.0930   19.8020    2.3910 C.3   179  LEU179      0.0001
    106  CD2       16.4420   20.9150    0.9110 C.3   179  LEU179      0.0001
    107  N         16.4020   28.4660   -2.4650 N.3   188  LEU188     -0.1245
    108  CA        16.5570   27.3050   -3.3430 C.3   188  LEU188      0.1561
    109  C         15.7450   27.4380   -4.6300 C.2   188  LEU188      0.2260
    110  O         14.5390   27.6950   -4.5810 O.2   188  LEU188     -0.2867
    111  CB        16.1720   26.0010   -2.6120 C.3   188  LEU188      0.0270
    112  CG        16.9580   25.6300   -1.3500 C.3   188  LEU188      0.0019
    113  CD1       16.1650   24.6760   -0.4870 C.3   188  LEU188      0.0001
    114  CD2       18.3050   25.0180   -1.6910 C.3   188  LEU188      0.0001
    115  N         14.4200   25.3420   -7.4230 N.3   190  MET190     -0.1245
    116  CA        14.0520   23.9840   -7.8330 C.3   190  MET190      0.1570
    117  C         13.8760   23.8270   -9.3510 C.2   190  MET190      0.2261
    118  O         14.0030   22.7080   -9.8520 O.2   190  MET190     -0.2867
    119  CB        12.7970   23.4980   -7.0780 C.3   190  MET190      0.0387
    120  CG        13.0100   23.3100   -5.5850 C.3   190  MET190      0.0595
    121  SD        14.1250   21.9450   -5.1740 S.3   190  MET190     -0.1393
    122  CE        14.8670   22.5850   -3.7070 C.3   190  MET190      0.0692
    123  N         22.1420   21.7500   -5.5610 N.3   199  LEU199     -0.1245
    124  CA        20.9310   22.2820   -4.9360 C.3   199  LEU199      0.1561
    125  C         21.2020   23.5740   -4.1600 C.2   199  LEU199      0.2260
    126  O         20.4290   24.5260   -4.2860 O.2   199  LEU199     -0.2867
    127  CB        20.2940   21.2210   -4.0200 C.3   199  LEU199      0.0270
    128  CG        18.7940   21.3590   -3.7600 C.3   199  LEU199      0.0019
    129  CD1       17.9850   20.6790   -4.8510 C.3   199  LEU199      0.0001
    130  CD2       18.4240   20.7640   -2.4180 C.3   199  LEU199      0.0001
    131  N         14.2830    8.1020   -4.8310 N.3   237  TYR237     -0.1241
    132  CA        14.1160    8.7770   -6.1250 C.3   237  TYR237      0.1605
    133  C         14.6110    7.9220   -7.2990 C.2   237  TYR237      0.2264
    134  O         14.2150    8.1670   -8.4400 O.2   237  TYR237     -0.2867
    135  CB        14.9210   10.0880   -6.1350 C.3   237  TYR237      0.0534
    136  CG        14.4130   11.1600   -5.2010 C.ar  237  TYR237     -0.0201
    137  CD1       14.8820   11.2530   -3.8940 C.ar  237  TYR237     -0.0009
    138  CD2       13.5140   12.1260   -5.6410 C.ar  237  TYR237     -0.0009
    139  CE1       14.4350   12.2540   -3.0340 C.ar  237  TYR237      0.0417
    140  CE2       13.0650   13.1360   -4.7940 C.ar  237  TYR237      0.0417
    141  CZ        13.5290   13.1970   -3.4900 C.ar  237  TYR237      0.1957
    142  OH        13.0800   14.1800   -2.6450 O.3   237  TYR237     -0.2866
    143  N          3.9680   25.4100   -1.0740 N.3   267  ASP267     -0.1225
    144  CA         4.8150   24.3360   -1.5990 C.3   267  ASP267      0.1805
    145  C          4.8140   24.4960   -3.1190 C.2   267  ASP267      0.2598
    146  O          3.7810   24.2890   -3.7570 O.2   267  ASP267     -0.2718
    147  CB         4.3020   22.9400   -1.1800 C.3   267  ASP267      0.1424
    148  CG         5.2780   21.7900   -1.4170 C.2   267  ASP267      0.3668
    149  OD1        6.0080   21.8200   -2.4360 O.co2 267  ASP267     -0.2456
    150  OD2        5.2720   20.8370   -0.6180 O.co2 267  ASP267     -0.2456
    151  N          5.9600   24.9110   -3.6840 N.am  268  PHE268     -0.1962
    152  CA         6.1080   25.1670   -5.1200 C.3   268  PHE268      0.1771
    153  C          6.4230   23.9360   -5.9710 C.2   268  PHE268      0.2619
    154  O          6.2900   23.9950   -7.1950 O.2   268  PHE268     -0.2715
    155  CB         7.0760   26.3360   -5.3830 C.3   268  PHE268      0.0574
    156  CG         6.7240   27.5940   -4.6220 C.ar  268  PHE268     -0.0200
    157  CD1        5.5490   28.2880   -4.8950 C.ar  268  PHE268     -0.0042
    158  CD2        7.5460   28.0630   -3.6050 C.ar  268  PHE268     -0.0042
    159  CE1        5.2110   29.4350   -4.1720 C.ar  268  PHE268     -0.0003
    160  CE2        7.2120   29.2180   -2.8920 C.ar  268  PHE268     -0.0003
    161  CZ         6.0430   29.8890   -3.1730 C.ar  268  PHE268     -0.0000
    162  N          6.8060   22.8180   -5.3260 N.am  269  VAL269     -0.1963
    163  CA         7.0790   21.5520   -6.0070 C.3   269  VAL269      0.1727
    164  C          5.7900   20.7160   -5.9830 C.2   269  VAL269      0.2616
    165  O          5.2520   20.3990   -7.0450 O.2   269  VAL269     -0.2715
    166  CB         8.3160   20.8070   -5.4310 C.3   269  VAL269      0.0290
    167  CG1        8.4050   19.3820   -5.9680 C.3   269  VAL269      0.0023
    168  CG2        9.6020   21.5690   -5.7360 C.3   269  VAL269      0.0023
    169  N          5.2840   20.3940   -4.7730 N.am  270  LEU270     -0.1977
    170  CA         4.0360   19.6520   -4.5950 C.3   270  LEU270      0.1596
    171  C          2.9100   20.6760   -4.4060 C.2   270  LEU270      0.2287
    172  O          2.3900   20.8620   -3.3000 O.2   270  LEU270     -0.2864
    173  CB         4.1260   18.6520   -3.4190 C.3   270  LEU270      0.0297
    174  CG         5.0970   17.4740   -3.5780 C.3   270  LEU270      0.0022
    175  CD1        5.4380   16.8700   -2.2330 C.3   270  LEU270      0.0001
    176  CD2        4.5360   16.4010   -4.5060 C.3   270  LEU270      0.0001
    177  N          6.8390   23.7360    2.1180 N.3   295  HIS295     -0.1226
    178  CA         7.0050   22.2880    1.9640 C.3   295  HIS295      0.1752
    179  C          7.1040   21.5350    3.2950 C.2   295  HIS295      0.2596
    180  O          6.5390   20.4480    3.4260 O.2   295  HIS295     -0.2718
    181  CB         8.2140   21.9680    1.0660 C.3   295  HIS295      0.0759
    182  CG         8.4990   20.5030    0.9460 C.ar  295  HIS295      0.0818
    183  ND1        7.6360   19.6530    0.2790 N.ar  295  HIS295     -0.2268
    184  CD2        9.5300   19.7800    1.4410 C.ar  295  HIS295      0.1154
    185  CE1        8.1660   18.4480    0.3870 C.ar  295  HIS295      0.1986
    186  NE2        9.3100   18.4750    1.0690 N.ar  295  HIS295     -0.2212
    187  N          7.8140   22.1120    4.2720 N.am  296  TRP296     -0.1976
    188  CA         8.0460   21.5200    5.5920 C.3   296  TRP296      0.1640
    189  C          6.8530   21.7770    6.5220 C.2   296  TRP296      0.2290
    190  O          6.9920   22.3570    7.6000 O.2   296  TRP296     -0.2864
    191  CB         9.3930   22.0100    6.1630 C.3   296  TRP296      0.0576
    192  CG        10.4510   22.1360    5.1050 C.ar  296  TRP296      0.0006
    193  CD1       10.8340   23.2770    4.4650 C.ar  296  TRP296      0.0946
    194  CD2       11.1440   21.0610    4.4550 C.ar  296  TRP296      0.0152
    195  NE1       11.7540   22.9870    3.4860 N.ar  296  TRP296     -0.2442
    196  CE2       11.9700   21.6340    3.4630 C.ar  296  TRP296      0.0810
    197  CE3       11.1630   19.6660    4.6290 C.ar  296  TRP296      0.0012
    198  CZ2       12.8190   20.8640    2.6590 C.ar  296  TRP296      0.0191
    199  CZ3       12.0060   18.9060    3.8330 C.ar  296  TRP296      0.0001
    200  CH2       12.8210   19.5030    2.8620 C.ar  296  TRP296      0.0015
@<TRIPOS>BOND
     1    59    58    2
     2    58    57    1
     3    63    65   ar
     4    63    61   ar
     5    56    57    1
     6    60    57    1
     7    60    61    1
     8    65    66   ar
     9    61    62   ar
    10    81    82    2
    11    81    80    1
    12    67    68    1
    13    83    80    1
    14    83    84    1
    15   118   117    2
    16    66    64   ar
    17    80    79    1
    18    79    69   am
    19   117   116    1
    20    62    64   ar
    21    87    85   am
    22    68    69    1
    23    68    71    1
    24    84    85    1
    25    69    70    2
    26    88    89    1
    27    85    86    2
    28   134   133    2
    29    90    89    1
    30    90    91    2
    31   116   115    1
    32   116   119    1
    33    89    92    1
    34    71    72    1
    35    73    75   ar
    36    73    72   ar
    37   133   132    1
    38   154   153    2
    39    75    77   ar
    40    72    74   ar
    41   119   120    1
    42   165   164    2
    43    92    93    1
    44    77    78    1
    45    77    76   ar
    46    74    76   ar
    47   135   132    1
    48   135   136    1
    49   132   131    1
    50   163   164    1
    51   163   166    1
    52   163   162    1
    53   164   169   am
    54   153   162   am
    55   153   152    1
    56   167   166    1
    57    93    94   ar
    58    93    95   ar
    59   168   166    1
    60    94    96   ar
    61   138   136   ar
    62   138   140   ar
    63   120   121    1
    64   123   124    1
    65   155   152    1
    66   155   156    1
    67   136   137   ar
    68   121   122    1
    69   152   151    1
    70    95    97   ar
    71    40    38   ar
    72    40    39   ar
    73   124   125    1
    74   124   127    1
    75    47    48    1
    76    47    46    1
    77   157   156   ar
    78   157   159   ar
    79   129   128    1
    80   140   141   ar
    81    96    98   ar
    82    38    36   ar
    83   169   170    1
    84   109   110    2
    85   109   108    1
    86   156   158   ar
    87   170   171    1
    88   170   173    1
    89   176   174    1
    90   171   172    2
    91   126   125    2
    92    97    98   ar
    93   159   161   ar
    94   127   128    1
    95    39    37   ar
    96   137   139   ar
    97    46    45    1
    98   128   130    1
    99   146   145    2
   100   151   145   am
   101   158   160   ar
   102   174   173    1
   103   174   175    1
   104    36    35   ar
   105    36    34   ar
   106   141   139   ar
   107   141   142    1
   108   108   111    1
   109   108   107    1
   110   161   160   ar
   111   145   144    1
   112    35    33   ar
   113    37    34   ar
   114   111   112    1
   115    55    53    1
   116    45    42    1
   117   149   148   ar
   118    34    32   ar
   119    51    50    1
   120    51    52    2
   121    50    53    1
   122    50    49    1
   123    33    32   ar
   124   114   112    1
   125    44    43    2
   126   144   147    1
   127   144   143    1
   128    42    43    1
   129    42    41    1
   130   148   147    1
   131   148   150   ar
   132    53    54    1
   133   112   113    1
   134    32    31    1
   135    25    24   ar
   136     9    11   ar
   137     9     7   ar
   138    11    10   ar
   139     7     6   ar
   140    22    21    2
   141    31    28    1
   142    28    27    1
   143    28    29    1
   144    10     8   ar
   145    24    26   ar
   146    24    23    1
   147   183   185   ar
   148   183   182   ar
   149   185   186   ar
   150     6     8   ar
   151     6     5    1
   152    21    27   am
   153    21    20    1
   154    30    29    2
   155     5     2    1
   156   106   104    1
   157   182   181    1
   158   182   184   ar
   159    20    23    1
   160    20    19    1
   161   181   178    1
   162   186   184   ar
   163     4     3    2
   164   178   177    1
   165   178   179    1
   166   104   105    1
   167   104   103    1
   168     2     3    1
   169     2     1    1
   170     3    12   am
   171   198   200   ar
   172   198   196   ar
   173   200   199   ar
   174    12    18    1
   175    12    13    1
   176    17    18    1
   177    17    16    1
   178   100   103    1
   179   100    99    1
   180   100   101    1
   181   179   180    2
   182   179   187   am
   183   196   195   ar
   184   196   194   ar
   185    16    13    1
   186   195   193   ar
   187   102   101    2
   188   199   197   ar
   189    13    14    1
   190   187   188    1
   191   194   197   ar
   192   194   192   ar
   193   193   192   ar
   194   192   191    1
   195    14    15    2
   196   188   191    1
   197   188   189    1
   198   189   190    2
