@<TRIPOS>MOLECULE
tmp/4c57B00.pdb
 148 137 0 0 0
SMALL
GASTEIGER

@<TRIPOS>ATOM
      1  N        -17.1540    0.7770    0.8350 N.3    20  LEU20      -0.1231
      2  CA       -18.1120   -0.1440    0.2260 C.3    20  LEU20       0.1693
      3  C        -19.2950    0.6240   -0.3720 C.2    20  LEU20       0.2591
      4  O        -19.7820    0.2540   -1.4410 O.2    20  LEU20      -0.2718
      5  CB       -18.6180   -1.1900    1.2500 C.3    20  LEU20       0.0284
      6  CG       -17.5880   -2.0980    1.9560 C.3    20  LEU20       0.0019
      7  CD1      -18.2390   -2.8840    3.0500 C.3    20  LEU20       0.0001
      8  CD2      -16.9120   -3.0450    0.9940 C.3    20  LEU20       0.0001
      9  N        -19.7540    1.6900    0.3250 N.am   21  ALA21      -0.1980
     10  CA       -20.8910    2.5200   -0.0850 C.3    21  ALA21       0.1597
     11  C        -20.7860    3.9820    0.4020 C.2    21  ALA21       0.2287
     12  O        -20.1550    4.2550    1.4270 O.2    21  ALA21      -0.2864
     13  CB       -22.1830    1.9050    0.4400 C.3    21  ALA21       0.0319
     14  N        -20.0010    3.6560    4.0890 N.3    28  VAL28      -0.1245
     15  CA       -19.9020    2.2790    4.6050 C.3    28  VAL28       0.1561
     16  C        -18.5220    1.7040    4.2460 C.2    28  VAL28       0.2260
     17  O        -18.1710    1.6260    3.0690 O.2    28  VAL28      -0.2867
     18  CB       -21.0420    1.3110    4.1820 C.3    28  VAL28       0.0252
     19  CG1      -21.0290    0.0630    5.0660 C.3    28  VAL28       0.0019
     20  CG2      -22.4120    1.9790    4.2430 C.3    28  VAL28       0.0019
     21  N        -18.5830   -4.4200    9.0780 N.3    41  ALA41      -0.1245
     22  CA       -19.0100   -3.2580    8.2990 C.3    41  ALA41       0.1562
     23  C        -19.0410   -2.0690    9.2330 C.2    41  ALA41       0.2260
     24  O        -19.5890   -2.1670   10.3360 O.2    41  ALA41      -0.2867
     25  CB       -20.3740   -3.4740    7.6610 C.3    41  ALA41       0.0290
     26  N        -20.2940    1.8290    9.3690 N.3    43  LYS43      -0.1245
     27  CA       -21.0970    2.9170    8.8010 C.3    43  LYS43       0.1561
     28  C        -20.7200    4.2010    9.5310 C.2    43  LYS43       0.2260
     29  O        -20.8350    4.2630   10.7580 O.2    43  LYS43      -0.2867
     30  CB       -22.6030    2.6410    8.9100 C.3    43  LYS43       0.0271
     31  CG       -23.4700    3.6730    8.1940 C.3    43  LYS43       0.0035
     32  CD       -24.9520    3.3600    8.3810 C.3    43  LYS43       0.0206
     33  CE       -25.8590    4.0710    7.3980 C.3    43  LYS43       0.1093
     34  NZ       -27.1800    3.3850    7.2620 N.3    43  LYS43      -0.1314
     35  N        -32.2510   -1.0970   15.4940 N.3    63  MET63      -0.1245
     36  CA       -31.2510   -2.1150   15.1380 C.3    63  MET63       0.1570
     37  C        -30.8410   -2.9550   16.3450 C.2    63  MET63       0.2261
     38  O        -30.7880   -4.1830   16.2290 O.2    63  MET63      -0.2867
     39  CB       -30.0140   -1.4880   14.4940 C.3    63  MET63       0.0387
     40  CG       -30.2980   -0.9340   13.1270 C.3    63  MET63       0.0595
     41  SD       -28.8310   -0.4570   12.1750 S.3    63  MET63      -0.1393
     42  CE       -28.1780   -2.1120   11.7160 C.3    63  MET63       0.0692
     43  N        -29.5080   -7.4830    9.6440 N.3    73  VAL73      -0.1245
     44  CA       -28.0430   -7.3720    9.7240 C.3    73  VAL73       0.1561
     45  C        -27.6440   -7.2860   11.2440 C.2    73  VAL73       0.2260
     46  O        -28.3020   -6.5840   12.0000 O.2    73  VAL73      -0.2867
     47  CB       -27.5330   -6.2050    8.8160 C.3    73  VAL73       0.0252
     48  CG1      -27.8890   -4.8310    9.3560 C.3    73  VAL73       0.0019
     49  CG2      -26.0510   -6.3200    8.5130 C.3    73  VAL73       0.0019
     50  N        -21.3010    3.1430   13.2580 N.3    95  LEU95      -0.1245
     51  CA       -22.0950    1.9210   13.3930 C.3    95  LEU95       0.1561
     52  C        -21.2750    0.7210   12.9170 C.2    95  LEU95       0.2260
     53  O        -20.8020    0.7180   11.7780 O.2    95  LEU95      -0.2867
     54  CB       -23.4180    2.0270   12.6100 C.3    95  LEU95       0.0270
     55  CG       -24.3040    0.7650   12.5620 C.3    95  LEU95       0.0019
     56  CD1      -24.9740    0.4930   13.8930 C.3    95  LEU95       0.0001
     57  CD2      -25.3280    0.8570   11.4750 C.3    95  LEU95       0.0001
     58  N        -21.4240   -3.3370   12.2850 N.3    97  THR97      -0.1203
     59  CA       -22.2970   -4.4910   12.0590 C.3    97  THR97       0.1994
     60  C        -21.5310   -5.6600   11.4190 C.2    97  THR97       0.2618
     61  O        -20.3310   -5.5400   11.1420 O.2    97  THR97      -0.2717
     62  CB       -23.4910   -4.1060   11.1480 C.3    97  THR97       0.1784
     63  OG1      -23.0590   -4.0340    9.7890 O.3    97  THR97      -0.2211
     64  CG2      -24.1900   -2.8360   11.5620 C.3    97  THR97       0.0376
     65  N        -22.2450   -6.7740   11.1310 N.am   98  GLU98      -0.1965
     66  CA       -21.6610   -7.8890   10.4140 C.3    98  GLU98       0.1733
     67  C        -21.3950   -7.4390    8.9760 C.2    98  GLU98       0.2616
     68  O        -22.0830   -6.5490    8.4720 O.2    98  GLU98      -0.2715
     69  CB       -22.5560   -9.1530   10.4610 C.3    98  GLU98       0.0429
     70  CG       -23.8220   -9.0440    9.6300 C.3    98  GLU98       0.1163
     71  CD       -24.6570  -10.2980    9.5470 C.2    98  GLU98       0.3649
     72  OE1      -24.2750  -11.2180    8.7850 O.co2  98  GLU98      -0.2457
     73  OE2      -25.7380  -10.3250   10.1790 O.co2  98  GLU98      -0.2457
     74  N        -20.3700   -8.0220    8.3440 N.am   99  LEU99      -0.1963
     75  CA       -20.0070   -7.7030    6.9710 C.3    99  LEU99       0.1728
     76  C        -20.7790   -8.5900    6.0080 C.2    99  LEU99       0.2616
     77  O        -20.6860   -9.8120    6.0800 O.2    99  LEU99      -0.2715
     78  CB       -18.4910   -7.8500    6.7480 C.3    99  LEU99       0.0311
     79  CG       -17.9820   -7.3670    5.3800 C.3    99  LEU99       0.0022
     80  CD1      -18.0890   -5.8390    5.2530 C.3    99  LEU99       0.0001
     81  CD2      -16.5680   -7.8430    5.1320 C.3    99  LEU99       0.0001
     82  N        -21.5410   -7.9660    5.1140 N.am  100  CYS100     -0.1954
     83  CA       -22.3330   -8.6440    4.0900 C.3   100  CYS100      0.1843
     84  C        -21.5550   -8.6740    2.7760 C.2   100  CYS100      0.2625
     85  O        -20.6400   -7.8680    2.5970 O.2   100  CYS100     -0.2714
     86  CB       -23.6990   -7.9820    3.9330 C.3   100  CYS100      0.0997
     87  SG       -24.7440   -8.1110    5.4080 S.3   100  CYS100     -0.0797
     88  N        -21.8670   -9.6370    1.8870 N.am  101  LYS101     -0.1963
     89  CA       -21.1490   -9.8130    0.6140 C.3   101  LYS101      0.1728
     90  C        -21.3240   -8.6000   -0.2970 C.2   101  LYS101      0.2617
     91  O        -20.3480   -8.1670   -0.9090 O.2   101  LYS101     -0.2715
     92  CB       -21.5740  -11.1060   -0.1140 C.3   101  LYS101      0.0311
     93  CG       -21.1110  -12.3860    0.5850 C.3   101  LYS101      0.0038
     94  CD       -19.8380  -13.0030   -0.0190 C.3   101  LYS101      0.0206
     95  CE       -19.5370  -14.3570    0.5950 C.3   101  LYS101      0.1093
     96  NZ       -18.4120  -15.0470   -0.0820 N.3   101  LYS101     -0.1314
     97  N        -22.5430   -8.0570   -0.3320 N.am  102  GLY102     -0.1940
     98  CA       -22.9230   -6.8900   -1.1190 C.3   102  GLY102      0.2014
     99  C        -24.4150   -6.6120   -1.1140 C.2   102  GLY102      0.2638
    100  O        -25.1770   -7.2420   -0.3740 O.2   102  GLY102     -0.2714
    101  N        -24.8420   -5.6680   -1.9540 N.am  103  GLN103     -0.1977
    102  CA       -26.2450   -5.2920   -2.0960 C.3   103  GLN103      0.1601
    103  C        -26.9860   -6.2620   -3.0090 C.2   103  GLN103      0.2287
    104  O        -26.4400   -6.6510   -4.0350 O.2   103  GLN103     -0.2864
    105  CB       -26.3590   -3.8770   -2.6680 C.3   103  GLN103      0.0394
    106  CG       -25.9220   -2.7720   -1.7250 C.3   103  GLN103      0.0908
    107  CD       -26.2240   -1.4350   -2.3390 C.2   103  GLN103      0.2608
    108  OE1      -27.3460   -0.9090   -2.2260 O.2   103  GLN103     -0.2717
    109  NE2      -25.2420   -0.8910   -3.0550 N.am  103  GLN103     -0.0878
    110  N        -33.3760   -2.3200   -2.8430 N.3   151  GLU151     -0.1231
    111  CA       -32.2160   -1.4540   -2.6020 C.3   151  GLU151      0.1699
    112  C        -31.7470   -1.4980   -1.1370 C.2   151  GLU151      0.2592
    113  O        -30.5640   -1.2740   -0.8690 O.2   151  GLU151     -0.2718
    114  CB       -32.5230   -0.0060   -3.0190 C.3   151  GLU151      0.0402
    115  CG       -32.4130    0.2530   -4.5210 C.3   151  GLU151      0.1161
    116  CD       -33.5770   -0.1280   -5.4240 C.2   151  GLU151      0.3649
    117  OE1      -34.6620   -0.4830   -4.9040 O.co2 151  GLU151     -0.2457
    118  OE2      -33.4100   -0.0410   -6.6640 O.co2 151  GLU151     -0.2457
    119  N        -32.6660   -1.8030   -0.2030 N.am  152  ASN152     -0.1974
    120  CA       -32.3940   -1.8800    1.2340 C.3   152  ASN152      0.1688
    121  C        -32.0930   -3.3070    1.6910 C.2   152  ASN152      0.2292
    122  O        -32.0450   -3.5730    2.9080 O.2   152  ASN152     -0.2864
    123  CB       -33.5900   -1.3450    2.0140 C.3   152  ASN152      0.1181
    124  CG       -33.7890    0.1310    1.8680 C.2   152  ASN152      0.2629
    125  OD1      -32.8890    0.8750    1.4690 O.2   152  ASN152     -0.2716
    126  ND2      -34.9780    0.5870    2.1970 N.am  152  ASN152     -0.0877
    127  N        -29.4670   -6.5860    1.5830 N.3   154  LEU154     -0.1245
    128  CA       -28.0970   -7.0560    1.3930 C.3   154  LEU154      0.1561
    129  C        -28.0630   -8.5730    1.3370 C.2   154  LEU154      0.2260
    130  O        -28.9980   -9.2260    1.8010 O.2   154  LEU154     -0.2867
    131  CB       -27.1560   -6.5810    2.5190 C.3   154  LEU154      0.0270
    132  CG       -27.0190   -5.1040    2.8090 C.3   154  LEU154      0.0019
    133  CD1      -26.1740   -4.8970    4.0270 C.3   154  LEU154      0.0001
    134  CD2      -26.4060   -4.3500    1.6390 C.3   154  LEU154      0.0001
    135  N        -30.8200   -3.9900    6.2480 N.3   164  CYS164     -0.1221
    136  CA       -29.7820   -3.1540    6.8670 C.3   164  CYS164      0.1808
    137  C        -30.2460   -1.7790    7.3120 C.2   164  CYS164      0.2601
    138  O        -29.7100   -1.2810    8.3110 O.2   164  CYS164     -0.2717
    139  CB       -28.5850   -3.0280    5.9300 C.3   164  CYS164      0.0970
    140  SG       -28.9930   -2.3570    4.2960 S.3   164  CYS164     -0.0800
    141  N        -31.1400   -1.1190    6.5410 N.am  165  ASP165     -0.1973
    142  CA       -31.5470    0.2510    6.8540 C.3   165  ASP165      0.1709
    143  C        -32.8970    0.3040    7.5280 C.2   165  ASP165      0.2293
    144  O        -33.8470   -0.3420    7.0990 O.2   165  ASP165     -0.2864
    145  CB       -31.5480    1.1420    5.6060 C.3   165  ASP165      0.1436
    146  CG       -31.5930    2.6240    5.9310 C.2   165  ASP165      0.3671
    147  OD1      -30.5100    3.2190    6.1450 O.co2 165  ASP165     -0.2456
    148  OD2      -32.7160    3.1830    6.0020 O.co2 165  ASP165     -0.2456
@<TRIPOS>BOND
     1   118   116   ar
     2   116   117   ar
     3   116   115    1
     4   115   114    1
     5   104   103    2
     6   109   107   am
     7   114   111    1
     8   103   102    1
     9   110   111    1
    10   105   102    1
    11   105   106    1
    12   111   112    1
    13   107   108    2
    14   107   106    1
    15   102   101    1
    16   101    99   am
    17     4     3    2
    18   112   113    2
    19   112   119   am
    20    98    99    1
    21    98    97    1
    22    99   100    2
    23    91    90    2
    24     3     2    1
    25     3     9   am
    26    97    90   am
    27    90    89    1
    28   119   120    1
    29    92    93    1
    30    92    89    1
    31    10     9    1
    32    10    11    1
    33    10    13    1
    34    96    95    1
    35    94    93    1
    36    94    95    1
    37     2     1    1
    38     2     5    1
    39    11    12    2
    40    89    88    1
    41     8     6    1
    42   120   121    1
    43   120   123    1
    44     5     6    1
    45   129   128    1
    46   129   130    2
    47   128   127    1
    48   128   131    1
    49   125   124    2
    50   134   132    1
    51   121   122    2
    52   124   123    1
    53   124   126   am
    54    88    84   am
    55     6     7    1
    56   131   132    1
    57    85    84    2
    58    84    83    1
    59   132   133    1
    60    17    16    2
    61    86    83    1
    62    86    87    1
    63    14    15    1
    64    83    82    1
    65    18    20    1
    66    18    15    1
    67    18    19    1
    68    16    15    1
    69   140   139    1
    70    82    76   am
    71    81    79    1
    72    80    79    1
    73    79    78    1
    74   145   146    1
    75   145   142    1
    76   139   136    1
    77   146   148   ar
    78   146   147   ar
    79    76    77    2
    80    76    75    1
    81   135   136    1
    82   141   142    1
    83   141   137   am
    84    78    75    1
    85   142   143    1
    86   136   137    1
    87    75    74    1
    88   144   143    2
    89    34    33    1
    90   137   138    2
    91    33    32    1
    92    25    22    1
    93    31    32    1
    94    31    30    1
    95    22    21    1
    96    22    23    1
    97    74    67   am
    98    68    67    2
    99    49    47    1
   100    72    71   ar
   101    27    30    1
   102    27    26    1
   103    27    28    1
   104    47    48    1
   105    47    44    1
   106    67    66    1
   107    23    24    2
   108    28    29    2
   109    71    70    1
   110    71    73   ar
   111    70    69    1
   112    43    44    1
   113    44    45    1
   114    63    62    1
   115    66    69    1
   116    66    65    1
   117    65    60   am
   118    61    60    2
   119    62    64    1
   120    62    59    1
   121    45    46    2
   122    60    59    1
   123    57    55    1
   124    42    41    1
   125    53    52    2
   126    59    58    1
   127    41    40    1
   128    55    54    1
   129    55    56    1
   130    54    51    1
   131    52    51    1
   132    40    39    1
   133    50    51    1
   134    39    36    1
   135    36    35    1
   136    36    37    1
   137    38    37    2
