@<TRIPOS>MOLECULE
tmp/4c58A00.pdb
 151 139 0 0 0
SMALL
GASTEIGER

@<TRIPOS>ATOM
      1  N         38.4960   16.5680  -55.1770 N.3    18  ARG18      -0.1245
      2  CA        38.4140   15.1830  -54.6780 C.3    18  ARG18       0.1563
      3  C         37.3650   14.9920  -53.5610 C.2    18  ARG18       0.2260
      4  O         36.8380   15.9540  -53.0320 O.2    18  ARG18      -0.2867
      5  CB        39.7880   14.7120  -54.1540 C.3    18  ARG18       0.0307
      6  CG        40.1260   15.2220  -52.7520 C.3    18  ARG18       0.0489
      7  CD        41.6110   15.1590  -52.4460 C.3    18  ARG18       0.2205
      8  NE        41.8960   15.7150  -51.1320 N.pl3  18  ARG18      -0.0865
      9  CZ        41.7220   15.0640  -49.9790 C.cat  18  ARG18       0.5346
     10  NH1       41.2610   13.8100  -49.9620 N.pl3  18  ARG18       0.1354
     11  NH2       42.0030   15.6690  -48.8190 N.pl3  18  ARG18       0.1354
     12  N         36.1570   14.1590  -49.9130 N.3    20  LEU20      -0.1231
     13  CA        36.6200   14.1680  -48.5230 C.3    20  LEU20       0.1693
     14  C         35.8440   13.1630  -47.6720 C.2    20  LEU20       0.2591
     15  O         36.4380   12.3980  -46.9090 O.2    20  LEU20      -0.2718
     16  CB        36.4860   15.5630  -47.9360 C.3    20  LEU20       0.0284
     17  CG        37.2240   16.6650  -48.6790 C.3    20  LEU20       0.0019
     18  CD1       36.9400   18.0260  -48.0770 C.3    20  LEU20       0.0001
     19  CD2       38.7110   16.3780  -48.6740 C.3    20  LEU20       0.0001
     20  N         34.5230   13.1580  -47.8350 N.am   21  ALA21      -0.1980
     21  CA        33.6320   12.3480  -47.0150 C.3    21  ALA21       0.1597
     22  C         32.3870   11.9370  -47.7980 C.2    21  ALA21       0.2287
     23  O         31.9740   12.6310  -48.7380 O.2    21  ALA21      -0.2864
     24  CB        33.2190   13.1390  -45.7750 C.3    21  ALA21       0.0319
     25  N         30.8960   15.0640  -49.5010 N.3    28  VAL28      -0.1245
     26  CA        31.5980   16.3190  -49.3690 C.3    28  VAL28       0.1561
     27  C         32.8600   16.2580  -50.2200 C.2    28  VAL28       0.2260
     28  O         33.5540   15.2260  -50.2560 O.2    28  VAL28      -0.2867
     29  CB        31.9630   16.6380  -47.9110 C.3    28  VAL28       0.0252
     30  CG1       32.5540   18.0440  -47.8340 C.3    28  VAL28       0.0019
     31  CG2       30.7320   16.5230  -46.9880 C.3    28  VAL28       0.0019
     32  N         35.1450   23.5970  -48.8290 N.3    41  ALA41      -0.1245
     33  CA        34.4700   22.3120  -48.7460 C.3    41  ALA41       0.1562
     34  C         33.1400   22.5370  -49.4510 C.2    41  ALA41       0.2260
     35  O         32.5170   23.5590  -49.2820 O.2    41  ALA41      -0.2867
     36  CB        34.2620   21.8780  -47.2760 C.3    41  ALA41       0.0290
     37  N         29.6180   20.4910  -50.0570 N.3    43  LYS43      -0.1245
     38  CA        28.7810   19.3490  -49.7970 C.3    43  LYS43       0.1561
     39  C         27.6490   19.3160  -50.8270 C.2    43  LYS43       0.2260
     40  O         26.9470   20.3020  -51.0360 O.2    43  LYS43      -0.2867
     41  CB        28.2100   19.4200  -48.3880 C.3    43  LYS43       0.0271
     42  CG        27.4840   18.1620  -47.9950 C.3    43  LYS43       0.0035
     43  CD        26.8890   18.2280  -46.6060 C.3    43  LYS43       0.0206
     44  CE        26.9220   16.8680  -45.9250 C.3    43  LYS43       0.1093
     45  NZ        25.9210   16.8290  -44.8120 N.3    43  LYS43      -0.1314
     46  N         19.4890   21.7990  -42.3300 N.3    59  GLU59      -0.1245
     47  CA        20.9450   21.7950  -42.1350 C.3    59  GLU59       0.1567
     48  C         21.6150   23.0710  -42.6090 C.2    59  GLU59       0.2260
     49  O         22.4720   23.6200  -41.9260 O.2    59  GLU59      -0.2867
     50  CB        21.5970   20.5580  -42.7880 C.3    59  GLU59       0.0388
     51  CG        23.1250   20.5660  -42.8000 C.3    59  GLU59       0.1160
     52  CD        23.7410   19.2150  -43.2390 C.2    59  GLU59       0.3649
     53  OE1       23.0200   18.1910  -43.4900 O.co2  59  GLU59      -0.2457
     54  OE2       24.9810   19.1960  -43.3120 O.co2  59  GLU59      -0.2457
     55  N         23.5610   25.8680  -40.3410 N.3    63  MET63      -0.1245
     56  CA        24.8730   26.3140  -40.6990 C.3    63  MET63       0.1570
     57  C         24.9340   27.8380  -40.8460 C.2    63  MET63       0.2261
     58  O         25.8500   28.4600  -40.3370 O.2    63  MET63      -0.2867
     59  CB        25.3620   25.5780  -41.9290 C.3    63  MET63       0.0387
     60  CG        26.8220   25.8300  -42.2790 C.3    63  MET63       0.0595
     61  SD        27.9460   24.4090  -42.0710 S.3    63  MET63      -0.1393
     62  CE        26.9110   23.1190  -42.7760 C.3    63  MET63       0.0692
     63  N         32.5970   25.6670  -38.5180 N.3    73  VAL73      -0.1245
     64  CA        32.9980   25.9790  -39.9100 C.3    73  VAL73       0.1561
     65  C         32.1740   27.1390  -40.4770 C.2    73  VAL73       0.2260
     66  O         30.9710   27.2530  -40.2490 O.2    73  VAL73      -0.2867
     67  CB        32.8860   24.7820  -40.8980 C.3    73  VAL73       0.0252
     68  CG1       33.7030   23.5960  -40.3860 C.3    73  VAL73       0.0019
     69  CG2       31.4250   24.4120  -41.1380 C.3    73  VAL73       0.0019
     70  N         26.2850   23.0280  -50.7340 N.3    95  LEU95      -0.1245
     71  CA        26.5710   23.7800  -49.5450 C.3    95  LEU95       0.1561
     72  C         28.0670   23.9620  -49.5100 C.2    95  LEU95       0.2260
     73  O         28.7950   22.9870  -49.6040 O.2    95  LEU95      -0.2867
     74  CB        26.0380   23.0210  -48.3280 C.3    95  LEU95       0.0270
     75  CG        26.2780   23.4590  -46.8820 C.3    95  LEU95       0.0019
     76  CD1       25.8340   24.8880  -46.5290 C.3    95  LEU95       0.0001
     77  CD2       25.5560   22.4160  -46.0290 C.3    95  LEU95       0.0001
     78  N         31.4150   25.7410  -47.7350 N.3    97  THR97      -0.1203
     79  CA        31.9370   26.1460  -46.4530 C.3    97  THR97       0.1994
     80  C         33.4740   26.1790  -46.4330 C.2    97  THR97       0.2618
     81  O         34.1660   25.9050  -47.4290 O.2    97  THR97      -0.2717
     82  CB        31.4910   25.1690  -45.3400 C.3    97  THR97       0.1784
     83  OG1       31.9810   23.8650  -45.6350 O.3    97  THR97      -0.2211
     84  CG2       29.9690   25.1400  -45.1780 C.3    97  THR97       0.0376
     85  N         33.9760   26.5380  -45.2690 N.am   98  GLU98      -0.1965
     86  CA        35.3770   26.5660  -44.9560 C.3    98  GLU98       0.1733
     87  C         35.9680   25.1790  -45.1070 C.2    98  GLU98       0.2616
     88  O         35.4610   24.2160  -44.5340 O.2    98  GLU98      -0.2715
     89  CB        35.4980   27.0120  -43.5050 C.3    98  GLU98       0.0429
     90  CG        36.8790   27.4070  -43.0580 C.3    98  GLU98       0.1163
     91  CD        36.9390   27.6170  -41.5820 C.2    98  GLU98       0.3649
     92  OE1       35.8790   27.9280  -41.0010 O.co2  98  GLU98      -0.2457
     93  OE2       38.0350   27.4560  -41.0020 O.co2  98  GLU98      -0.2457
     94  N         37.0490   25.0910  -45.8790 N.am   99  LEU99      -0.1963
     95  CA        37.8380   23.8860  -45.9840 C.3    99  LEU99       0.1728
     96  C         38.7590   23.8400  -44.7750 C.2    99  LEU99       0.2616
     97  O         39.4810   24.7850  -44.5030 O.2    99  LEU99      -0.2715
     98  CB        38.6720   23.8890  -47.2550 C.3    99  LEU99       0.0311
     99  CG        39.4970   22.6220  -47.4750 C.3    99  LEU99       0.0022
    100  CD1       38.5650   21.4350  -47.7230 C.3    99  LEU99       0.0001
    101  CD2       40.4970   22.8230  -48.6120 C.3    99  LEU99       0.0001
    102  N         38.7130   22.7340  -44.0510 N.am  100  CYS100     -0.1954
    103  CA        39.5630   22.5460  -42.9240 C.3   100  CYS100      0.1843
    104  C         40.7910   21.7060  -43.3080 C.2   100  CYS100      0.2625
    105  O         40.9290   21.2390  -44.4380 O.2   100  CYS100     -0.2714
    106  CB        38.7400   21.9560  -41.7740 C.3   100  CYS100      0.0997
    107  SG        37.4240   23.0850  -41.1770 S.3   100  CYS100     -0.0797
    108  N         41.7050   21.5620  -42.3690 N.am  101  LYS101     -0.1963
    109  CA        42.9520   20.8180  -42.5780 C.3   101  LYS101      0.1728
    110  C         42.6650   19.3110  -42.6310 C.2   101  LYS101      0.2617
    111  O         43.2330   18.5530  -43.4230 O.2   101  LYS101     -0.2715
    112  CB        43.8870   21.1760  -41.4350 C.3   101  LYS101      0.0311
    113  CG        45.3240   20.8490  -41.6370 C.3   101  LYS101      0.0038
    114  CD        46.1400   21.4140  -40.4650 C.3   101  LYS101      0.0206
    115  CE        46.5680   22.8560  -40.7270 C.3   101  LYS101      0.1093
    116  NZ        47.3340   22.9670  -42.0190 N.3   101  LYS101     -0.1314
    117  N         41.7350   18.8850  -41.8040 N.am  102  GLY102     -0.1940
    118  CA        41.3220   17.4850  -41.8070 C.3   102  GLY102      0.2014
    119  C         40.4500   17.1400  -40.6130 C.2   102  GLY102      0.2638
    120  O         40.0740   18.0190  -39.8360 O.2   102  GLY102     -0.2714
    121  N         40.1260   15.8580  -40.4680 N.am  103  GLN103     -0.1977
    122  CA        39.4090   15.4150  -39.2870 C.3   103  GLN103      0.1601
    123  C         40.3720   15.3770  -38.1430 C.2   103  GLN103      0.2287
    124  O         41.5230   14.9810  -38.3050 O.2   103  GLN103     -0.2864
    125  CB        38.8520   14.0170  -39.4800 C.3   103  GLN103      0.0394
    126  CG        37.7400   13.9300  -40.4710 C.3   103  GLN103      0.0908
    127  CD        37.2220   12.5170  -40.5700 C.2   103  GLN103      0.2608
    128  OE1       37.8800   11.6440  -41.1190 O.2   103  GLN103     -0.2717
    129  NE2       36.0470   12.2850  -40.0140 N.am  103  GLN103     -0.0878
    130  N         36.5090   18.7440  -36.6920 N.3   154  LEU154     -0.1245
    131  CA        37.5860   19.0670  -37.6540 C.3   154  LEU154      0.1561
    132  C         38.6630   19.9510  -37.0320 C.2   154  LEU154      0.2260
    133  O         38.4570   20.6100  -36.0090 O.2   154  LEU154     -0.2867
    134  CB        37.0490   19.7140  -38.9440 C.3   154  LEU154      0.0270
    135  CG        35.8930   19.0280  -39.7050 C.3   154  LEU154      0.0019
    136  CD1       35.3280   19.9800  -40.7640 C.3   154  LEU154      0.0001
    137  CD2       36.2450   17.6650  -40.3000 C.3   154  LEU154      0.0001
    138  N         31.1650   20.8510  -37.5730 N.3   164  CYS164     -0.1221
    139  CA        30.5880   21.0100  -38.8930 C.3   164  CYS164      0.1808
    140  C         29.2760   20.2760  -39.2150 C.2   164  CYS164      0.2601
    141  O         28.6230   20.6320  -40.2250 O.2   164  CYS164     -0.2717
    142  CB        31.6180   20.5400  -39.9300 C.3   164  CYS164      0.0970
    143  SG        31.8140   18.7370  -39.9010 S.3   164  CYS164     -0.0800
    144  N         28.9250   19.2420  -38.4430 N.am  165  ASP165     -0.1973
    145  CA        27.8790   18.2750  -38.8350 C.3   165  ASP165      0.1709
    146  C         26.4970   18.6220  -38.2370 C.2   165  ASP165      0.2293
    147  O         26.1480   18.0980  -37.1940 O.2   165  ASP165     -0.2864
    148  CB        28.2940   16.8690  -38.3390 C.3   165  ASP165      0.1436
    149  CG        28.7110   16.8550  -36.8230 C.2   165  ASP165      0.3671
    150  OD1       29.1590   17.9040  -36.2910 O.co2 165  ASP165     -0.2456
    151  OD2       28.5940   15.7860  -36.1780 O.co2 165  ASP165     -0.2456
@<TRIPOS>BOND
     1     1     2    1
     2     2     5    1
     3     2     3    1
     4     5     6    1
     5     3     4    2
     6     6     7    1
     7     7     8    1
     8     8     9    2
     9    40    39    2
    10    39    38    1
    11    70    71    1
    12    28    27    2
    13    27    26    1
    14    37    38    1
    15     9    10    1
    16     9    11    1
    17    12    13    1
    18    38    41    1
    19    73    72    2
    20    71    72    1
    21    71    74    1
    22    25    26    1
    23    34    35    2
    24    34    33    1
    25    26    29    1
    26    32    33    1
    27    33    36    1
    28    23    22    2
    29    17    19    1
    30    17    18    1
    31    17    16    1
    32   101    99    1
    33    13    16    1
    34    13    14    1
    35    41    42    1
    36    74    75    1
    37    42    43    1
    38    29    30    1
    39    29    31    1
    40    20    14   am
    41    20    21    1
    42    22    21    1
    43    78    79    1
    44   100    99    1
    45    14    15    2
    46    99    98    1
    47    81    80    2
    48    98    95    1
    49    21    24    1
    50    75    76    1
    51    75    77    1
    52    43    44    1
    53    79    80    1
    54    79    82    1
    55    80    85   am
    56    95    94    1
    57    95    96    1
    58    44    45    1
    59    94    87   am
    60    83    82    1
    61    82    84    1
    62    85    86    1
    63    87    86    1
    64    87    88    2
    65    86    89    1
    66    96    97    2
    67    96   102   am
    68   105   104    2
    69   102   103    1
    70    89    90    1
    71    53    52   ar
    72   111   110    2
    73    54    52   ar
    74   104   103    1
    75   104   108   am
    76    52    51    1
    77    90    91    1
    78   103   106    1
    79    51    50    1
    80    50    47    1
    81    62    61    1
    82   110   109    1
    83   110   117   am
    84    48    47    1
    85    48    49    2
    86   109   108    1
    87   109   112    1
    88    46    47    1
    89    60    61    1
    90    60    59    1
    91   116   115    1
    92    59    56    1
    93   118   117    1
    94   118   119    1
    95   106   107    1
    96   113   112    1
    97   113   114    1
    98    91    93   ar
    99    91    92   ar
   100    69    67    1
   101   128   127    2
   102    67    68    1
   103    67    64    1
   104    57    56    1
   105    57    58    2
   106   136   135    1
   107   115   114    1
   108    56    55    1
   109   119   121   am
   110   119   120    2
   111   127   126    1
   112   127   129   am
   113    65    66    2
   114    65    64    1
   115   126   125    1
   116   121   122    1
   117   137   135    1
   118   141   140    2
   119   142   143    1
   120   142   139    1
   121    64    63    1
   122   135   134    1
   123   125   122    1
   124   122   123    1
   125   140   139    1
   126   140   144   am
   127   134   131    1
   128   139   138    1
   129   145   144    1
   130   145   148    1
   131   145   146    1
   132   148   149    1
   133   124   123    2
   134   146   147    2
   135   131   132    1
   136   131   130    1
   137   132   133    2
   138   149   150   ar
   139   149   151   ar
