@<TRIPOS>MOLECULE
tmp/4c59A00.pdb
 177 164 0 0 0
SMALL
GASTEIGER

@<TRIPOS>ATOM
      1  N         22.7010   20.5730  -67.3280 N.3    18  ARG18      -0.1245
      2  CA        22.8920   19.1300  -67.0540 C.3    18  ARG18       0.1563
      3  C         22.7640   18.7540  -65.5720 C.2    18  ARG18       0.2260
      4  O         22.7050   19.6250  -64.6980 O.2    18  ARG18      -0.2867
      5  CB        24.2660   18.6720  -67.5580 C.3    18  ARG18       0.0307
      6  CG        25.4330   19.2680  -66.7860 C.3    18  ARG18       0.0489
      7  CD        26.6660   19.4000  -67.6590 C.3    18  ARG18       0.2205
      8  NE        27.8560   19.7000  -66.8650 N.pl3  18  ARG18      -0.0865
      9  CZ        28.5310   18.8080  -66.1370 C.cat  18  ARG18       0.5346
     10  NH1       28.1390   17.5350  -66.0770 N.pl3  18  ARG18       0.1354
     11  NH2       29.6020   19.1930  -65.4510 N.pl3  18  ARG18       0.1354
     12  N         24.2860   17.4350  -62.2350 N.3    20  LEU20      -0.1231
     13  CA        25.5450   17.3170  -61.5230 C.3    20  LEU20       0.1693
     14  C         25.4620   16.1900  -60.5060 C.2    20  LEU20       0.2592
     15  O         26.3620   15.3580  -60.4420 O.2    20  LEU20      -0.2718
     16  CB        25.9190   18.6460  -60.8620 C.3    20  LEU20       0.0284
     17  CG        26.0490   19.8110  -61.8570 C.3    20  LEU20       0.0019
     18  CD1       26.3230   21.1230  -61.1460 C.3    20  LEU20       0.0001
     19  CD2       27.1280   19.5380  -62.8930 C.3    20  LEU20       0.0001
     20  N         24.3740   16.1380  -59.7420 N.am   21  ALA21      -0.1966
     21  CA        24.1940   15.0800  -58.7460 C.3    21  ALA21       0.1728
     22  C         22.7240   14.7090  -58.5350 C.2    21  ALA21       0.2616
     23  O         21.8280   15.5070  -58.8200 O.2    21  ALA21      -0.2715
     24  CB        24.8230   15.5020  -57.4310 C.3    21  ALA21       0.0334
     25  N         22.4890   13.5000  -58.0200 N.am   22  GLU22      -0.1977
     26  CA        21.1310   13.0290  -57.7070 C.3    22  GLU22       0.1602
     27  C         21.0130   12.5180  -56.2480 C.2    22  GLU22       0.2287
     28  O         21.4130   13.2250  -55.3150 O.2    22  GLU22      -0.2864
     29  CB        20.6660   11.9970  -58.7560 C.3    22  GLU22       0.0415
     30  CG        21.6220   10.8420  -59.0480 C.3    22  GLU22       0.1163
     31  CD        21.1250    9.9290  -60.1750 C.2    22  GLU22       0.3649
     32  OE1       20.3550   10.4050  -61.0440 O.co2  22  GLU22      -0.2457
     33  OE2       21.5050    8.7360  -60.2030 O.co2  22  GLU22      -0.2457
     34  N         20.5750   17.9460  -58.3660 N.3    28  VAL28      -0.1245
     35  CA        21.2740   19.2070  -58.5710 C.3    28  VAL28       0.1561
     36  C         21.6480   19.3470  -60.0400 C.2    28  VAL28       0.2260
     37  O         22.1040   18.3900  -60.6770 O.2    28  VAL28      -0.2867
     38  CB        22.5450   19.3130  -57.7170 C.3    28  VAL28       0.0252
     39  CG1       23.1210   20.7200  -57.8130 C.3    28  VAL28       0.0019
     40  CG2       22.2410   18.9580  -56.2720 C.3    28  VAL28       0.0019
     41  N         24.5000   26.6900  -59.6190 N.3    41  ALA41      -0.1245
     42  CA        23.9950   25.3850  -59.2600 C.3    41  ALA41       0.1562
     43  C         22.5380   25.5960  -58.9360 C.2    41  ALA41       0.2260
     44  O         22.1820   26.5970  -58.3050 O.2    41  ALA41      -0.2867
     45  CB        24.7270   24.8430  -58.0540 C.3    41  ALA41       0.0290
     46  N         19.4360   23.4120  -57.2590 N.3    43  LYS43      -0.1245
     47  CA        18.9600   22.2140  -56.5980 C.3    43  LYS43       0.1561
     48  C         17.4370   22.2040  -56.6370 C.2    43  LYS43       0.2260
     49  O         16.7860   23.1490  -56.1580 O.2    43  LYS43      -0.2867
     50  CB        19.4510   22.1720  -55.1620 C.3    43  LYS43       0.0271
     51  CG        19.2760   20.8210  -54.4880 C.3    43  LYS43       0.0035
     52  CD        19.6710   20.8850  -53.0130 C.3    43  LYS43       0.0206
     53  CE        20.2100   19.5470  -52.5270 C.3    43  LYS43       0.1093
     54  NZ        20.0660   19.3620  -51.0590 N.3    43  LYS43      -0.1314
     55  N         20.3980   27.7860  -45.4260 N.3    63  MET63      -0.1245
     56  CA        21.2910   28.2660  -46.4700 C.3    63  MET63       0.1570
     57  C         21.2700   29.7810  -46.5780 C.2    63  MET63       0.2261
     58  O         22.3070   30.3900  -46.7450 O.2    63  MET63      -0.2867
     59  CB        20.9120   27.7080  -47.8070 C.3    63  MET63       0.0387
     60  CG        21.9700   28.0190  -48.8480 C.3    63  MET63       0.0595
     61  SD        22.4340   26.5340  -49.7320 S.3    63  MET63      -0.1393
     62  CE        21.7060   25.2900  -48.6550 C.3    63  MET63       0.0692
     63  N         28.5590   27.6240  -49.5800 N.3    73  VAL73      -0.1245
     64  CA        28.1010   28.0310  -50.9170 C.3    73  VAL73       0.1561
     65  C         27.2180   29.2680  -50.8080 C.2    73  VAL73       0.2260
     66  O         26.4300   29.3940  -49.8760 O.2    73  VAL73      -0.2867
     67  CB        27.3270   26.9220  -51.6820 C.3    73  VAL73       0.0252
     68  CG1       28.2260   25.7300  -51.9550 C.3    73  VAL73       0.0019
     69  CG2       26.0560   26.5160  -50.9610 C.3    73  VAL73       0.0019
     70  N         16.3530   25.7790  -55.4430 N.3    95  LEU95      -0.1245
     71  CA        17.3910   26.4750  -54.7160 C.3    95  LEU95       0.1561
     72  C         18.5390   26.8270  -55.6650 C.2    95  LEU95       0.2260
     73  O         19.1330   25.9480  -56.2880 O.2    95  LEU95      -0.2867
     74  CB        17.8800   25.6020  -53.5670 C.3    95  LEU95       0.0270
     75  CG        19.0640   26.0960  -52.7560 C.3    95  LEU95       0.0019
     76  CD1       18.7110   27.3270  -51.9350 C.3    95  LEU95       0.0001
     77  CD2       19.4970   24.9570  -51.8570 C.3    95  LEU95       0.0001
     78  N         22.2600   28.6980  -56.1210 N.3    97  THR97      -0.1203
     79  CA        23.4630   29.1550  -55.4390 C.3    97  THR97       0.1994
     80  C         24.6120   29.2260  -56.4030 C.2    97  THR97       0.2618
     81  O         24.4920   28.7880  -57.5350 O.2    97  THR97      -0.2717
     82  CB        23.8890   28.1620  -54.3550 C.3    97  THR97       0.1784
     83  OG1       24.1530   26.8920  -54.9580 O.3    97  THR97      -0.2211
     84  CG2       22.8120   28.0170  -53.3320 C.3    97  THR97       0.0376
     85  N         25.7490   29.7180  -55.9300 N.am   98  GLU98      -0.1965
     86  CA        26.9620   29.6960  -56.7240 C.3    98  GLU98       0.1733
     87  C         27.2340   28.2680  -57.2020 C.2    98  GLU98       0.2616
     88  O         26.9310   27.2970  -56.4960 O.2    98  GLU98      -0.2715
     89  CB        28.1570   30.2060  -55.9180 C.3    98  GLU98       0.0429
     90  CG        28.9100   29.1160  -55.1790 C.3    98  GLU98       0.1163
     91  CD        30.0980   29.6450  -54.3940 C.2    98  GLU98       0.3649
     92  OE1       29.8980   30.0580  -53.2310 O.co2  98  GLU98      -0.2457
     93  OE2       31.2400   29.6180  -54.9200 O.co2  98  GLU98      -0.2457
     94  N         27.8100   28.1550  -58.3970 N.am   99  LEU99      -0.1963
     95  CA        28.1560   26.8640  -58.9700 C.3    99  LEU99       0.1728
     96  C         29.5740   26.5330  -58.5590 C.2    99  LEU99       0.2616
     97  O         30.4680   27.3490  -58.7250 O.2    99  LEU99      -0.2715
     98  CB        28.0650   26.9120  -60.4980 C.3    99  LEU99       0.0311
     99  CG        28.5720   25.6780  -61.2550 C.3    99  LEU99       0.0022
    100  CD1       27.6980   24.4720  -60.9680 C.3    99  LEU99       0.0001
    101  CD2       28.6240   25.9470  -62.7380 C.3    99  LEU99       0.0001
    102  N         29.7950   25.3330  -58.0430 N.am  100  CYS100     -0.1954
    103  CA        31.1280   24.9410  -57.6410 C.3   100  CYS100      0.1843
    104  C         31.7350   24.0130  -58.6810 C.2   100  CYS100      0.2625
    105  O         31.0240   23.4370  -59.5000 O.2   100  CYS100     -0.2714
    106  CB        31.0990   24.2830  -56.2650 C.3   100  CYS100      0.0997
    107  SG        30.5980   25.3890  -54.9230 S.3   100  CYS100     -0.0797
    108  N         33.0570   23.8650  -58.6140 N.am  101  LYS101     -0.1963
    109  CA        33.8350   23.1240  -59.6020 C.3   101  LYS101      0.1728
    110  C         33.6090   21.6190  -59.5320 C.2   101  LYS101      0.2617
    111  O         33.6930   20.9300  -60.5470 O.2   101  LYS101     -0.2715
    112  CB        35.3240   23.4350  -59.4320 C.3   101  LYS101      0.0311
    113  CG        36.1970   23.0240  -60.6010 C.3   101  LYS101      0.0038
    114  CD        37.6640   23.3430  -60.3360 C.3   101  LYS101      0.0206
    115  CE        37.9810   24.8230  -60.5110 C.3   101  LYS101      0.1093
    116  NZ        37.8790   25.2760  -61.9330 N.3   101  LYS101     -0.1314
    117  N         33.3290   21.1070  -58.3410 N.am  102  GLY102     -0.1940
    118  CA        33.0340   19.6880  -58.1880 C.3   102  GLY102      0.2014
    119  C         32.9780   19.2600  -56.7410 C.2   102  GLY102      0.2638
    120  O         33.2780   20.0470  -55.8500 O.2   102  GLY102     -0.2714
    121  N         32.5690   18.0100  -56.5200 N.am  103  GLN103     -0.1977
    122  CA        32.6320   17.3690  -55.2020 C.3   103  GLN103      0.1601
    123  C         34.0790   17.1530  -54.7810 C.2   103  GLN103      0.2287
    124  O         34.9240   16.8080  -55.6150 O.2   103  GLN103     -0.2864
    125  CB        31.9620   16.0000  -55.2300 C.3   103  GLN103      0.0394
    126  CG        30.4620   16.0070  -55.1410 C.3   103  GLN103      0.0908
    127  CD        29.9250   14.6170  -54.9010 C.2   103  GLN103      0.2608
    128  OE1       29.9820   13.7540  -55.7780 O.2   103  GLN103     -0.2717
    129  NE2       29.4210   14.3830  -53.6980 N.am  103  GLN103     -0.0878
    130  N         35.8200   13.7110  -55.6640 N.3   106  GLU106     -0.1245
    131  CA        36.3300   13.5760  -57.0280 C.3   106  GLU106      0.1567
    132  C         37.7850   14.0380  -57.1260 C.2   106  GLU106      0.2260
    133  O         38.6160   13.3600  -57.7290 O.2   106  GLU106     -0.2867
    134  CB        35.4440   14.3280  -58.0270 C.3   106  GLU106      0.0388
    135  CG        34.0720   13.6910  -58.2160 C.3   106  GLU106      0.1160
    136  CD        34.1570   12.2110  -58.5550 C.2   106  GLU106      0.3649
    137  OE1       34.8910   11.8540  -59.5020 O.co2 106  GLU106     -0.2457
    138  OE2       33.4870   11.4040  -57.8760 O.co2 106  GLU106     -0.2457
    139  N         31.9850   13.4630  -48.2840 N.3   151  GLU151     -0.1231
    140  CA        31.2830   13.3520  -49.5680 C.3   151  GLU151      0.1699
    141  C         30.4560   14.5890  -49.8590 C.2   151  GLU151      0.2592
    142  O         30.1510   14.8840  -51.0170 O.2   151  GLU151     -0.2718
    143  CB        30.3480   12.1280  -49.5980 C.3   151  GLU151      0.0402
    144  CG        31.0110   10.7920  -49.3040 C.3   151  GLU151      0.1161
    145  CD        31.0420   10.4850  -47.8230 C.2   151  GLU151      0.3649
    146  OE1       29.9780   10.1360  -47.2610 O.co2 151  GLU151     -0.2457
    147  OE2       32.1260   10.6250  -47.2160 O.co2 151  GLU151     -0.2457
    148  N         30.0810   15.2990  -48.8030 N.am  152  ASN152     -0.1974
    149  CA        29.1690   16.4170  -48.9220 C.3   152  ASN152      0.1688
    150  C         29.8960   17.7120  -49.2160 C.2   152  ASN152      0.2292
    151  O         29.2740   18.6980  -49.5860 O.2   152  ASN152     -0.2864
    152  CB        28.3440   16.5580  -47.6400 C.3   152  ASN152      0.1181
    153  CG        27.6130   15.2680  -47.2530 C.2   152  ASN152      0.2629
    154  OD1       27.2130   15.0950  -46.0990 O.2   152  ASN152     -0.2716
    155  ND2       27.4340   14.3640  -48.2150 N.am  152  ASN152     -0.0877
    156  N         32.2570   20.4040  -51.1370 N.3   154  LEU154     -0.1245
    157  CA        32.6190   20.7830  -52.5070 C.3   154  LEU154      0.1561
    158  C         33.8830   21.6470  -52.5500 C.2   154  LEU154      0.2260
    159  O         34.3440   22.1930  -51.5400 O.2   154  LEU154     -0.2867
    160  CB        31.4990   21.5730  -53.1930 C.3   154  LEU154      0.0270
    161  CG        30.0620   21.0870  -53.1270 C.3   154  LEU154      0.0019
    162  CD1       29.1650   22.2160  -53.6040 C.3   154  LEU154      0.0001
    163  CD2       29.8150   19.8320  -53.9390 C.3   154  LEU154      0.0001
    164  N         27.6760   22.4690  -48.2770 N.3   164  CYS164     -0.1221
    165  CA        26.4430   22.6550  -49.0690 C.3   164  CYS164      0.1808
    166  C         25.1960   21.8990  -48.5800 C.2   164  CYS164      0.2601
    167  O         24.0940   22.1710  -49.0490 O.2   164  CYS164     -0.2717
    168  CB        26.7080   22.2890  -50.5370 C.3   164  CYS164      0.0970
    169  SG        26.9330   20.5260  -50.8730 S.3   164  CYS164     -0.0800
    170  N         25.3610   20.9870  -47.6300 N.am  165  ASP165     -0.1973
    171  CA        24.2950   20.0590  -47.2350 C.3   165  ASP165      0.1709
    172  C         23.6520   20.4240  -45.8860 C.2   165  ASP165      0.2293
    173  O         24.0660   19.9160  -44.8400 O.2   165  ASP165     -0.2864
    174  CB        24.8870   18.6510  -47.1360 C.3   165  ASP165      0.1436
    175  CG        26.0860   18.5810  -46.1660 C.2   165  ASP165      0.3671
    176  OD1       26.7900   19.6110  -46.0080 O.co2 165  ASP165     -0.2456
    177  OD2       26.3130   17.5070  -45.5550 O.co2 165  ASP165     -0.2456
@<TRIPOS>BOND
     1     7     8    1
     2     7     6    1
     3     5     2    1
     4     5     6    1
     5     1     2    1
     6     2     3    1
     7     8     9    2
     8     9    10    1
     9     9    11    1
    10     3     4    2
    11    19    17    1
    12   101    99    1
    13    12    13    1
    14   116   115    1
    15    17    18    1
    16    17    16    1
    17    13    16    1
    18    13    14    1
    19    99   100    1
    20    99    98    1
    21    32    31   ar
    22    37    36    2
    23   113   114    1
    24   113   112    1
    25   111   110    2
    26   115   114    1
    27    14    15    2
    28    14    20   am
    29    98    95    1
    30    33    31   ar
    31    31    30    1
    32    36    35    1
    33    20    21    1
    34    41    42    1
    35   109   110    1
    36   109   112    1
    37   109   108    1
    38   110   117   am
    39   137   136   ar
    40   105   104    2
    41    42    43    1
    42    42    45    1
    43    30    29    1
    44    95    96    1
    45    95    94    1
    46    43    44    2
    47    23    22    2
    48    29    26    1
    49    21    22    1
    50    21    24    1
    51    97    96    2
    52   104   108   am
    53   104   103    1
    54    35    34    1
    55    35    38    1
    56    96   102   am
    57   136   135    1
    58   136   138   ar
    59    22    25   am
    60    94    87   am
    61   117   118    1
    62   135   134    1
    63   118   119    1
    64   102   103    1
    65   134   131    1
    66    25    26    1
    67    39    38    1
    68   133   132    2
    69    38    40    1
    70    26    27    1
    71   103   106    1
    72    81    80    2
    73    46    47    1
    74    87    86    1
    75    87    88    2
    76   132   131    1
    77   131   130    1
    78   119   121   am
    79   119   120    2
    80    86    85    1
    81    86    89    1
    82    48    47    1
    83    48    49    2
    84    47    50    1
    85   121   122    1
    86    80    85   am
    87    80    79    1
    88    73    72    2
    89   106   107    1
    90    27    28    2
    91    78    79    1
    92    89    90    1
    93   128   127    2
    94    72    71    1
    95   124   123    2
    96    70    71    1
    97    79    82    1
    98   125   122    1
    99   125   126    1
   100   122   123    1
   101    90    91    1
   102    50    51    1
   103   126   127    1
   104    83    82    1
   105    93    91   ar
   106   127   129   am
   107    71    74    1
   108    51    52    1
   109    91    92   ar
   110    82    84    1
   111   163   161    1
   112   162   161    1
   113    74    75    1
   114   160   161    1
   115   160   157    1
   116    52    53    1
   117    75    76    1
   118    75    77    1
   119   158   157    1
   120   158   159    2
   121    53    54    1
   122   157   156    1
   123    68    67    1
   124    67    69    1
   125    67    64    1
   126   142   141    2
   127    64    65    1
   128    64    63    1
   129   169   168    1
   130    65    66    2
   131   168   165    1
   132   141   140    1
   133   141   148   am
   134    61    60    1
   135    61    62    1
   136   143   140    1
   137   143   144    1
   138   151   150    2
   139   140   139    1
   140   144   145    1
   141   150   149    1
   142   165   166    1
   143   165   164    1
   144   167   166    2
   145   149   148    1
   146   149   152    1
   147    60    59    1
   148   166   170   am
   149   155   153   am
   150   145   146   ar
   151   145   147   ar
   152    59    56    1
   153   152   153    1
   154   170   171    1
   155   153   154    2
   156   171   174    1
   157   171   172    1
   158   174   175    1
   159    58    57    2
   160    57    56    1
   161    56    55    1
   162   175   176   ar
   163   175   177   ar
   164   172   173    2
