@<TRIPOS>MOLECULE
tmp/4c5aB01.pdb
 119 111 0 0 0
SMALL
GASTEIGER

@<TRIPOS>ATOM
      1  N         13.9970   68.4780   53.7440 N.3    13  GLU13      -0.1245
      2  CA        15.4350   68.7730   53.7110 C.3    13  GLU13       0.1567
      3  C         15.9890   68.8050   52.2790 C.2    13  GLU13       0.2260
      4  O         17.1970   68.7080   52.0760 O.2    13  GLU13      -0.2867
      5  CB        16.2180   67.7410   54.5480 C.3    13  GLU13       0.0388
      6  CG        15.6930   67.5450   55.9600 C.3    13  GLU13       0.1160
      7  CD        16.4510   66.4790   56.7220 C.2    13  GLU13       0.3649
      8  OE1       17.5970   66.7580   57.1740 O.co2  13  GLU13      -0.2457
      9  OE2       15.8820   65.3710   56.8890 O.co2  13  GLU13      -0.2457
     10  N         18.8360   71.3840   51.6300 N.3    16  VAL16      -0.1245
     11  CA        20.1140   70.9690   52.2150 C.3    16  VAL16       0.1561
     12  C         20.7520   69.8990   51.3210 C.2    16  VAL16       0.2260
     13  O         21.9520   69.9510   51.0330 O.2    16  VAL16      -0.2867
     14  CB        19.9330   70.4140   53.6340 C.3    16  VAL16       0.0252
     15  CG1       21.3050   70.1590   54.3030 C.3    16  VAL16       0.0019
     16  CG2       19.0880   71.3880   54.4830 C.3    16  VAL16       0.0019
     17  N         18.7300   63.5200   52.1780 N.3    61  HIS61      -0.1241
     18  CA        18.4120   63.5890   53.5970 C.3    61  HIS61       0.1621
     19  C         16.9100   63.4570   53.7610 C.2    61  HIS61       0.2264
     20  O         16.1600   64.0180   52.9660 O.2    61  HIS61      -0.2867
     21  CB        18.8750   64.9420   54.1780 C.3    61  HIS61       0.0745
     22  CG        20.2330   65.3830   53.7150 C.ar   61  HIS61       0.0817
     23  ND1       21.3300   64.5410   53.6970 N.ar   61  HIS61      -0.2268
     24  CD2       20.6820   66.5900   53.2800 C.ar   61  HIS61       0.1154
     25  CE1       22.3870   65.2060   53.2580 C.ar   61  HIS61       0.1986
     26  NE2       22.0230   66.4520   53.0020 N.ar   61  HIS61      -0.2212
     27  N         16.8130   58.2360   53.0670 N.3    66  GLU66      -0.1245
     28  CA        17.5360   57.9340   54.2550 C.3    66  GLU66       0.1567
     29  C         16.8660   56.8420   55.1000 C.2    66  GLU66       0.2260
     30  O         17.4860   56.3350   56.0120 O.2    66  GLU66      -0.2867
     31  CB        17.7060   59.2320   55.0760 C.3    66  GLU66       0.0388
     32  CG        18.8510   59.2490   56.0630 C.3    66  GLU66       0.1160
     33  CD        19.1090   60.6110   56.6910 C.2    66  GLU66       0.3649
     34  OE1       18.4220   61.5920   56.3320 O.co2  66  GLU66      -0.2457
     35  OE2       20.0100   60.6960   57.5680 O.co2  66  GLU66      -0.2457
     36  N         14.4930   65.6520   60.1370 N.3   147  GLY147     -0.1210
     37  CA        15.9030   66.0100   60.2140 C.3   147  GLY147      0.1956
     38  C         16.0390   67.5240   60.1660 C.2   147  GLY147      0.2612
     39  O         15.0300   68.2340   60.0670 O.2   147  GLY147     -0.2717
     40  N         17.2730   68.0170   60.2570 N.am  148  SER148     -0.1952
     41  CA        17.5820   69.4630   60.1690 C.3   148  SER148      0.1924
     42  C         16.7520   70.3500   61.1030 C.2   148  SER148      0.2314
     43  O         16.4290   71.4910   60.7510 O.2   148  SER148     -0.2863
     44  CB        17.4170   69.9680   58.7300 C.3   148  SER148      0.2116
     45  OG        18.2430   69.2600   57.8260 O.3   148  SER148     -0.2180
     46  N         21.7080   75.9040   61.7110 N.3   213  LYS213     -0.1231
     47  CA        22.3720   74.8860   60.9190 C.3   213  LYS213      0.1693
     48  C         22.8740   75.3770   59.5540 C.2   213  LYS213      0.2592
     49  O         24.0170   75.1000   59.1910 O.2   213  LYS213     -0.2718
     50  CB        21.4780   73.6550   60.7630 C.3   213  LYS213      0.0285
     51  CG        21.4670   72.7970   62.0270 C.3   213  LYS213      0.0035
     52  CD        20.3650   71.7690   62.0480 C.3   213  LYS213      0.0206
     53  CE        20.6190   70.7810   63.1970 C.3   213  LYS213      0.1093
     54  NZ        19.6430   69.6360   63.2090 N.3   213  LYS213     -0.1314
     55  N         22.0440   76.1120   58.8060 N.am  214  TYR214     -0.1976
     56  CA        22.3320   76.3100   57.3720 C.3   214  TYR214      0.1639
     57  C         22.3620   77.7390   56.8350 C.2   214  TYR214      0.2290
     58  O         22.8160   77.9760   55.7010 O.2   214  TYR214     -0.2864
     59  CB        21.3360   75.5360   56.5180 C.3   214  TYR214      0.0560
     60  CG        21.1600   74.1140   56.9360 C.ar  214  TYR214     -0.0198
     61  CD1       22.1920   73.1890   56.7780 C.ar  214  TYR214     -0.0009
     62  CD2       19.9590   73.6850   57.4870 C.ar  214  TYR214     -0.0009
     63  CE1       22.0210   71.8580   57.1640 C.ar  214  TYR214      0.0417
     64  CE2       19.7770   72.3700   57.8700 C.ar  214  TYR214      0.0417
     65  CZ        20.8100   71.4610   57.6980 C.ar  214  TYR214      0.1957
     66  OH        20.6290   70.1590   58.0880 O.3   214  TYR214     -0.2866
     67  N         26.7830   60.0790   61.4240 N.3   253  ARG253     -0.1245
     68  CA        27.0560   61.1120   62.4330 C.3   253  ARG253      0.1563
     69  C         26.0620   60.8970   63.5690 C.2   253  ARG253      0.2260
     70  O         24.8460   60.7760   63.3360 O.2   253  ARG253     -0.2867
     71  CB        26.9100   62.5030   61.7990 C.3   253  ARG253      0.0307
     72  CG        27.8510   63.5780   62.3690 C.3   253  ARG253      0.0489
     73  CD        27.4170   65.0040   62.0070 C.3   253  ARG253      0.2205
     74  NE        26.1750   65.3600   62.6730 N.pl3 253  ARG253     -0.0865
     75  CZ        25.0600   65.7180   62.0410 C.cat 253  ARG253      0.5346
     76  NH1       25.0310   65.8300   60.7210 N.pl3 253  ARG253      0.1354
     77  NH2       23.9660   65.9820   62.7310 N.pl3 253  ARG253      0.1354
     78  N         24.4740   62.4090   67.1550 N.3   255  ASP255     -0.1239
     79  CA        24.2810   63.6130   67.9790 C.3   255  ASP255      0.1674
     80  C         24.1360   63.2510   69.4500 C.2   255  ASP255      0.2266
     81  O         23.3710   62.3410   69.8150 O.2   255  ASP255     -0.2867
     82  CB        23.0470   64.4160   67.5190 C.3   255  ASP255      0.1410
     83  CG        23.1300   64.8310   66.0500 C.2   255  ASP255      0.3668
     84  OD1       24.2590   64.8080   65.5010 O.co2 255  ASP255     -0.2456
     85  OD2       22.0800   65.1930   65.4440 O.co2 255  ASP255     -0.2456
     86  N         20.2760   61.1630   68.5080 N.3   268  GLU268     -0.1245
     87  CA        19.9410   60.4440   67.2510 C.3   268  GLU268      0.1567
     88  C         21.1590   60.0820   66.4010 C.2   268  GLU268      0.2260
     89  O         22.2640   60.6320   66.5810 O.2   268  GLU268     -0.2867
     90  CB        18.9960   61.3350   66.3860 C.3   268  GLU268      0.0388
     91  CG        19.5870   62.7330   66.0160 C.3   268  GLU268      0.1160
     92  CD        19.1870   63.2060   64.5970 C.2   268  GLU268      0.3649
     93  OE1       18.4130   62.5600   63.8690 O.co2 268  GLU268     -0.2457
     94  OE2       19.6750   64.2750   64.1910 O.co2 268  GLU268     -0.2457
     95  N         22.4360   59.8620   62.3620 N.3   270  ASN270     -0.1240
     96  CA        22.1620   60.2990   60.9850 C.3   270  ASN270      0.1653
     97  C         22.9850   59.4410   60.0390 C.2   270  ASN270      0.2266
     98  O         24.2220   59.3330   60.1680 O.2   270  ASN270     -0.2867
     99  CB        22.4540   61.8200   60.8430 C.3   270  ASN270      0.1155
    100  CG        21.6210   62.6480   61.7950 C.2   270  ASN270      0.2627
    101  OD1       20.3930   62.8280   61.6000 O.2   270  ASN270     -0.2716
    102  ND2       22.2540   63.0900   62.8940 N.am  270  ASN270     -0.0877
    103  N         22.7190   59.5300   56.5260 N.3   272  SER272     -0.1203
    104  CA        23.0720   60.2420   55.2890 C.3   272  SER272      0.2005
    105  C         23.3250   61.7150   55.6620 C.2   272  SER272      0.2461
    106  O         22.5120   62.5900   55.3880 O.2   272  SER272     -0.2732
    107  CB        21.9600   60.0800   54.2340 C.3   272  SER272      0.2103
    108  OG        22.4780   60.4200   52.9600 O.3   272  SER272     -0.2182
    109  N         24.4340   61.9740   56.3690 N.am  273  PRO273     -0.2717
    110  CA        24.7210   63.3090   56.9490 C.3   273  PRO273      0.1535
    111  C         24.9530   64.4430   55.9270 C.2   273  PRO273      0.2599
    112  O         25.3540   64.2000   54.7940 O.2   273  PRO273     -0.2715
    113  CB        26.0040   63.0790   57.7550 C.3   273  PRO273      0.0310
    114  CG        26.1670   61.6100   57.8750 C.3   273  PRO273      0.0237
    115  CD        25.4790   60.9900   56.7000 C.3   273  PRO273      0.0939
    116  N         24.7240   65.6740   56.3840 N.am  274  GLY274     -0.1955
    117  CA        24.9740   66.8760   55.5770 C.3   274  GLY274      0.1869
    118  C         26.4030   66.9100   55.0920 C.2   274  GLY274      0.2309
    119  O         27.3240   66.5360   55.8310 O.2   274  GLY274     -0.2863
@<TRIPOS>BOND
     1    13    12    2
     2    12    11    1
     3    10    11    1
     4     4     3    2
     5    17    18    1
     6    11    14    1
     7     3     2    1
     8   108   107    1
     9    20    19    2
    10    26    25   ar
    11    26    24   ar
    12    27    28    1
    13    25    23   ar
    14    24    22   ar
    15    18    19    1
    16    18    21    1
    17    14    15    1
    18    14    16    1
    19    23    22   ar
    20     2     1    1
    21     2     5    1
    22    22    21    1
    23   107   104    1
    24    28    31    1
    25    28    29    1
    26     5     6    1
    27   112   111    2
    28    31    32    1
    29   118   117    1
    30   118   119    2
    31    29    30    2
    32   104   105    1
    33   104   103    1
    34   106   105    2
    35   117   116    1
    36   105   109   am
    37    58    57    2
    38   111   116   am
    39   111   110    1
    40     6     7    1
    41    32    33    1
    42    34    33   ar
    43   109   115    1
    44   109   110    1
    45    59    60    1
    46    59    56    1
    47    33    35   ar
    48   115   114    1
    49     7     9   ar
    50     7     8   ar
    51    61    60   ar
    52    61    63   ar
    53    57    56    1
    54    60    62   ar
    55   110   113    1
    56    63    65   ar
    57    56    55    1
    58    62    64   ar
    59    65    64   ar
    60    65    66    1
    61   113   114    1
    62    45    44    1
    63    44    41    1
    64    55    48   am
    65    49    48    2
    66    48    47    1
    67    97    98    2
    68    97    96    1
    69    39    38    2
    70    36    37    1
    71    38    37    1
    72    38    40   am
    73    41    40    1
    74    41    42    1
    75    76    75    1
    76    43    42    2
    77    50    47    1
    78    50    51    1
    79    99    96    1
    80    99   100    1
    81    47    46    1
    82    96    95    1
    83    67    68    1
    84   101   100    2
    85   100   102   am
    86    71    72    1
    87    71    68    1
    88    73    72    1
    89    73    74    1
    90    51    52    1
    91    75    74    2
    92    75    77    1
    93    52    53    1
    94    68    69    1
    95    53    54    1
    96    70    69    2
    97    93    92   ar
    98    94    92   ar
    99    92    91    1
   100    85    83   ar
   101    84    83   ar
   102    91    90    1
   103    83    82    1
   104    90    87    1
   105    88    89    2
   106    88    87    1
   107    78    79    1
   108    87    86    1
   109    82    79    1
   110    79    80    1
   111    80    81    2
