@<TRIPOS>MOLECULE
tmp/4c5aA00.pdb
 79 74 0 0 0
SMALL
GASTEIGER

@<TRIPOS>ATOM
      1  N        -10.7230   44.2490   33.4790 N.3     1  MET1       -0.1230
      2  CA        -9.6520   45.2650   33.4680 C.3     1  MET1        0.1702
      3  C         -9.4780   45.8120   34.8950 C.2     1  MET1        0.2593
      4  O         -9.0180   46.9500   35.1030 O.2     1  MET1       -0.2718
      5  CB        -9.9130   46.3850   32.4420 C.3     1  MET1        0.0401
      6  CG        -9.7450   45.9610   30.9750 C.3     1  MET1        0.0596
      7  SD        -8.0130   45.7710   30.4610 S.3     1  MET1       -0.1393
      8  CE        -8.1960   45.7200   28.6640 C.3     1  MET1        0.0692
      9  N         -9.8780   44.9570   35.8660 N.am    2  THR2       -0.1953
     10  CA        -9.6580   45.2380   37.2820 C.3     2  THR2        0.1897
     11  C         -8.2130   44.9070   37.6520 C.2     2  THR2        0.2313
     12  O         -7.4400   44.4620   36.7960 O.2     2  THR2       -0.2863
     13  CB       -10.6160   44.4320   38.1830 C.3     2  THR2        0.1794
     14  OG1      -10.3630   43.0280   38.0380 O.3     2  THR2       -0.2208
     15  CG2      -12.0780   44.7450   37.8360 C.3     2  THR2        0.0378
     16  N         -4.6790   43.5820   38.5840 N.3     4  LYS4       -0.1245
     17  CA        -3.9060   42.3510   38.4460 C.3     4  LYS4        0.1561
     18  C         -2.9670   42.2630   39.6780 C.2     4  LYS4        0.2260
     19  O         -2.2310   43.2060   39.9590 O.2     4  LYS4       -0.2867
     20  CB        -3.0940   42.4430   37.1530 C.3     4  LYS4        0.0271
     21  CG        -2.3620   41.1910   36.7870 C.3     4  LYS4        0.0035
     22  CD        -1.9010   41.2930   35.3200 C.3     4  LYS4        0.0206
     23  CE        -0.3970   41.2200   35.1900 C.3     4  LYS4        0.1093
     24  NZ         0.0690   40.8840   33.8020 N.3     4  LYS4       -0.1314
     25  N         -8.0800   33.6810   44.0270 N.3    31  ARG31      -0.1245
     26  CA        -8.9270   33.4590   42.8410 C.3    31  ARG31       0.1563
     27  C        -10.3440   33.0440   43.2490 C.2    31  ARG31       0.2260
     28  O        -11.3240   33.4650   42.6230 O.2    31  ARG31      -0.2867
     29  CB        -8.2790   32.4030   41.9340 C.3    31  ARG31       0.0307
     30  CG        -7.0600   32.9810   41.2380 C.3    31  ARG31       0.0489
     31  CD        -6.2390   31.9130   40.5260 C.3    31  ARG31       0.2205
     32  NE        -5.2810   32.5240   39.5920 N.pl3  31  ARG31      -0.0865
     33  CZ        -4.4640   31.8310   38.7930 C.cat  31  ARG31       0.5346
     34  NH1       -4.5270   30.4980   38.7710 N.pl3  31  ARG31       0.1354
     35  NH2       -3.6460   32.4630   37.9530 N.pl3  31  ARG31       0.1354
     36  N        -12.4700   35.9380   43.8160 N.3    34  GLY34      -0.1210
     37  CA       -12.6950   36.8100   42.6440 C.3    34  GLY34       0.1956
     38  C        -11.5550   37.7580   42.2780 C.2    34  GLY34       0.2612
     39  O        -11.7280   38.6790   41.4790 O.2    34  GLY34      -0.2717
     40  N        -10.3860   37.5360   42.8640 N.am   35  ILE35      -0.1965
     41  CA        -9.2210   38.3760   42.6130 C.3    35  ILE35       0.1727
     42  C         -8.3680   37.8010   41.4940 C.2    35  ILE35       0.2616
     43  O         -8.0880   36.6000   41.4560 O.2    35  ILE35      -0.2715
     44  CB        -8.3710   38.5060   43.9070 C.3    35  ILE35       0.0290
     45  CG1       -9.2200   38.9350   45.0930 C.3    35  ILE35       0.0022
     46  CG2       -7.1240   39.3240   43.6760 C.3    35  ILE35       0.0023
     47  CD1       -9.8570   40.3210   44.9660 C.3    35  ILE35       0.0001
     48  N         -7.9430   38.6700   40.5770 N.am   36  ASP36      -0.1971
     49  CA        -7.1830   38.2600   39.4010 C.3    36  ASP36       0.1709
     50  C         -5.6950   38.2320   39.7720 C.2    36  ASP36       0.2293
     51  O         -4.9260   39.1460   39.4590 O.2    36  ASP36      -0.2864
     52  CB        -7.4070   39.2170   38.2240 C.3    36  ASP36       0.1436
     53  CG        -6.9910   38.6040   36.8960 C.2    36  ASP36       0.3671
     54  OD1       -7.2070   37.3890   36.6780 O.co2  36  ASP36      -0.2456
     55  OD2       -6.4700   39.3490   36.0480 O.co2  36  ASP36      -0.2456
     56  N         -1.8200   36.1140   40.1460 N.3    38  TYR38      -0.1241
     57  CA        -0.8820   35.2580   39.3850 C.3    38  TYR38       0.1605
     58  C          0.3660   35.0370   40.2150 C.2    38  TYR38       0.2264
     59  O          0.8480   36.0030   40.8330 O.2    38  TYR38      -0.2867
     60  CB        -0.4700   35.9430   38.0630 C.3    38  TYR38       0.0534
     61  CG        -1.6700   36.1620   37.1830 C.ar   38  TYR38      -0.0201
     62  CD1       -2.4460   37.3030   37.3600 C.ar   38  TYR38      -0.0009
     63  CD2       -2.0840   35.1980   36.2710 C.ar   38  TYR38      -0.0009
     64  CE1       -3.6150   37.5210   36.6230 C.ar   38  TYR38       0.0417
     65  CE2       -3.2560   35.4190   35.5060 C.ar   38  TYR38       0.0417
     66  CZ        -3.9930   36.5760   35.7040 C.ar   38  TYR38       0.1957
     67  OH        -5.1460   36.8000   34.9790 O.3    38  TYR38      -0.2866
     68  N          5.2910   44.6320   34.0640 N.3    53  MET53      -0.1230
     69  CA         4.5340   43.4130   33.7540 C.3    53  MET53       0.1702
     70  C          3.0180   43.5560   33.8820 C.2    53  MET53       0.2592
     71  O          2.2830   42.6360   33.5160 O.2    53  MET53      -0.2718
     72  CB         5.0140   42.2520   34.6180 C.3    53  MET53       0.0401
     73  CG         6.3730   41.7290   34.2010 C.3    53  MET53       0.0596
     74  SD         7.0370   40.6770   35.5180 S.3    53  MET53      -0.1393
     75  CE         6.0630   39.2080   35.2300 C.3    53  MET53       0.0692
     76  N          2.5670   44.6890   34.4100 N.am   54  GLY54      -0.1957
     77  CA         1.1440   45.0250   34.4120 C.3    54  GLY54       0.1869
     78  C          0.4420   44.8000   35.7440 C.2    54  GLY54       0.2309
     79  O         -0.7930   44.8770   35.8190 O.2    54  GLY54      -0.2863
@<TRIPOS>BOND
     1     8     7    1
     2     7     6    1
     3     6     5    1
     4     5     2    1
     5     2     1    1
     6     2     3    1
     7    71    70    2
     8    69    70    1
     9    69    68    1
    10    69    72    1
    11    24    23    1
    12    70    76   am
    13    73    72    1
    14    73    74    1
    15    76    77    1
    16    77    78    1
    17     3     4    2
    18     3     9   am
    19    67    66    1
    20    23    22    1
    21    75    74    1
    22    22    21    1
    23    65    66   ar
    24    65    63   ar
    25    66    64   ar
    26    78    79    2
    27     9    10    1
    28    55    53   ar
    29    63    61   ar
    30    64    62   ar
    31    54    53   ar
    32    21    20    1
    33    12    11    2
    34    53    52    1
    35    20    17    1
    36    61    62   ar
    37    61    60    1
    38    10    11    1
    39    10    13    1
    40    15    13    1
    41    35    33    1
    42    14    13    1
    43    60    57    1
    44    52    49    1
    45    17    16    1
    46    17    18    1
    47    34    33    1
    48    33    32    2
    49    57    56    1
    50    57    58    1
    51    49    50    1
    52    49    48    1
    53    51    50    2
    54    32    31    1
    55    18    19    2
    56    58    59    2
    57    31    30    1
    58    48    42   am
    59    30    29    1
    60    43    42    2
    61    39    38    2
    62    42    41    1
    63    29    26    1
    64    38    37    1
    65    38    40   am
    66    41    40    1
    67    41    44    1
    68    28    27    2
    69    37    36    1
    70    26    27    1
    71    26    25    1
    72    46    44    1
    73    44    45    1
    74    47    45    1
