@<TRIPOS>MOLECULE
tmp/4c5cB00.pdb
 225 214 0 0 0
SMALL
GASTEIGER

@<TRIPOS>ATOM
      1  N         12.2270   68.3400   53.7660 N.3    15  GLU15      -0.1245
      2  CA        13.6770   68.6310   53.8330 C.3    15  GLU15       0.1567
      3  C         14.2770   68.7440   52.4230 C.2    15  GLU15       0.2260
      4  O         15.5080   68.7400   52.2730 O.2    15  GLU15      -0.2867
      5  CB        14.4140   67.5680   54.6590 C.3    15  GLU15       0.0388
      6  CG        13.9890   67.5980   56.1470 C.3    15  GLU15       0.1160
      7  CD        14.6610   66.5320   56.9520 C.2    15  GLU15       0.3649
      8  OE1       14.1520   65.3830   56.9750 O.co2  15  GLU15      -0.2457
      9  OE2       15.7140   66.8030   57.5240 O.co2  15  GLU15      -0.2457
     10  N         10.7940   58.2510   65.2950 N.3    97  LYS97      -0.1245
     11  CA        11.2570   58.5930   66.6540 C.3    97  LYS97       0.1561
     12  C         10.4750   57.8730   67.7270 C.2    97  LYS97       0.2260
     13  O         11.0500   57.5200   68.7490 O.2    97  LYS97      -0.2867
     14  CB        11.1510   60.1000   66.8750 C.3    97  LYS97       0.0271
     15  CG        12.1750   60.9460   66.0930 C.3    97  LYS97       0.0035
     16  CD        11.9380   62.4200   66.4480 C.3    97  LYS97       0.0206
     17  CE        13.0400   63.3360   65.8780 C.3    97  LYS97       0.1093
     18  NZ        12.8910   63.4060   64.3900 N.3    97  LYS97      -0.1314
     19  N         14.2820   60.7990   77.1450 N.3   112  ALA112     -0.1245
     20  CA        13.4320   61.7710   77.8610 C.3   112  ALA112      0.1562
     21  C         12.0280   61.2000   78.0850 C.2   112  ALA112      0.2260
     22  O         11.4740   60.6260   77.1520 O.2   112  ALA112     -0.2867
     23  CB        13.3340   63.0890   77.0990 C.3   112  ALA112      0.0290
     24  N          8.5900   69.9560   74.6380 N.3   142  ILE142     -0.1245
     25  CA         8.7850   70.0860   73.2120 C.3   142  ILE142      0.1561
     26  C          7.7860   69.1410   72.5490 C.2   142  ILE142      0.2260
     27  O          7.4790   68.0520   73.0780 O.2   142  ILE142     -0.2867
     28  CB        10.2530   69.8200   72.7870 C.3   142  ILE142      0.0252
     29  CG1       10.5120   70.4960   71.4360 C.3   142  ILE142      0.0019
     30  CG2       10.5200   68.3510   72.7010 C.3   142  ILE142      0.0019
     31  CD1       11.9670   70.8510   71.1530 C.3   142  ILE142      0.0001
     32  N          6.9860   67.2680   68.8100 N.3   144  LYS144     -0.1245
     33  CA         7.6170   66.9490   67.5240 C.3   144  LYS144      0.1561
     34  C          6.7950   65.9340   66.7530 C.2   144  LYS144      0.2260
     35  O          6.2140   65.0410   67.3410 O.2   144  LYS144     -0.2867
     36  CB         9.1000   66.5040   67.6420 C.3   144  LYS144      0.0271
     37  CG         9.3200   65.2530   68.4190 C.3   144  LYS144      0.0035
     38  CD        10.8470   64.9550   68.6910 C.3   144  LYS144      0.0206
     39  CE        11.5540   65.8040   69.7900 C.3   144  LYS144      0.1093
     40  NZ        12.9250   65.2280   70.1160 N.3   144  LYS144     -0.1314
     41  N          9.8030   63.3540   61.1160 N.3   148  GLU148     -0.1231
     42  CA        10.4040   64.4730   60.4060 C.3   148  GLU148      0.1699
     43  C         11.9010   64.5960   60.6760 C.2   148  GLU148      0.2593
     44  O         12.5420   63.7350   61.2940 O.2   148  GLU148     -0.2718
     45  CB         9.6580   65.7860   60.6860 C.3   148  GLU148      0.0402
     46  CG         8.4870   65.9680   59.7070 C.3   148  GLU148      0.1161
     47  CD         9.0380   66.1920   58.2800 C.2   148  GLU148      0.3649
     48  OE1       10.2390   66.5600   58.1430 O.co2 148  GLU148     -0.2457
     49  OE2        8.2720   65.9890   57.3120 O.co2 148  GLU148     -0.2457
     50  N         12.4430   65.7070   60.1790 N.am  149  GLY149     -0.1942
     51  CA        13.8380   66.0740   60.3940 C.3   149  GLY149      0.2014
     52  C         13.9760   67.5750   60.2880 C.2   149  GLY149      0.2640
     53  O         13.0000   68.2590   60.0280 O.2   149  GLY149     -0.2714
     54  N         15.1860   68.0720   60.5190 N.am  150  SER150     -0.1935
     55  CA        15.4550   69.5040   60.3410 C.3   150  SER150      0.2055
     56  C         14.6090   70.3920   61.2580 C.2   150  SER150      0.2644
     57  O         14.4150   71.5820   60.9370 O.2   150  SER150     -0.2714
     58  CB        15.2550   69.8920   58.8630 C.3   150  SER150      0.2130
     59  OG        16.2600   69.3030   58.0610 O.3   150  SER150     -0.2179
     60  N         14.1230   69.8430   62.3750 N.am  151  SER151     -0.1935
     61  CA        13.2670   70.5650   63.3430 C.3   151  SER151      0.2055
     62  C         11.9300   70.9710   62.7290 C.2   151  SER151      0.2642
     63  O         11.2380   71.8570   63.2850 O.2   151  SER151     -0.2714
     64  CB        14.0300   71.7710   63.9250 C.3   151  SER151      0.2130
     65  OG        15.1810   71.2400   64.5870 O.3   151  SER151     -0.2179
     66  N         11.5450   70.3310   61.6300 N.am  152  VAL152     -0.1977
     67  CA        10.2830   70.6570   60.9570 C.3   152  VAL152      0.1596
     68  C          9.1290   70.2480   61.8840 C.2   152  VAL152      0.2287
     69  O          9.1320   69.1240   62.4670 O.2   152  VAL152     -0.2864
     70  CB        10.1970   69.9010   59.6320 C.3   152  VAL152      0.0276
     71  CG1        8.7840   69.9160   59.0710 C.3   152  VAL152      0.0022
     72  CG2       11.1350   70.5440   58.5980 C.3   152  VAL152      0.0022
     73  N          8.1880   71.3630   64.7910 N.3   154  MET154     -0.1245
     74  CA         8.5050   71.3160   66.2220 C.3   154  MET154      0.1570
     75  C          8.2620   72.6400   66.9100 C.2   154  MET154      0.2261
     76  O          8.4060   73.7180   66.3210 O.2   154  MET154     -0.2867
     77  CB         9.9760   70.8850   66.4200 C.3   154  MET154      0.0387
     78  CG        10.1960   69.4400   66.0210 C.3   154  MET154      0.0595
     79  SD        11.8690   68.8400   66.4710 S.3   154  MET154     -0.1393
     80  CE        11.9740   69.3610   68.1750 C.3   154  MET154      0.0692
     81  N          7.5470   65.6450   74.6280 N.3   180  GLU180     -0.1231
     82  CA         8.6980   65.2290   75.4430 C.3   180  GLU180      0.1699
     83  C          9.0100   66.2550   76.4880 C.2   180  GLU180      0.2592
     84  O          8.9170   67.4510   76.2450 O.2   180  GLU180     -0.2718
     85  CB         9.9510   65.1050   74.5700 C.3   180  GLU180      0.0402
     86  CG        10.0320   64.0650   73.5500 C.3   180  GLU180      0.1161
     87  CD        11.5390   63.8550   73.1840 C.2   180  GLU180      0.3649
     88  OE1       12.3180   64.8360   73.0520 O.co2 180  GLU180     -0.2457
     89  OE2       11.9790   62.6870   73.1160 O.co2 180  GLU180     -0.2457
     90  N          9.4020   65.7940   77.6720 N.am  181  LYS181     -0.1966
     91  CA         9.9680   66.6530   78.7050 C.3   181  LYS181      0.1728
     92  C         11.0420   67.5460   78.0870 C.2   181  LYS181      0.2616
     93  O         11.9050   67.0840   77.3410 O.2   181  LYS181     -0.2715
     94  CB        10.5610   65.7950   79.8380 C.3   181  LYS181      0.0311
     95  CG        11.1250   66.5850   81.0460 C.3   181  LYS181      0.0038
     96  CD        12.1490   65.7510   81.8550 C.3   181  LYS181      0.0206
     97  CE        12.5740   66.5030   83.1130 C.3   181  LYS181      0.1093
     98  NZ        13.4890   67.6420   82.8280 N.3   181  LYS181     -0.1314
     99  N         10.9860   68.8300   78.4290 N.am  182  TRP182     -0.1960
    100  CA        12.0210   69.7550   78.0090 C.3   182  TRP182      0.1771
    101  C         13.3350   69.4610   78.7160 C.2   182  TRP182      0.2619
    102  O         13.3750   69.4400   79.9460 O.2   182  TRP182     -0.2715
    103  CB        11.5790   71.1870   78.3030 C.3   182  TRP182      0.0590
    104  CG        12.5660   72.1900   77.7740 C.ar  182  TRP182      0.0006
    105  CD1       13.5390   72.8660   78.4830 C.ar  182  TRP182      0.0946
    106  CD2       12.6290   72.6440   76.4420 C.ar  182  TRP182      0.0152
    107  NE1       14.2260   73.6850   77.6260 N.ar  182  TRP182     -0.2442
    108  CE2       13.6770   73.5860   76.3720 C.ar  182  TRP182      0.0810
    109  CE3       11.8920   72.3440   75.2860 C.ar  182  TRP182      0.0012
    110  CZ2       14.0120   74.2290   75.1750 C.ar  182  TRP182      0.0191
    111  CZ3       12.2140   72.9830   74.1010 C.ar  182  TRP182      0.0001
    112  CH2       13.2830   73.9170   74.0580 C.ar  182  TRP182      0.0015
    113  N         14.3980   69.2670   77.9430 N.am  183  LEU183     -0.1977
    114  CA        15.7340   68.9960   78.4960 C.3   183  LEU183      0.1596
    115  C         16.5310   70.2910   78.5220 C.2   183  LEU183      0.2287
    116  O         16.4770   71.1000   77.6060 O.2   183  LEU183     -0.2864
    117  CB        16.4590   67.9530   77.6340 C.3   183  LEU183      0.0297
    118  CG        15.7030   66.6220   77.4310 C.3   183  LEU183      0.0022
    119  CD1       16.4940   65.7620   76.5150 C.3   183  LEU183      0.0001
    120  CD2       15.4790   65.9870   78.7810 C.3   183  LEU183      0.0001
    121  N         23.4810   70.6430   74.3840 N.3   187  GLU187     -0.1245
    122  CA        23.1580   69.7460   73.2950 C.3   187  GLU187      0.1567
    123  C         24.4130   69.2690   72.5640 C.2   187  GLU187      0.2260
    124  O         25.3600   70.0510   72.3800 O.2   187  GLU187     -0.2867
    125  CB        22.2350   70.4800   72.3060 C.3   187  GLU187      0.0388
    126  CG        21.8820   69.6390   71.1000 C.3   187  GLU187      0.1160
    127  CD        20.7470   70.2190   70.2750 C.2   187  GLU187      0.3649
    128  OE1       20.2090   71.2900   70.6000 O.co2 187  GLU187     -0.2457
    129  OE2       20.4620   69.5340   69.2850 O.co2 187  GLU187     -0.2457
    130  N         15.7410   76.6780   70.7850 N.3   209  PHE209     -0.1227
    131  CA        16.2640   75.3640   70.4560 C.3   209  PHE209      0.1736
    132  C         16.9440   75.3980   69.1010 C.2   209  PHE209      0.2595
    133  O         17.0000   76.4450   68.4700 O.2   209  PHE209     -0.2718
    134  CB        15.1730   74.2580   70.5350 C.3   209  PHE209      0.0547
    135  CG        14.0450   74.3800   69.5220 C.ar  209  PHE209     -0.0202
    136  CD1       13.0110   75.2840   69.7030 C.ar  209  PHE209     -0.0042
    137  CD2       13.9850   73.5530   68.4090 C.ar  209  PHE209     -0.0042
    138  CE1       11.9520   75.3870   68.7780 C.ar  209  PHE209     -0.0003
    139  CE2       12.9230   73.6260   67.5080 C.ar  209  PHE209     -0.0003
    140  CZ        11.9140   74.5670   67.6700 C.ar  209  PHE209     -0.0000
    141  N         17.4770   74.2560   68.6770 N.am  210  TYR210     -0.1976
    142  CA        18.1930   74.1770   67.4010 C.3   210  TYR210      0.1639
    143  C         17.1390   73.9820   66.3080 C.2   210  TYR210      0.2290
    144  O         16.8950   72.8570   65.8370 O.2   210  TYR210     -0.2864
    145  CB        19.1950   73.0260   67.5090 C.3   210  TYR210      0.0560
    146  CG        20.2600   72.8950   66.4330 C.ar  210  TYR210     -0.0198
    147  CD1       20.8620   74.0000   65.8230 C.ar  210  TYR210     -0.0009
    148  CD2       20.7330   71.6290   66.1060 C.ar  210  TYR210     -0.0009
    149  CE1       21.8940   73.8140   64.8490 C.ar  210  TYR210      0.0417
    150  CE2       21.7210   71.4420   65.1530 C.ar  210  TYR210      0.0417
    151  CZ        22.2920   72.5230   64.5580 C.ar  210  TYR210      0.1957
    152  OH        23.2690   72.2340   63.6110 O.3   210  TYR210     -0.2866
    153  N         19.7010   75.8480   62.2830 N.3   215  LYS215     -0.1231
    154  CA        20.4280   74.7910   61.5900 C.3   215  LYS215      0.1693
    155  C         21.0260   75.2750   60.2630 C.2   215  LYS215      0.2592
    156  O         22.1770   74.9630   59.9390 O.2   215  LYS215     -0.2718
    157  CB        19.5320   73.5550   61.3650 C.3   215  LYS215      0.0285
    158  CG        19.3000   72.7370   62.6280 C.3   215  LYS215      0.0035
    159  CD        18.2540   71.6150   62.4560 C.3   215  LYS215      0.0206
    160  CE        18.3390   70.7230   63.7090 C.3   215  LYS215      0.1093
    161  NZ        17.3690   69.5930   63.6130 N.3   215  LYS215     -0.1314
    162  N         20.2390   76.0330   59.4960 N.am  216  TYR216     -0.1976
    163  CA        20.5850   76.2150   58.0670 C.3   216  TYR216      0.1639
    164  C         20.8110   77.6250   57.5740 C.2   216  TYR216      0.2290
    165  O         21.3570   77.8160   56.4730 O.2   216  TYR216     -0.2864
    166  CB        19.5160   75.5740   57.1710 C.3   216  TYR216      0.0560
    167  CG        19.3110   74.1240   57.4990 C.ar  216  TYR216     -0.0198
    168  CD1       20.3620   73.2200   57.3640 C.ar  216  TYR216     -0.0009
    169  CD2       18.0670   73.6650   57.9770 C.ar  216  TYR216     -0.0009
    170  CE1       20.1710   71.8610   57.6930 C.ar  216  TYR216      0.0417
    171  CE2       17.8710   72.3530   58.2890 C.ar  216  TYR216      0.0417
    172  CZ        18.9230   71.4710   58.1640 C.ar  216  TYR216      0.1957
    173  OH        18.6880   70.1510   58.4960 O.3   216  TYR216     -0.2866
    174  N         24.2970   59.9320   62.3400 N.3   255  ARG255     -0.1245
    175  CA        24.5650   60.9280   63.3690 C.3   255  ARG255      0.1563
    176  C         23.4980   60.8550   64.4380 C.2   255  ARG255      0.2260
    177  O         22.2960   60.8650   64.0990 O.2   255  ARG255     -0.2867
    178  CB        24.6010   62.3340   62.7590 C.3   255  ARG255      0.0307
    179  CG        25.4390   63.3490   63.5440 C.3   255  ARG255      0.0489
    180  CD        25.1720   64.8100   63.0380 C.3   255  ARG255      0.2205
    181  NE        23.8800   65.2320   63.5370 N.pl3 255  ARG255     -0.0865
    182  CZ        22.8030   65.4240   62.7920 C.cat 255  ARG255      0.5346
    183  NH1       22.8580   65.3800   61.4580 N.pl3 255  ARG255      0.1354
    184  NH2       21.6590   65.6860   63.3790 N.pl3 255  ARG255      0.1354
    185  N         21.7650   62.4240   67.9350 N.3   257  ASP257     -0.1239
    186  CA        21.6080   63.6800   68.6800 C.3   257  ASP257      0.1674
    187  C         21.3120   63.4010   70.1460 C.2   257  ASP257      0.2266
    188  O         20.4830   62.4860   70.4180 O.2   257  ASP257     -0.2867
    189  CB        20.4730   64.4940   68.0650 C.3   257  ASP257      0.1410
    190  CG        20.7420   64.9000   66.6130 C.2   257  ASP257      0.3668
    191  OD1       21.9140   64.9380   66.1670 O.co2 257  ASP257     -0.2456
    192  OD2       19.7600   65.2180   65.9160 O.co2 257  ASP257     -0.2456
    193  N         21.2240   65.0940   74.4060 N.3   259  MET259     -0.1245
    194  CA        21.2580   66.2790   75.2470 C.3   259  MET259      0.1570
    195  C         21.4720   65.9380   76.7180 C.2   259  MET259      0.2261
    196  O         20.9780   64.9080   77.2080 O.2   259  MET259     -0.2867
    197  CB        19.9240   67.0560   75.1380 C.3   259  MET259      0.0387
    198  CG        19.6770   67.7230   73.8030 C.3   259  MET259      0.0595
    199  SD        18.1360   68.6910   73.7860 S.3   259  MET259     -0.1393
    200  CE        18.5200   70.0910   74.8130 C.3   259  MET259      0.0692
    201  N         18.0790   61.6920   71.7780 N.3   269  LEU269     -0.1231
    202  CA        16.9410   62.3070   71.0610 C.3   269  LEU269      0.1693
    203  C         16.4890   61.4870   69.8700 C.2   269  LEU269      0.2591
    204  O         15.3050   61.1430   69.7250 O.2   269  LEU269     -0.2718
    205  CB        17.2910   63.7390   70.5800 C.3   269  LEU269      0.0284
    206  CG        17.6200   64.8240   71.6100 C.3   269  LEU269      0.0019
    207  CD1       17.6940   66.1520   70.8170 C.3   269  LEU269      0.0001
    208  CD2       16.6470   64.9090   72.7410 C.3   269  LEU269      0.0001
    209  N         17.4410   61.1620   68.9960 N.am  270  GLU270     -0.1979
    210  CA        17.1280   60.4790   67.7290 C.3   270  GLU270      0.1602
    211  C         18.3940   60.1010   67.0060 C.2   270  GLU270      0.2287
    212  O         19.4700   60.6540   67.2980 O.2   270  GLU270     -0.2864
    213  CB        16.2960   61.3830   66.7890 C.3   270  GLU270      0.0415
    214  CG        17.0250   62.6910   66.3940 C.3   270  GLU270      0.1163
    215  CD        16.7620   63.1280   64.9870 C.2   270  GLU270      0.3649
    216  OE1       16.0220   62.4960   64.1960 O.co2 270  GLU270     -0.2457
    217  OE2       17.3810   64.2090   64.6490 O.co2 270  GLU270     -0.2457
    218  N         19.8820   59.7580   62.9670 N.3   272  ASN272     -0.1240
    219  CA        19.6920   60.1420   61.5640 C.3   272  ASN272      0.1653
    220  C         20.5700   59.3360   60.6480 C.2   272  ASN272      0.2266
    221  O         21.7810   59.3270   60.8190 O.2   272  ASN272     -0.2867
    222  CB        20.0480   61.6340   61.4020 C.3   272  ASN272      0.1155
    223  CG        19.2000   62.5210   62.2830 C.2   272  ASN272      0.2627
    224  OD1       18.0420   62.7730   61.9940 O.2   272  ASN272     -0.2716
    225  ND2       19.7940   62.9960   63.4010 N.am  272  ASN272     -0.0877
@<TRIPOS>BOND
     1     4     3    2
     2     3     2    1
     3     1     2    1
     4     2     5    1
     5     5     6    1
     6     6     7    1
     7   165   164    2
     8     7     8   ar
     9     7     9   ar
    10   166   167    1
    11   166   163    1
    12    49    47   ar
    13   168   167   ar
    14   168   170   ar
    15   167   169   ar
    16   164   163    1
    17   170   172   ar
    18   169   171   ar
    19    59    58    1
    20   163   162    1
    21    48    47   ar
    22   172   171   ar
    23   172   173    1
    24    47    46    1
    25    72    70    1
    26    58    55    1
    27    71    70    1
    28   162   155   am
    29    70    67    1
    30    46    45    1
    31   156   155    2
    32    53    52    2
    33    50    51    1
    34    50    43   am
    35   155   154    1
    36    52    51    1
    37    52    54   am
    38    55    54    1
    39    55    56    1
    40    42    43    1
    41    42    45    1
    42    42    41    1
    43   220   221    2
    44   220   219    1
    45    43    44    2
    46    57    56    2
    47    67    66    1
    48    67    68    1
    49    56    60   am
    50   157   154    1
    51   157   158    1
    52   222   219    1
    53   222   223    1
    54   183   182    1
    55   219   218    1
    56   154   153    1
    57    66    62   am
    58    68    69    2
    59   224   223    2
    60   223   225   am
    61   174   175    1
    62    60    61    1
    63   159   158    1
    64   159   160    1
    65    62    63    2
    66    62    61    1
    67   178   175    1
    68   178   179    1
    69   182   184    1
    70   182   181    2
    71   180   181    1
    72   180   179    1
    73    61    64    1
    74   175   176    1
    75   152   151    1
    76   161   160    1
    77    64    65    1
    78   177   176    2
    79   216   215   ar
    80    18    17    1
    81   151   149   ar
    82   151   150   ar
    83   217   215   ar
    84    73    74    1
    85   149   147   ar
    86   215   214    1
    87   150   148   ar
    88    10    11    1
    89   147   146   ar
    90   144   143    2
    91    17    16    1
    92   192   190   ar
    93    78    77    1
    94    78    79    1
    95    15    16    1
    96    15    14    1
    97   148   146   ar
    98   191   190   ar
    99    74    77    1
   100    74    75    1
   101   143   142    1
   102    76    75    2
   103   214   213    1
   104   146   145    1
   105    79    80    1
   106   190   189    1
   107    11    14    1
   108    11    12    1
   109    34    35    2
   110    34    33    1
   111   213   210    1
   112   211   212    2
   113   211   210    1
   114   142   145    1
   115   142   141    1
   116   139   140   ar
   117   139   137   ar
   118    33    36    1
   119    33    32    1
   120    36    37    1
   121   140   138   ar
   122    12    13    2
   123   210   209    1
   124   185   186    1
   125   189   186    1
   126   137   135   ar
   127    37    38    1
   128   133   132    2
   129   141   132   am
   130   186   187    1
   131    38    39    1
   132   138   136   ar
   133   209   203   am
   134   132   131    1
   135   129   127   ar
   136   135   136   ar
   137   135   134    1
   138   204   203    2
   139    39    40    1
   140   203   202    1
   141   187   188    2
   142   127   128   ar
   143   127   126    1
   144   131   134    1
   145   131   130    1
   146   205   202    1
   147   205   206    1
   148   207   206    1
   149   202   201    1
   150   126   125    1
   151    31    29    1
   152    29    28    1
   153   206   208    1
   154   125   122    1
   155   124   123    2
   156    26    27    2
   157    26    25    1
   158   123   122    1
   159    30    28    1
   160    28    25    1
   161    88    87   ar
   162    89    87   ar
   163    87    86    1
   164    25    24    1
   165   122   121    1
   166    86    85    1
   167   199   198    1
   168   199   200    1
   169   198   197    1
   170   112   111   ar
   171   112   110   ar
   172   111   109   ar
   173   193   194    1
   174    85    82    1
   175    81    82    1
   176   197   194    1
   177   110   108   ar
   178   194   195    1
   179   109   106   ar
   180    82    83    1
   181    84    83    2
   182   108   106   ar
   183   108   107   ar
   184   106   104   ar
   185    83    90   am
   186   119   118    1
   187   195   196    2
   188    23    20    1
   189    19    20    1
   190    22    21    2
   191    93    92    2
   192   118   117    1
   193   118   120    1
   194   116   115    2
   195   107   105   ar
   196   117   114    1
   197    90    91    1
   198   104   103    1
   199   104   105   ar
   200    20    21    1
   201   113   114    1
   202   113   101   am
   203   100   103    1
   204   100    99    1
   205   100   101    1
   206    92    99   am
   207    92    91    1
   208   114   115    1
   209    91    94    1
   210   101   102    2
   211    94    95    1
   212    95    96    1
   213    96    97    1
   214    98    97    1
