@<TRIPOS>MOLECULE
tmp/4c5iA00.pdb
 143 139 0 0 0
SMALL
GASTEIGER

@<TRIPOS>ATOM
      1  N          2.8030   -2.5390   60.7490 N.3    45  GLU45      -0.1245
      2  CA         1.8390   -2.4860   61.8380 C.3    45  GLU45       0.1567
      3  C          0.5080   -3.0740   61.4000 C.2    45  GLU45       0.2260
      4  O         -0.0940   -2.6270   60.4250 O.2    45  GLU45      -0.2867
      5  CB         1.6530   -1.0580   62.3420 C.3    45  GLU45       0.0388
      6  CG         2.6700   -0.6480   63.3860 C.3    45  GLU45       0.1160
      7  CD         2.4280    0.7490   63.9100 C.2    45  GLU45       0.3649
      8  OE1        1.8380    1.5640   63.1690 O.co2  45  GLU45      -0.2457
      9  OE2        2.8270    1.0340   65.0590 O.co2  45  GLU45      -0.2457
     10  N         -0.0590   -4.0120   66.5370 N.3    59  TRP59      -0.1241
     11  CA         1.2470   -4.4520   67.0190 C.3    59  TRP59       0.1605
     12  C          2.2110   -4.5610   65.8390 C.2    59  TRP59       0.2264
     13  O          1.7920   -4.5400   64.6830 O.2    59  TRP59      -0.2867
     14  CB         1.1370   -5.7940   67.7560 C.3    59  TRP59       0.0550
     15  CG         2.4100   -6.2240   68.4340 C.ar   59  TRP59       0.0003
     16  CD1        3.1880   -7.2990   68.1150 C.ar   59  TRP59       0.0946
     17  CD2        3.0570   -5.5750   69.5370 C.ar   59  TRP59       0.0152
     18  NE1        4.2760   -7.3630   68.9530 N.ar   59  TRP59      -0.2442
     19  CE2        4.2180   -6.3170   69.8360 C.ar   59  TRP59       0.0810
     20  CE3        2.7640   -4.4430   70.3040 C.ar   59  TRP59       0.0012
     21  CZ2        5.0870   -5.9620   70.8670 C.ar   59  TRP59       0.0191
     22  CZ3        3.6280   -4.0910   71.3260 C.ar   59  TRP59       0.0001
     23  CH2        4.7750   -4.8500   71.5990 C.ar   59  TRP59       0.0015
     24  N          5.0640    1.5490   60.3020 N.3    98  VAL98      -0.1231
     25  CA         5.2360    1.4290   61.7460 C.3    98  VAL98       0.1692
     26  C          4.9590    2.7330   62.5080 C.2    98  VAL98       0.2592
     27  O          4.5180    2.7130   63.6570 O.2    98  VAL98      -0.2718
     28  CB         6.6470    0.8880   62.0630 C.3    98  VAL98       0.0266
     29  CG1        7.6850    1.7160   61.3380 C.3    98  VAL98       0.0020
     30  CG2        6.9060    0.8420   63.5660 C.3    98  VAL98       0.0020
     31  N          5.1960    3.8700   61.8650 N.am   99  GLY99      -0.1957
     32  CA         4.9470    5.1470   62.5060 C.3    99  GLY99       0.1869
     33  C          3.4750    5.4880   62.6020 C.2    99  GLY99       0.2309
     34  O          3.0820    6.3630   63.3670 O.2    99  GLY99      -0.2863
     35  N          1.1530    5.4050   66.2970 N.3   102  ALA102     -0.1231
     36  CA         1.4100    6.3690   67.3620 C.3   102  ALA102      0.1694
     37  C          1.3650    7.8120   66.8780 C.2   102  ALA102      0.2591
     38  O          0.8580    8.6900   67.5780 O.2   102  ALA102     -0.2718
     39  CB         2.7310    6.0830   68.0200 C.3   102  ALA102      0.0304
     40  N          1.9010    8.0560   65.6860 N.am  103  ALA103     -0.1980
     41  CA         1.8630    9.3900   65.0970 C.3   103  ALA103      0.1597
     42  C          0.4190    9.8150   64.8460 C.2   103  ALA103      0.2287
     43  O          0.1320   11.0000   64.6770 O.2   103  ALA103     -0.2864
     44  CB         2.6730    9.4360   63.8080 C.3   103  ALA103      0.0319
     45  N         -1.8370    8.3790   67.0620 N.3   105  GLY105     -0.1210
     46  CA        -2.2220    8.4090   68.4640 C.3   105  GLY105      0.1956
     47  C         -2.9140    7.1860   69.0440 C.2   105  GLY105      0.2612
     48  O         -3.6560    7.3040   70.0190 O.2   105  GLY105     -0.2717
     49  N         -2.6760    6.0140   68.4630 N.am  106  LYS106     -0.1966
     50  CA        -3.2390    4.7770   69.0060 C.3   106  LYS106      0.1713
     51  C         -2.1530    3.8890   69.6150 C.2   106  LYS106      0.2458
     52  O         -1.0520    3.7900   69.0750 O.2   106  LYS106     -0.2730
     53  CB        -4.0370    4.0200   67.9390 C.3   106  LYS106      0.0311
     54  CG        -5.3310    4.7140   67.5400 C.3   106  LYS106      0.0038
     55  CD        -6.1420    3.8800   66.5620 C.3   106  LYS106      0.0206
     56  CE        -7.4440    4.5790   66.1930 C.3   106  LYS106      0.1093
     57  NZ        -8.2500    3.7870   65.2220 N.3   106  LYS106     -0.1314
     58  N         -2.4610    3.2480   70.7540 N.am  107  PRO107     -0.2716
     59  CA        -1.4620    2.4720   71.4970 C.3   107  PRO107      0.1536
     60  C         -1.2020    1.0880   70.9060 C.2   107  PRO107      0.2598
     61  O         -2.1370    0.3810   70.5300 O.2   107  PRO107     -0.2715
     62  CB        -2.0970    2.3360   72.8820 C.3   107  PRO107      0.0310
     63  CG        -3.5590    2.3330   72.6070 C.3   107  PRO107      0.0237
     64  CD        -3.7640    3.2710   71.4440 C.3   107  PRO107      0.0939
     65  N          0.0710    0.7140   70.8280 N.am  108  LEU108     -0.1978
     66  CA         0.4520   -0.6310   70.4190 C.3   108  LEU108      0.1596
     67  C          0.3030   -1.5890   71.5920 C.2   108  LEU108      0.2287
     68  O          0.9570   -1.4280   72.6220 O.2   108  LEU108     -0.2864
     69  CB         1.8940   -0.6520   69.9100 C.3   108  LEU108      0.0297
     70  CG         2.1560    0.0410   68.5730 C.3   108  LEU108      0.0022
     71  CD1        3.6190   -0.0840   68.1830 C.3   108  LEU108      0.0001
     72  CD2        1.2590   -0.5430   67.4940 C.3   108  LEU108      0.0001
     73  N          0.7460   -5.3890   72.9810 N.3   110  PRO110     -0.2116
     74  CA         1.4030   -6.6850   72.7790 C.3   110  PRO110      0.1372
     75  C          0.3970   -7.8290   72.7520 C.2   110  PRO110      0.2244
     76  O         -0.6070   -7.7640   73.4600 O.2   110  PRO110     -0.2868
     77  CB         2.2980   -6.8190   74.0150 C.3   110  PRO110      0.0268
     78  CG         2.5300   -5.4210   74.4710 C.3   110  PRO110      0.0207
     79  CD         1.2590   -4.6870   74.1690 C.3   110  PRO110      0.0892
     80  N          8.7170   -3.0220   77.5710 N.3   121  TRP121     -0.1227
     81  CA         8.3390   -2.9870   76.1610 C.3   121  TRP121      0.1737
     82  C          8.9210   -1.7990   75.4040 C.2   121  TRP121      0.2595
     83  O          9.1800   -1.8920   74.2050 O.2   121  TRP121     -0.2718
     84  CB         6.8180   -3.0100   76.0100 C.3   121  TRP121      0.0564
     85  CG         6.2140   -4.3290   76.3680 C.ar  121  TRP121      0.0003
     86  CD1        5.4740   -4.6190   77.4750 C.ar  121  TRP121      0.0946
     87  CD2        6.3080   -5.5450   75.6170 C.ar  121  TRP121      0.0152
     88  NE1        5.0960   -5.9400   77.4590 N.ar  121  TRP121     -0.2442
     89  CE2        5.5960   -6.5300   76.3270 C.ar  121  TRP121      0.0810
     90  CE3        6.9210   -5.8940   74.4100 C.ar  121  TRP121      0.0012
     91  CZ2        5.4820   -7.8420   75.8730 C.ar  121  TRP121      0.0191
     92  CZ3        6.8060   -7.1970   73.9600 C.ar  121  TRP121      0.0001
     93  CH2        6.0930   -8.1540   74.6890 C.ar  121  TRP121      0.0015
     94  N          9.1120   -0.6820   76.1000 N.am  122  LYS122     -0.1980
     95  CA         9.7440    0.4840   75.4980 C.3   122  LYS122      0.1596
     96  C         11.1620    0.1370   75.0710 C.2   122  LYS122      0.2287
     97  O         11.5670    0.4210   73.9450 O.2   122  LYS122     -0.2864
     98  CB         9.7590    1.6600   76.4750 C.3   122  LYS122      0.0298
     99  CG        10.4650    2.8990   75.9430 C.3   122  LYS122      0.0038
    100  CD        10.3790    4.0560   76.9270 C.3   122  LYS122      0.0206
    101  CE        11.1590    5.2610   76.4280 C.3   122  LYS122      0.1093
    102  NZ        11.0160    6.4270   77.3420 N.3   122  LYS122     -0.1314
    103  N         11.0340   -2.6270   72.1060 N.3   125  LEU125     -0.1245
    104  CA        10.7640   -2.0950   70.7750 C.3   125  LEU125      0.1561
    105  C         11.8890   -1.2000   70.2570 C.2   125  LEU125      0.2260
    106  O         12.1460   -1.1570   69.0570 O.2   125  LEU125     -0.2867
    107  CB         9.4300   -1.3470   70.7590 C.3   125  LEU125      0.0270
    108  CG         8.1950   -2.2240   70.9800 C.3   125  LEU125      0.0019
    109  CD1        6.9270   -1.3910   70.9900 C.3   125  LEU125      0.0001
    110  CD2        8.1140   -3.3110   69.9180 C.3   125  LEU125      0.0001
    111  N         13.3340   -2.3400   66.7860 N.3   129  LEU129     -0.1231
    112  CA        12.9030   -1.5480   65.6400 C.3   129  LEU129      0.1693
    113  C         13.9480   -0.5640   65.1210 C.2   129  LEU129      0.2593
    114  O         13.8460   -0.1090   63.9870 O.2   129  LEU129     -0.2718
    115  CB        11.6020   -0.8060   65.9570 C.3   129  LEU129      0.0284
    116  CG        10.3670   -1.6660   66.2130 C.3   129  LEU129      0.0019
    117  CD1        9.1950   -0.8130   66.6830 C.3   129  LEU129      0.0001
    118  CD2       10.0030   -2.4310   64.9560 C.3   129  LEU129      0.0001
    119  N         14.9450   -0.2320   65.9360 N.am  130  THR130     -0.1939
    120  CA        15.9430    0.7520   65.5160 C.3   130  THR130      0.2028
    121  C         16.6830    0.3130   64.2470 C.2   130  THR130      0.2642
    122  O         17.2940   -0.7550   64.2010 O.2   130  THR130     -0.2714
    123  CB        16.9390    1.1220   66.6540 C.3   130  THR130      0.1808
    124  OG1       17.8430    2.1360   66.1960 O.3   130  THR130     -0.2208
    125  CG2       17.7340   -0.0940   67.1250 C.3   130  THR130      0.0379
    126  N         16.5870    1.1360   63.2070 N.am  131  GLY131     -0.1954
    127  CA        17.2280    0.8480   61.9370 C.3   131  GLY131      0.1869
    128  C         16.5840   -0.2880   61.1620 C.2   131  GLY131      0.2309
    129  O         17.1930   -0.8450   60.2500 O.2   131  GLY131     -0.2863
    130  N         10.9530   -0.8060   56.9070 N.3   134  THR134     -0.1218
    131  CA         9.4940   -0.7980   56.9310 C.3   134  THR134      0.1862
    132  C          8.9310   -0.3650   55.5770 C.2   134  THR134      0.2287
    133  O          9.6320   -0.3960   54.5650 O.2   134  THR134     -0.2866
    134  CB         8.9350    0.0950   58.0630 C.3   134  THR134      0.1770
    135  OG1        7.5030    0.0370   58.0610 O.3   134  THR134     -0.2211
    136  CG2        9.3860    1.5390   57.8900 C.3   134  THR134      0.0375
    137  N          7.5220    5.6650   52.2180 N.3   137  PRO137     -0.2116
    138  CA         6.6330    6.8000   52.4840 C.3   137  PRO137      0.1372
    139  C          5.4920    6.8520   51.4710 C.2   137  PRO137      0.2244
    140  O          5.6850    6.4550   50.3200 O.2   137  PRO137     -0.2868
    141  CB         7.5560    8.0130   52.3250 C.3   137  PRO137      0.0268
    142  CG         8.6690    7.5340   51.4580 C.3   137  PRO137      0.0207
    143  CD         8.8770    6.1030   51.8440 C.3   137  PRO137      0.0892
@<TRIPOS>BOND
     1   140   139    2
     2   142   143    1
     3   142   141    1
     4   139   138    1
     5   143   137    1
     6   137   138    1
     7   141   138    1
     8   133   132    2
     9   132   131    1
    10   130   131    1
    11   131   134    1
    12   136   134    1
    13   135   134    1
    14   129   128    2
    15    24    25    1
    16     4     3    2
    17     1     2    1
    18   128   127    1
    19    29    28    1
    20     3     2    1
    21    25    28    1
    22    25    26    1
    23     2     5    1
    24    31    32    1
    25    31    26   am
    26   127   126    1
    27    28    30    1
    28     5     6    1
    29    32    33    1
    30    26    27    2
    31    33    34    2
    32     8     7   ar
    33   126   121   am
    34     6     7    1
    35    44    41    1
    36     7     9   ar
    37   114   113    2
    38   122   121    2
    39   121   120    1
    40    43    42    2
    41    13    12    2
    42    42    41    1
    43   118   116    1
    44    41    40    1
    45   113   112    1
    46   113   119   am
    47    57    56    1
    48   120   119    1
    49   120   123    1
    50   112   115    1
    51   112   111    1
    52    40    37   am
    53    12    11    1
    54   115   116    1
    55    56    55    1
    56   124   123    1
    57   116   117    1
    58    35    36    1
    59    10    11    1
    60    55    54    1
    61   123   125    1
    62    37    36    1
    63    37    38    2
    64    11    14    1
    65    45    46    1
    66    36    39    1
    67    72    70    1
    68    54    53    1
    69    14    15    1
    70    53    50    1
    71    16    15   ar
    72    16    18   ar
    73    71    70    1
    74    15    17   ar
    75    49    50    1
    76    49    47   am
    77    46    47    1
    78    70    69    1
    79    18    19   ar
    80    50    51    1
    81    47    48    2
    82   106   105    2
    83    52    51    2
    84    17    19   ar
    85    17    20   ar
    86    51    58   am
    87    19    21   ar
    88    69    66    1
    89   110   108    1
    90   105   104    1
    91    20    22   ar
    92    66    65    1
    93    66    67    1
    94    61    60    2
    95    58    64    1
    96    58    59    1
    97   107   104    1
    98   107   108    1
    99   104   103    1
   100    65    60   am
   101    21    23   ar
   102    60    59    1
   103   108   109    1
   104    22    23   ar
   105    64    63    1
   106    59    62    1
   107    67    68    2
   108    63    62    1
   109    75    74    1
   110    75    76    2
   111    74    73    1
   112    74    77    1
   113    73    79    1
   114    97    96    2
   115    92    90   ar
   116    92    93   ar
   117    77    78    1
   118    79    78    1
   119    83    82    2
   120    90    87   ar
   121    93    91   ar
   122    96    95    1
   123    82    94   am
   124    82    81    1
   125    95    94    1
   126    95    98    1
   127    87    89   ar
   128    87    85   ar
   129    91    89   ar
   130    99    98    1
   131    99   100    1
   132    84    81    1
   133    84    85    1
   134    81    80    1
   135    89    88   ar
   136    85    86   ar
   137   101   100    1
   138   101   102    1
   139    88    86   ar
