@<TRIPOS>MOLECULE
tmp/4c5kC00.pdb
 185 173 0 0 0
SMALL
GASTEIGER

@<TRIPOS>ATOM
      1  N          9.2330   13.7960  -38.0890 N.3   105  ASP105     -0.1239
      2  CA        10.6030   14.2570  -38.0840 C.3   105  ASP105      0.1674
      3  C         10.9040   14.7190  -39.5090 C.2   105  ASP105      0.2266
      4  O         11.0670   13.8990  -40.4040 O.2   105  ASP105     -0.2867
      5  CB        11.5720   13.1780  -37.5930 C.3   105  ASP105      0.1410
      6  CG        12.9530   13.7180  -37.3400 C.2   105  ASP105      0.3668
      7  OD1       13.1170   14.9400  -37.1600 O.co2 105  ASP105     -0.2456
      8  OD2       13.8980   12.9190  -37.2680 O.co2 105  ASP105     -0.2456
      9  N         12.7880   15.5040  -41.8850 N.3   107  VAL107     -0.1245
     10  CA        14.1810   15.3840  -42.3250 C.3   107  VAL107      0.1561
     11  C         14.3870   16.0000  -43.7210 C.2   107  VAL107      0.2260
     12  O         13.6890   15.6470  -44.6880 O.2   107  VAL107     -0.2867
     13  CB        14.6550   13.9020  -42.2820 C.3   107  VAL107      0.0252
     14  CG1       16.1100   13.7330  -42.7510 C.3   107  VAL107      0.0019
     15  CG2       14.5200   13.3550  -40.8790 C.3   107  VAL107      0.0019
     16  N         15.0150   20.2400  -36.9700 N.3   133  ASN133     -0.1240
     17  CA        16.2270   20.8740  -36.5270 C.3   133  ASN133      0.1653
     18  C         16.1560   22.3400  -36.9820 C.2   133  ASN133      0.2266
     19  O         15.1220   22.8030  -37.5360 O.2   133  ASN133     -0.2867
     20  CB        17.4740   20.1420  -36.9790 C.3   133  ASN133      0.1155
     21  CG        17.6580   20.1530  -38.4860 C.2   133  ASN133      0.2627
     22  OD1       17.1310   21.0050  -39.1640 O.2   133  ASN133     -0.2716
     23  ND2       18.3400   19.1480  -39.0120 N.am  133  ASN133     -0.0877
     24  N         15.6640   22.9540  -40.7600 N.3   136  GLU136     -0.1245
     25  CA        14.3400   22.4920  -41.1710 C.3   136  GLU136      0.1567
     26  C         13.2260   23.4260  -40.7020 C.2   136  GLU136      0.2260
     27  O         12.2610   23.6460  -41.3900 O.2   136  GLU136     -0.2867
     28  CB        14.1010   21.0790  -40.6400 C.3   136  GLU136      0.0388
     29  CG        14.9770   20.0380  -41.3180 C.3   136  GLU136      0.1160
     30  CD        15.2820   18.7660  -40.5010 C.2   136  GLU136      0.3649
     31  OE1       14.7820   18.6030  -39.3610 O.co2 136  GLU136     -0.2457
     32  OE2       16.0940   17.9460  -41.0080 O.co2 136  GLU136     -0.2457
     33  N         14.9160   21.8510  -32.5780 N.3   170  LYS170     -0.1231
     34  CA        16.2200   21.5270  -32.0080 C.3   170  LYS170      0.1693
     35  C         17.2280   22.5840  -32.4060 C.2   170  LYS170      0.2593
     36  O         17.4430   22.8440  -33.5880 O.2   170  LYS170     -0.2718
     37  CB        16.6820   20.1610  -32.4130 C.3   170  LYS170      0.0285
     38  CG        15.7200   19.0980  -31.9800 C.3   170  LYS170      0.0035
     39  CD        15.9090   17.8490  -32.7720 C.3   170  LYS170      0.0206
     40  CE        15.3360   18.0480  -34.1340 C.3   170  LYS170      0.1093
     41  NZ        15.6990   16.9400  -35.0440 N.3   170  LYS170     -0.1314
     42  N         17.8230   23.2250  -31.4100 N.am  171  GLY171     -0.1942
     43  CA        18.8710   24.1770  -31.6750 C.3   171  GLY171      0.2014
     44  C         20.1890   23.4770  -31.8580 C.2   171  GLY171      0.2639
     45  O         20.7610   23.5040  -32.9280 O.2   171  GLY171     -0.2714
     46  N         20.6520   22.8660  -30.7650 N.am  172  GLY172     -0.1939
     47  CA        21.8650   22.0800  -30.7580 C.3   172  GLY172      0.2014
     48  C         23.0510   22.8610  -31.2690 C.2   172  GLY172      0.2638
     49  O         23.1620   24.0750  -31.0530 O.2   172  GLY172     -0.2714
     50  N         23.9300   22.1620  -31.9760 N.am  173  LYS173     -0.1977
     51  CA        25.2210   22.7130  -32.4420 C.3   173  LYS173      0.1596
     52  C         25.0700   23.8740  -33.4320 C.2   173  LYS173      0.2287
     53  O         25.9340   24.7330  -33.5360 O.2   173  LYS173     -0.2864
     54  CB        26.0830   21.6080  -33.1100 C.3   173  LYS173      0.0298
     55  CG        26.3490   20.3680  -32.2360 C.3   173  LYS173      0.0038
     56  CD        27.3260   19.3600  -32.8600 C.3   173  LYS173      0.0206
     57  CE        26.7090   18.3470  -33.8500 C.3   173  LYS173      0.1093
     58  NZ        25.5830   17.5030  -33.3310 N.3   173  LYS173     -0.1314
     59  N         23.1570   22.9200  -25.1320 N.3   180  SER180     -0.1217
     60  CA        22.3590   22.4380  -26.1870 C.3   180  SER180      0.1889
     61  C         20.9080   22.8340  -25.8720 C.2   180  SER180      0.2288
     62  O         20.2550   22.2780  -24.9740 O.2   180  SER180     -0.2866
     63  CB        22.4920   20.9460  -26.2970 C.3   180  SER180      0.2089
     64  OG        21.6840   20.5020  -27.3540 O.3   180  SER180     -0.2183
     65  N         16.9110   23.4780  -27.0520 N.3   182  ASP182     -0.1239
     66  CA        15.8000   23.2180  -27.9300 C.3   182  ASP182      0.1674
     67  C         14.6370   24.0880  -27.4640 C.2   182  ASP182      0.2266
     68  O         14.5910   24.4820  -26.2860 O.2   182  ASP182     -0.2867
     69  CB        15.3840   21.7410  -27.8850 C.3   182  ASP182      0.1410
     70  CG        16.5490   20.7660  -28.1500 C.2   182  ASP182      0.3668
     71  OD1       17.3680   21.0760  -29.0170 O.co2 182  ASP182     -0.2456
     72  OD2       16.6370   19.6670  -27.5090 O.co2 182  ASP182     -0.2456
     73  N         20.4230   21.0030  -21.9640 N.3   195  THR195     -0.1203
     74  CA        21.4290   20.2690  -21.2880 C.3   195  THR195      0.1994
     75  C         22.7740   20.9040  -21.6680 C.2   195  THR195      0.2618
     76  O         22.8750   21.8110  -22.4990 O.2   195  THR195     -0.2717
     77  CB        21.5240   18.7660  -21.6540 C.3   195  THR195      0.1784
     78  OG1       21.9580   18.6560  -23.0020 O.3   195  THR195     -0.2211
     79  CG2       20.2140   18.0390  -21.4200 C.3   195  THR195      0.0376
     80  N         23.8220   20.4530  -21.0250 N.am  196  ASP196     -0.1959
     81  CA        25.1610   20.8020  -21.4700 C.3   196  ASP196      0.1840
     82  C         25.3450   20.3380  -22.8920 C.2   196  ASP196      0.2622
     83  O         24.6870   19.3840  -23.3590 O.2   196  ASP196     -0.2715
     84  CB        26.2320   20.1180  -20.6270 C.3   196  ASP196      0.1450
     85  CG        26.5740   20.8810  -19.4120 C.2   196  ASP196      0.3671
     86  OD1       26.0720   22.0120  -19.2420 O.co2 196  ASP196     -0.2456
     87  OD2       27.3630   20.4030  -18.7040 O.co2 196  ASP196     -0.2456
     88  N         26.2470   21.0180  -23.5810 N.am  197  MET197     -0.1963
     89  CA        26.7460   20.5520  -24.8510 C.3   197  MET197      0.1736
     90  C         27.8060   19.4980  -24.5620 C.2   197  MET197      0.2616
     91  O         28.7710   19.7380  -23.9020 O.2   197  MET197     -0.2715
     92  CB        27.3620   21.7010  -25.6420 C.3   197  MET197      0.0427
     93  CG        27.8090   21.3010  -27.0410 C.3   197  MET197      0.0599
     94  SD        26.4480   20.7940  -28.1290 S.3   197  MET197     -0.1393
     95  CE        25.5140   22.2830  -28.1080 C.3   197  MET197      0.0692
     96  N         27.5810   18.3170  -25.0740 N.am  198  PHE198     -0.1960
     97  CA        28.4880   17.1860  -24.8800 C.3   198  PHE198      0.1771
     98  C         29.3880   17.1180  -26.0980 C.2   198  PHE198      0.2619
     99  O         29.2750   17.9250  -27.0430 O.2   198  PHE198     -0.2715
    100  CB        27.6970   15.8830  -24.7020 C.3   198  PHE198      0.0574
    101  CG        26.7840   15.9160  -23.5060 C.ar  198  PHE198     -0.0200
    102  CD1       27.3210   16.0990  -22.2260 C.ar  198  PHE198     -0.0042
    103  CD2       25.4080   15.8640  -23.6420 C.ar  198  PHE198     -0.0042
    104  CE1       26.5030   16.1650  -21.1180 C.ar  198  PHE198     -0.0003
    105  CE2       24.5800   15.9240  -22.5230 C.ar  198  PHE198     -0.0003
    106  CZ        25.1320   16.0780  -21.2730 C.ar  198  PHE198     -0.0000
    107  N         30.2820   16.1460  -26.0970 N.am  199  GLN199     -0.1963
    108  CA        31.1530   15.9710  -27.2560 C.3   199  GLN199      0.1733
    109  C         30.3640   15.9760  -28.5830 C.2   199  GLN199      0.2616
    110  O         29.2570   15.4720  -28.6840 O.2   199  GLN199     -0.2715
    111  CB        31.9570   14.6930  -27.1080 C.3   199  GLN199      0.0408
    112  CG        31.1230   13.4320  -27.0510 C.3   199  GLN199      0.0908
    113  CD        30.7520   12.8810  -28.4190 C.2   199  GLN199      0.2608
    114  OE1       31.4590   13.0830  -29.4170 O.2   199  GLN199     -0.2717
    115  NE2       29.6340   12.1530  -28.4600 N.am  199  GLN199     -0.0878
    116  N         30.9560   16.5940  -29.5900 N.am  200  GLN200     -0.1977
    117  CA        30.2900   16.8910  -30.8470 C.3   200  GLN200      0.1601
    118  C         30.8150   15.9580  -31.9410 C.2   200  GLN200      0.2287
    119  O         30.2940   15.9910  -33.0560 O.2   200  GLN200     -0.2864
    120  CB        30.5050   18.3630  -31.2350 C.3   200  GLN200      0.0394
    121  CG        29.9590   19.3480  -30.2250 C.3   200  GLN200      0.0908
    122  CD        29.9710   20.7830  -30.7460 C.2   200  GLN200      0.2608
    123  OE1       29.9780   21.0420  -31.9620 O.2   200  GLN200     -0.2717
    124  NE2       29.9620   21.7190  -29.8270 N.am  200  GLN200     -0.0878
    125  N         27.9720   12.0970  -32.9820 N.3   203  ASN203     -0.1240
    126  CA        26.5600   12.4530  -32.7130 C.3   203  ASN203      0.1653
    127  C         25.5770   11.8730  -33.7700 C.2   203  ASN203      0.2266
    128  O         24.4300   12.2970  -33.9080 O.2   203  ASN203     -0.2867
    129  CB        26.3880   14.0090  -32.7690 C.3   203  ASN203      0.1155
    130  CG        27.0940   14.7770  -31.6350 C.2   203  ASN203      0.2627
    131  OD1       27.0770   16.0140  -31.6290 O.2   203  ASN203     -0.2716
    132  ND2       27.6770   14.0910  -30.6610 N.am  203  ASN203     -0.0877
    133  N         22.8400   10.0150  -35.6670 N.3   205  GLY205     -0.1210
    134  CA        21.5800    9.4530  -35.2670 C.3   205  GLY205      0.1956
    135  C         20.8710   10.1550  -34.1230 C.2   205  GLY205      0.2612
    136  O         19.7980    9.7260  -33.6580 O.2   205  GLY205     -0.2717
    137  N         21.4370   11.2580  -33.6470 N.am  206  ALA206     -0.1965
    138  CA        20.8010   11.9670  -32.5310 C.3   206  ALA206      0.1728
    139  C         19.3690   12.4120  -32.8560 C.2   206  ALA206      0.2616
    140  O         18.4470   12.2820  -32.0610 O.2   206  ALA206     -0.2715
    141  CB        21.6370   13.1690  -32.0940 C.3   206  ALA206      0.0334
    142  N         19.1680   13.0070  -34.0280 N.am  207  GLY207     -0.1955
    143  CA        17.8430   13.4630  -34.3700 C.3   207  GLY207      0.1869
    144  C         16.7990   12.3650  -34.4680 C.2   207  GLY207      0.2309
    145  O         15.6830   12.4720  -33.9540 O.2   207  GLY207     -0.2863
    146  N         15.9910   11.1190  -31.0200 N.3   210  PHE210     -0.1241
    147  CA        15.0960   12.0190  -30.3200 C.3   210  PHE210      0.1605
    148  C         13.6300   11.8320  -30.7300 C.2   210  PHE210      0.2264
    149  O         12.7200   11.7610  -29.9050 O.2   210  PHE210     -0.2867
    150  CB        15.5490   13.4760  -30.5070 C.3   210  PHE210      0.0534
    151  CG        14.6010   14.4740  -29.9230 C.ar  210  PHE210     -0.0203
    152  CD1       14.6550   14.7860  -28.5670 C.ar  210  PHE210     -0.0042
    153  CD2       13.6120   15.0170  -30.6860 C.ar  210  PHE210     -0.0042
    154  CE1       13.7450   15.6620  -28.0030 C.ar  210  PHE210     -0.0003
    155  CE2       12.6910   15.8630  -30.1280 C.ar  210  PHE210     -0.0003
    156  CZ        12.7450   16.1840  -28.7890 C.ar  210  PHE210     -0.0000
    157  N         14.5540   14.3100  -24.7040 N.3   232  LYS232     -0.1245
    158  CA        15.8010   15.0120  -24.6380 C.3   232  LYS232      0.1561
    159  C         16.7900   14.3470  -23.6750 C.2   232  LYS232      0.2260
    160  O         17.9830   14.2700  -23.9580 O.2   232  LYS232     -0.2867
    161  CB        15.6080   16.5300  -24.3230 C.3   232  LYS232      0.0271
    162  CG        16.9330   17.3580  -24.4930 C.3   232  LYS232      0.0035
    163  CD        16.7460   18.8480  -24.4230 C.3   232  LYS232      0.0206
    164  CE        18.0100   19.6120  -24.4160 C.3   232  LYS232      0.1093
    165  NZ        18.7880   19.5550  -25.6690 N.3   232  LYS232     -0.1314
    166  N         18.1050   11.0760  -25.3670 N.3   235  VAL235     -0.1231
    167  CA        19.1020   11.3310  -26.4100 C.3   235  VAL235      0.1692
    168  C         20.3600   11.9620  -25.8460 C.2   235  VAL235      0.2591
    169  O         21.4520   11.6890  -26.3440 O.2   235  VAL235     -0.2718
    170  CB        18.5270   12.1100  -27.6080 C.3   235  VAL235      0.0266
    171  CG1       18.2810   13.5670  -27.3220 C.3   235  VAL235      0.0020
    172  CG2       19.4420   11.9220  -28.8120 C.3   235  VAL235      0.0020
    173  N         20.2490   12.7500  -24.7660 N.am  236  ALA236     -0.1980
    174  CA        21.4190   13.3360  -24.1530 C.3   236  ALA236      0.1597
    175  C         22.3690   12.2440  -23.6820 C.2   236  ALA236      0.2287
    176  O         23.5830   12.3590  -23.8750 O.2   236  ALA236     -0.2864
    177  CB        21.0100   14.2510  -23.0100 C.3   236  ALA236      0.0319
    178  N         24.0400   10.6450  -26.7460 N.3   239  ILE239     -0.1245
    179  CA        25.0560   11.5020  -27.2930 C.3   239  ILE239      0.1561
    180  C         26.2900   11.4830  -26.3840 C.2   239  ILE239      0.2260
    181  O         27.4050   11.3560  -26.8550 O.2   239  ILE239     -0.2867
    182  CB        24.5170   12.9530  -27.4700 C.3   239  ILE239      0.0252
    183  CG1       23.4200   13.0140  -28.5300 C.3   239  ILE239      0.0019
    184  CG2       25.6410   13.9520  -27.7740 C.3   239  ILE239      0.0019
    185  CD1       22.6040   14.2870  -28.4660 C.3   239  ILE239      0.0001
@<TRIPOS>BOND
     1    12    11    2
     2    11    10    1
     3    14    13    1
     4    10    13    1
     5    10     9    1
     6    13    15    1
     7    27    26    2
     8    29    28    1
     9    29    30    1
    10    25    24    1
    11    25    26    1
    12    25    28    1
    13    32    30   ar
    14    30    31   ar
    15     4     3    2
    16     3     2    1
    17    22    21    2
    18    23    21   am
    19    21    20    1
    20     1     2    1
    21     2     5    1
    22     5     6    1
    23    19    18    2
    24     6     8   ar
    25     6     7   ar
    26    18    17    1
    27    20    17    1
    28    16    17    1
    29   133   134    1
    30   134   135    1
    31    41    40    1
    32   144   143    1
    33   144   145    2
    34   143   142    1
    35    40    39    1
    36   135   136    2
    37   135   137   am
    38   142   139   am
    39   128   127    2
    40    57    58    1
    41    57    56    1
    42   127   126    1
    43   137   138    1
    44    36    35    2
    45    53    52    2
    46    52    51    1
    47    54    51    1
    48    54    55    1
    49   119   118    2
    50   125   126    1
    51    45    44    2
    52    56    55    1
    53   139   138    1
    54   139   140    2
    55    39    38    1
    56   129   126    1
    57   129   130    1
    58    33    34    1
    59   138   141    1
    60    51    50    1
    61    37    34    1
    62    37    38    1
    63    35    34    1
    64    35    42   am
    65    50    48   am
    66   123   122    2
    67   118   117    1
    68    44    43    1
    69    44    46   am
    70    43    42    1
    71   130   131    2
    72   130   132   am
    73    48    49    2
    74    48    47    1
    75   120   117    1
    76   120   121    1
    77   146   147    1
    78   117   116    1
    79    46    47    1
    80   122   121    1
    81   122   124   am
    82   148   147    1
    83   148   149    2
    84   153   155   ar
    85   153   151   ar
    86   150   147    1
    87   150   151    1
    88   155   156   ar
    89   151   152   ar
    90   116   109   am
    91   114   113    2
    92    71    70   ar
    93   172   170    1
    94   156   154   ar
    95   110   109    2
    96   109   108    1
    97   152   154   ar
    98   183   185    1
    99   183   182    1
   100   115   113   am
   101   113   112    1
   102    70    69    1
   103    70    72   ar
   104    94    95    1
   105    94    93    1
   106    66    69    1
   107    66    67    1
   108    66    65    1
   109   184   182    1
   110   170   171    1
   111   170   167    1
   112   182   179    1
   113    67    68    2
   114    64    63    1
   115   179   178    1
   116   179   180    1
   117   108   111    1
   118   108   107    1
   119   111   112    1
   120    99    98    2
   121    93    92    1
   122   181   180    2
   123   167   168    1
   124   167   166    1
   125   169   168    2
   126    63    60    1
   127    60    61    1
   128    60    59    1
   129    98   107   am
   130    98    97    1
   131    61    62    2
   132   168   173   am
   133   165   164    1
   134    92    89    1
   135    96    97    1
   136    96    90   am
   137    97   100    1
   138    89    90    1
   139    89    88    1
   140   173   174    1
   141   157   158    1
   142   100   101    1
   143   158   161    1
   144   158   159    1
   145    90    91    2
   146   162   163    1
   147   162   161    1
   148   163   164    1
   149   174   175    1
   150   174   177    1
   151   160   159    2
   152   176   175    2
   153   103   101   ar
   154   103   105   ar
   155    88    82   am
   156   101   102   ar
   157    83    82    2
   158    78    77    1
   159    82    81    1
   160   105   106   ar
   161    76    75    2
   162   102   104   ar
   163    73    74    1
   164    75    74    1
   165    75    80   am
   166    77    79    1
   167    77    74    1
   168    81    80    1
   169    81    84    1
   170   106   104   ar
   171    84    85    1
   172    85    86   ar
   173    85    87   ar
