@<TRIPOS>MOLECULE
tmp/4c5kD00.pdb
 153 143 0 0 0
SMALL
GASTEIGER

@<TRIPOS>ATOM
      1  N         18.0590   23.1050  -77.8490 N.3   139  ASN139     -0.1240
      2  CA        19.2750   23.7530  -77.3600 C.3   139  ASN139      0.1653
      3  C         19.2130   25.2600  -77.6800 C.2   139  ASN139      0.2266
      4  O         18.2140   25.7630  -78.1850 O.2   139  ASN139     -0.2867
      5  CB        20.5320   23.0400  -77.8790 C.3   139  ASN139      0.1155
      6  CG        20.7400   23.1870  -79.3640 C.2   139  ASN139      0.2627
      7  OD1       20.2740   24.1270  -80.0170 O.2   139  ASN139     -0.2716
      8  ND2       21.5600   22.2730  -79.8960 N.am  139  ASN139     -0.0877
      9  N         17.5310   24.4240  -73.2970 N.3   176  LYS176     -0.1245
     10  CA        18.7610   24.0200  -72.6560 C.3   176  LYS176      0.1561
     11  C         19.7880   25.1390  -72.8080 C.2   176  LYS176      0.2260
     12  O         19.9910   25.6710  -73.9030 O.2   176  LYS176     -0.2867
     13  CB        19.2990   22.7060  -73.2210 C.3   176  LYS176      0.0271
     14  CG        18.3040   21.5820  -73.0680 C.3   176  LYS176      0.0035
     15  CD        18.6970   20.3960  -73.8970 C.3   176  LYS176      0.0206
     16  CE        18.5290   20.6910  -75.3680 C.3   176  LYS176      0.1093
     17  NZ        18.8810   19.5680  -76.2120 N.3   176  LYS176     -0.1314
     18  N         23.1920   24.8430  -70.8570 N.3   178  GLY178     -0.1210
     19  CA        24.3090   23.9060  -70.9860 C.3   178  GLY178      0.1956
     20  C         25.5830   24.5770  -71.4220 C.2   178  GLY178      0.2611
     21  O         25.9010   25.6790  -70.9790 O.2   178  GLY178     -0.2717
     22  N         26.3380   23.9220  -72.3190 N.am  179  LYS179     -0.1979
     23  CA        27.6090   24.4370  -72.8360 C.3   179  LYS179      0.1596
     24  C         27.4630   25.6890  -73.5960 C.2   179  LYS179      0.2287
     25  O         28.3370   26.5400  -73.5360 O.2   179  LYS179     -0.2864
     26  CB        28.3030   23.3850  -73.8220 C.3   179  LYS179      0.0298
     27  CG        28.7180   22.1650  -73.0960 C.3   179  LYS179      0.0038
     28  CD        29.5060   21.1680  -73.8690 C.3   179  LYS179      0.0206
     29  CE        28.6620   20.3180  -74.8240 C.3   179  LYS179      0.1093
     30  NZ        27.4800   19.6970  -74.1860 N.3   179  LYS179     -0.1314
     31  N         25.5880   24.7280  -65.1430 N.3   186  SER186     -0.1217
     32  CA        24.7650   24.3240  -66.2680 C.3   186  SER186      0.1889
     33  C         23.3070   24.6650  -66.0260 C.2   186  SER186      0.2288
     34  O         22.6260   24.0770  -65.2110 O.2   186  SER186     -0.2866
     35  CB        24.8920   22.8260  -66.4710 C.3   186  SER186      0.2089
     36  OG        24.0860   22.4730  -67.5830 O.3   186  SER186     -0.2183
     37  N         19.3550   25.2930  -67.4690 N.3   188  ASP188     -0.1239
     38  CA        18.2930   25.1270  -68.4170 C.3   188  ASP188      0.1674
     39  C         17.0750   25.9160  -67.9270 C.2   188  ASP188      0.2266
     40  O         16.9410   26.1640  -66.6970 O.2   188  ASP188     -0.2867
     41  CB        17.9100   23.6580  -68.6430 C.3   188  ASP188      0.1410
     42  CG        19.0670   22.7600  -69.0240 C.2   188  ASP188      0.3668
     43  OD1       19.9250   23.1720  -69.8250 O.co2 188  ASP188     -0.2456
     44  OD2       19.1020   21.6290  -68.4720 O.co2 188  ASP188     -0.2456
     45  N         22.5450   22.4680  -62.5520 N.3   201  THR201     -0.1203
     46  CA        23.5560   21.5770  -61.9610 C.3   201  THR201      0.1994
     47  C         24.9450   22.1860  -62.1160 C.2   201  THR201      0.2618
     48  O         25.1380   23.1990  -62.8130 O.2   201  THR201     -0.2717
     49  CB        23.5870   20.1760  -62.6210 C.3   201  THR201      0.1784
     50  OG1       24.0960   20.2770  -63.9460 O.3   201  THR201     -0.2211
     51  CG2       22.2550   19.4750  -62.5950 C.3   201  THR201      0.0376
     52  N         25.9500   21.5480  -61.5180 N.am  202  ASP202     -0.1959
     53  CA        27.3240   21.8120  -61.8430 C.3   202  ASP202      0.1840
     54  C         27.5690   21.6980  -63.3330 C.2   202  ASP202      0.2622
     55  O         26.8280   20.9700  -64.0230 O.2   202  ASP202     -0.2715
     56  CB        28.1950   20.8380  -61.0220 C.3   202  ASP202      0.1450
     57  CG        29.6570   21.1420  -61.0220 C.2   202  ASP202      0.3671
     58  OD1       30.1120   22.2130  -61.4850 O.co2 202  ASP202     -0.2456
     59  OD2       30.4260   20.2940  -60.5240 O.co2 202  ASP202     -0.2456
     60  N         28.5760   22.3760  -63.8450 N.am  203  MET203     -0.1963
     61  CA        29.0310   22.2230  -65.2090 C.3   203  MET203      0.1736
     62  C         30.1950   21.2900  -65.1760 C.2   203  MET203      0.2616
     63  O         31.2680   21.6170  -64.6800 O.2   203  MET203     -0.2715
     64  CB        29.4940   23.5560  -65.8030 C.3   203  MET203      0.0427
     65  CG        29.7500   23.5530  -67.2910 C.3   203  MET203      0.0599
     66  SD        28.1470   23.5110  -68.1660 S.3   203  MET203     -0.1393
     67  CE        28.5680   23.0900  -69.7820 C.3   203  MET203      0.0692
     68  N         30.0240   20.0890  -65.7590 N.am  204  PHE204     -0.1960
     69  CA        31.0420   19.0720  -65.7720 C.3   204  PHE204      0.1771
     70  C         31.9280   19.2060  -67.0230 C.2   204  PHE204      0.2619
     71  O         31.7230   20.0720  -67.9050 O.2   204  PHE204     -0.2715
     72  CB        30.3640   17.6900  -65.6970 C.3   204  PHE204      0.0574
     73  CG        29.5670   17.5170  -64.4670 C.ar  204  PHE204     -0.0200
     74  CD1       30.2100   17.4620  -63.2160 C.ar  204  PHE204     -0.0042
     75  CD2       28.1950   17.4800  -64.4640 C.ar  204  PHE204     -0.0042
     76  CE1       29.4570   17.3180  -62.0700 C.ar  204  PHE204     -0.0003
     77  CE2       27.4660   17.3920  -63.3170 C.ar  204  PHE204     -0.0003
     78  CZ        28.0990   17.3000  -62.1070 C.ar  204  PHE204     -0.0000
     79  N         32.9380   18.3530  -67.1120 N.am  205  GLN205     -0.1963
     80  CA        33.7840   18.3140  -68.2600 C.3   205  GLN205      0.1733
     81  C         32.9720   18.3600  -69.5700 C.2   205  GLN205      0.2616
     82  O         31.9110   17.7300  -69.6620 O.2   205  GLN205     -0.2715
     83  CB        34.6590   17.0660  -68.2440 C.3   205  GLN205      0.0408
     84  CG        33.9180   15.7390  -68.3040 C.3   205  GLN205      0.0908
     85  CD        33.5980   15.2600  -69.7120 C.2   205  GLN205      0.2608
     86  OE1       34.3160   15.5220  -70.6440 O.2   205  GLN205     -0.2717
     87  NE2       32.5020   14.4850  -69.8150 N.am  205  GLN205     -0.0878
     88  N         33.5070   19.0710  -70.5420 N.am  206  GLN206     -0.1977
     89  CA        32.8240   19.3160  -71.7830 C.3   206  GLN206      0.1601
     90  C         33.3530   18.4960  -72.9720 C.2   206  GLN206      0.2287
     91  O         32.7620   18.5200  -74.0640 O.2   206  GLN206     -0.2864
     92  CB        32.8110   20.8220  -72.1030 C.3   206  GLN206      0.0394
     93  CG        32.1330   21.6570  -71.0250 C.3   206  GLN206      0.0908
     94  CD        32.0810   23.1060  -71.3360 C.2   206  GLN206      0.2608
     95  OE1       32.0990   23.5320  -72.5090 O.2   206  GLN206     -0.2717
     96  NE2       32.0890   23.8860  -70.2780 N.am  206  GLN206     -0.0878
     97  N         30.8600   14.6580  -74.2860 N.3   209  ASN209     -0.1240
     98  CA        29.4640   14.9270  -74.0370 C.3   209  ASN209      0.1653
     99  C         28.5950   14.4600  -75.2100 C.2   209  ASN209      0.2266
    100  O         27.4390   14.8400  -75.3030 O.2   209  ASN209     -0.2867
    101  CB        29.1620   16.4370  -73.8460 C.3   209  ASN209      0.1155
    102  CG        29.7400   17.1060  -72.5920 C.2   209  ASN209      0.2627
    103  OD1       29.4760   18.3110  -72.4180 O.2   209  ASN209     -0.2716
    104  ND2       30.4840   16.4280  -71.7580 N.am  209  ASN209     -0.0877
    105  N         24.5180   13.8370  -75.1820 N.3   212  ALA212     -0.1231
    106  CA        23.8400   14.4690  -74.0440 C.3   212  ALA212      0.1694
    107  C         22.4090   14.9390  -74.3790 C.2   212  ALA212      0.2592
    108  O         21.4630   14.7190  -73.6480 O.2   212  ALA212     -0.2718
    109  CB        24.6530   15.6420  -73.5400 C.3   212  ALA212      0.0304
    110  N         22.2690   15.5820  -75.5430 N.am  213  GLY213     -0.1957
    111  CA        20.9720   16.0590  -75.9230 C.3   213  GLY213      0.1869
    112  C         19.9510   14.9710  -76.1510 C.2   213  GLY213      0.2309
    113  O         18.8200   15.0160  -75.7020 O.2   213  GLY213     -0.2863
    114  N         19.0350   13.4560  -72.7200 N.3   216  PHE216     -0.1241
    115  CA        18.0800   14.3110  -72.0070 C.3   216  PHE216      0.1605
    116  C         16.6190   14.1620  -72.4700 C.2   216  PHE216      0.2264
    117  O         15.6950   14.0200  -71.6850 O.2   216  PHE216     -0.2867
    118  CB        18.5270   15.8000  -72.1220 C.3   216  PHE216      0.0534
    119  CG        17.5540   16.7090  -71.4710 C.ar  216  PHE216     -0.0203
    120  CD1       17.5570   16.8820  -70.0820 C.ar  216  PHE216     -0.0042
    121  CD2       16.5940   17.3570  -72.2040 C.ar  216  PHE216     -0.0042
    122  CE1       16.6090   17.6530  -69.4730 C.ar  216  PHE216     -0.0003
    123  CE2       15.6490   18.1260  -71.5900 C.ar  216  PHE216     -0.0003
    124  CZ        15.6610   18.2800  -70.2350 C.ar  216  PHE216     -0.0000
    125  N         17.2970   16.0980  -66.2210 N.3   238  LYS238     -0.1245
    126  CA        18.5470   16.8320  -66.0710 C.3   238  LYS238      0.1561
    127  C         19.5100   16.1290  -65.1010 C.2   238  LYS238      0.2260
    128  O         20.7150   16.0900  -65.3820 O.2   238  LYS238     -0.2867
    129  CB        18.3130   18.2750  -65.5990 C.3   238  LYS238      0.0271
    130  CG        19.5720   19.1910  -65.7380 C.3   238  LYS238      0.0035
    131  CD        19.2520   20.6430  -65.4310 C.3   238  LYS238      0.0206
    132  CE        20.4640   21.5430  -65.4830 C.3   238  LYS238      0.1093
    133  NZ        21.2340   21.3890  -66.7110 N.3   238  LYS238     -0.1314
    134  N         20.9450   12.9870  -67.0670 N.3   241  VAL241     -0.1231
    135  CA        21.9370   13.3290  -68.0700 C.3   241  VAL241      0.1692
    136  C         23.1930   13.9250  -67.4510 C.2   241  VAL241      0.2591
    137  O         24.2830   13.7140  -67.9340 O.2   241  VAL241     -0.2718
    138  CB        21.4110   14.1970  -69.2140 C.3   241  VAL241      0.0266
    139  CG1       21.2430   15.6470  -68.8190 C.3   241  VAL241      0.0020
    140  CG2       22.2730   14.0690  -70.4460 C.3   241  VAL241      0.0020
    141  N         23.0060   14.6940  -66.3520 N.am  242  ALA242     -0.1980
    142  CA        24.1800   15.2700  -65.7190 C.3   242  ALA242      0.1597
    143  C         25.1540   14.1860  -65.2270 C.2   242  ALA242      0.2287
    144  O         26.3650   14.3350  -65.3680 O.2   242  ALA242     -0.2864
    145  CB        23.7210   16.1890  -64.5780 C.3   242  ALA242      0.0319
    146  N         26.9070   12.7870  -68.2470 N.3   245  ILE245     -0.1245
    147  CA        27.9360   13.7240  -68.6850 C.3   245  ILE245      0.1561
    148  C         29.2120   13.7150  -67.8020 C.2   245  ILE245      0.2260
    149  O         30.3140   13.6250  -68.2970 O.2   245  ILE245     -0.2867
    150  CB        27.3220   15.1380  -68.7370 C.3   245  ILE245      0.0252
    151  CG1       26.2730   15.2020  -69.8800 C.3   245  ILE245      0.0019
    152  CG2       28.3880   16.2060  -68.9180 C.3   245  ILE245      0.0019
    153  CD1       25.3620   16.4340  -69.7990 C.3   245  ILE245      0.0001
@<TRIPOS>BOND
     1     7     6    2
     2     8     6   am
     3     6     5    1
     4     4     3    2
     5     5     2    1
     6     1     2    1
     7     3     2    1
     8    17    16    1
     9   112   111    1
    10   112   113    2
    11   111   110    1
    12   110   107   am
    13    16    15    1
    14   100    99    2
    15    99    98    1
    16   105   106    1
    17    29    30    1
    18    29    28    1
    19   107   106    1
    20   107   108    2
    21    97    98    1
    22    91    90    2
    23   106   109    1
    24    98   101    1
    25    12    11    2
    26    15    14    1
    27    28    27    1
    28   101   102    1
    29    26    27    1
    30    26    23    1
    31    24    25    2
    32    24    23    1
    33     9    10    1
    34    13    14    1
    35    13    10    1
    36    90    89    1
    37    23    22    1
    38    11    10    1
    39   114   115    1
    40   102   103    2
    41   102   104   am
    42    95    94    2
    43   116   115    1
    44   116   117    2
    45    22    20   am
    46   121   123   ar
    47   121   119   ar
    48   118   115    1
    49   118   119    1
    50    92    89    1
    51    92    93    1
    52    89    88    1
    53   123   124   ar
    54   119   120   ar
    55    20    19    1
    56    20    21    2
    57    94    93    1
    58    94    96   am
    59    19    18    1
    60    86    85    2
    61    88    81   am
    62   140   138    1
    63   124   122   ar
    64   120   122   ar
    65   151   153    1
    66   151   150    1
    67    43    42   ar
    68    87    85   am
    69    67    66    1
    70    85    84    1
    71    82    81    2
    72    81    80    1
    73   138   139    1
    74   138   135    1
    75    42    41    1
    76    42    44   ar
    77   152   150    1
    78   150   147    1
    79   147   146    1
    80   147   148    1
    81    41    38    1
    82    38    39    1
    83    38    37    1
    84    84    83    1
    85   149   148    2
    86    80    83    1
    87    80    79    1
    88    66    65    1
    89   135   136    1
    90   135   134    1
    91   137   136    2
    92    39    40    2
    93    71    70    2
    94    36    35    1
    95   136   141   am
    96    65    64    1
    97    79    70   am
    98    70    69    1
    99   133   132    1
   100    35    32    1
   101   141   142    1
   102    32    33    1
   103    32    31    1
   104   125   126    1
   105   126   129    1
   106   126   127    1
   107    33    34    2
   108    64    61    1
   109    69    68    1
   110    69    72    1
   111    68    62   am
   112   130   129    1
   113   130   131    1
   114   142   143    1
   115   142   145    1
   116    72    73    1
   117   132   131    1
   118   128   127    2
   119   144   143    2
   120    61    62    1
   121    61    60    1
   122    62    63    2
   123    73    75   ar
   124    73    74   ar
   125    75    77   ar
   126    55    54    2
   127    50    49    1
   128    60    54   am
   129    54    53    1
   130    77    78   ar
   131    74    76   ar
   132    48    47    2
   133    49    51    1
   134    49    46    1
   135    45    46    1
   136    47    46    1
   137    47    52   am
   138    78    76   ar
   139    53    52    1
   140    53    56    1
   141    58    57   ar
   142    56    57    1
   143    57    59   ar
