@<TRIPOS>MOLECULE
tmp/4c5lB00.pdb
 91 84 0 0 0
SMALL
GASTEIGER

@<TRIPOS>ATOM
      1  N        -19.8450   -1.4130  -58.9340 N.3    11  GLY11      -0.1210
      2  CA       -18.7020   -0.7520  -58.2970 C.3    11  GLY11       0.1956
      3  C        -17.8130    0.0030  -59.2540 C.2    11  GLY11       0.2613
      4  O        -17.9410   -0.1040  -60.5050 O.2    11  GLY11      -0.2717
      5  N        -16.9100    0.7940  -58.6790 N.am   12  SER12      -0.1938
      6  CA       -15.9770    1.5330  -59.4810 C.3    12  SER12       0.2055
      7  C        -14.6780    0.7350  -59.6000 C.2    12  SER12       0.2643
      8  O        -14.0750    0.3380  -58.5840 O.2    12  SER12      -0.2714
      9  CB       -15.7240    2.9210  -58.8860 C.3    12  SER12       0.2130
     10  OG       -14.7370    3.5820  -59.6430 O.3    12  SER12      -0.2179
     11  N        -14.3090    0.4410  -60.8460 N.am   13  ASP13      -0.1971
     12  CA       -13.0120   -0.1100  -61.1780 C.3    13  ASP13       0.1709
     13  C        -12.0900    1.0820  -61.4850 C.2    13  ASP13       0.2293
     14  O        -12.1360    1.6520  -62.5780 O.2    13  ASP13      -0.2864
     15  CB       -13.0840   -1.0440  -62.3980 C.3    13  ASP13       0.1436
     16  CG       -11.6990   -1.3130  -63.0310 C.2    13  ASP13       0.3671
     17  OD1      -10.6670   -1.2740  -62.3330 O.co2  13  ASP13      -0.2456
     18  OD2      -11.6330   -1.5780  -64.2600 O.co2  13  ASP13      -0.2456
     19  N        -13.4510   -1.9240  -66.4450 N.3    18  ALA18      -0.1231
     20  CA       -14.5340   -2.7670  -66.0020 C.3    18  ALA18       0.1694
     21  C        -15.5290   -1.9640  -65.1440 C.2    18  ALA18       0.2592
     22  O        -15.5450   -0.7260  -65.1080 O.2    18  ALA18      -0.2718
     23  CB       -13.9750   -3.9320  -65.1810 C.3    18  ALA18       0.0304
     24  N        -16.3510   -2.7030  -64.4440 N.am   19  GLY19      -0.1957
     25  CA       -17.2300   -2.1200  -63.4700 C.3    19  GLY19       0.1869
     26  C        -18.0300   -1.0310  -64.1040 C.2    19  GLY19       0.2309
     27  O        -18.3150   -1.0780  -65.2990 O.2    19  GLY19      -0.2863
     28  N        -13.0570   -0.1590  -56.0440 N.3    42  VAL42      -0.1245
     29  CA       -11.9440   -1.0690  -56.1490 C.3    42  VAL42       0.1561
     30  C        -10.7000   -0.3150  -56.6080 C.2    42  VAL42       0.2260
     31  O        -10.7560    0.4250  -57.5880 O.2    42  VAL42      -0.2867
     32  CB       -12.2560   -2.1660  -57.1570 C.3    42  VAL42       0.0252
     33  CG1      -11.1590   -3.2000  -57.1680 C.3    42  VAL42       0.0019
     34  CG2      -13.6090   -2.7830  -56.8360 C.3    42  VAL42       0.0019
     35  N         -6.1420   -0.6360  -56.8750 N.3    44  MET44      -0.1245
     36  CA        -5.0440   -1.5420  -57.1540 C.3    44  MET44       0.1570
     37  C         -3.7080   -0.9630  -56.7240 C.2    44  MET44       0.2261
     38  O         -3.3840    0.1780  -57.0510 O.2    44  MET44      -0.2867
     39  CB        -4.9740   -1.8070  -58.6550 C.3    44  MET44       0.0387
     40  CG        -6.1760   -2.5350  -59.2270 C.3    44  MET44       0.0595
     41  SD        -7.5850   -1.4690  -59.5230 S.3    44  MET44      -0.1393
     42  CE        -8.7720   -2.6110  -60.1940 C.3    44  MET44       0.0692
     43  N         -5.6180   -6.0580  -55.3460 N.3    51  HIS51      -0.1241
     44  CA        -6.8460   -5.2960  -55.2930 C.3    51  HIS51       0.1621
     45  C         -7.2610   -5.0130  -53.8350 C.2    51  HIS51       0.2264
     46  O         -7.0010   -5.8000  -52.9200 O.2    51  HIS51      -0.2867
     47  CB        -8.0070   -6.0560  -55.9560 C.3    51  HIS51       0.0745
     48  CG        -7.9590   -6.1070  -57.4550 C.ar   51  HIS51       0.0817
     49  ND1       -6.8040   -6.3550  -58.1750 N.ar   51  HIS51      -0.2268
     50  CD2       -8.9580   -6.0210  -58.3690 C.ar   51  HIS51       0.1154
     51  CE1       -7.0910   -6.3730  -59.4650 C.ar   51  HIS51       0.1986
     52  NE2       -8.3900   -6.1690  -59.6080 N.ar   51  HIS51      -0.2212
     53  N        -23.8260   -5.2490  -61.5170 N.3    79  GLY79      -0.1210
     54  CA       -22.4590   -5.7400  -61.5790 C.3    79  GLY79       0.1956
     55  C        -22.0550   -6.2020  -60.1860 C.2    79  GLY79       0.2611
     56  O        -22.7650   -6.9780  -59.5710 O.2    79  GLY79      -0.2717
     57  N        -20.9150   -5.7240  -59.7010 N.am   80  MET80      -0.1979
     58  CA       -20.4420   -5.9990  -58.3480 C.3    80  MET80       0.1605
     59  C        -21.4110   -5.4900  -57.3070 C.2    80  MET80       0.2287
     60  O        -21.6980   -4.2900  -57.2690 O.2    80  MET80      -0.2864
     61  CB       -19.1550   -5.2720  -58.1020 C.3    80  MET80       0.0413
     62  CG       -18.5910   -5.5120  -56.7060 C.3    80  MET80       0.0598
     63  SD       -16.9480   -4.8600  -56.7120 S.3    80  MET80      -0.1393
     64  CE       -16.0300   -6.2640  -57.3480 C.3    80  MET80       0.0692
     65  N        -21.2280  -11.0630  -60.8410 N.3   107  VAL107     -0.1245
     66  CA       -19.7820  -10.9930  -60.6410 C.3   107  VAL107      0.1561
     67  C        -19.3790  -11.6760  -59.3370 C.2   107  VAL107      0.2260
     68  O        -19.8630  -11.2960  -58.2790 O.2   107  VAL107     -0.2867
     69  CB       -19.2570   -9.5490  -60.5430 C.3   107  VAL107      0.0252
     70  CG1      -17.7430   -9.5540  -60.6880 C.3   107  VAL107      0.0019
     71  CG2      -19.8680   -8.6540  -61.6110 C.3   107  VAL107      0.0019
     72  N         -9.6510   -7.1580  -70.1800 N.3   205  HIS205     -0.1226
     73  CA       -10.1320   -6.6670  -68.8990 C.3   205  HIS205      0.1752
     74  C        -11.4130   -5.9010  -69.1300 C.2   205  HIS205      0.2596
     75  O        -11.4720   -5.0110  -69.9750 O.2   205  HIS205     -0.2718
     76  CB        -9.0920   -5.7650  -68.2540 C.3   205  HIS205      0.0759
     77  CG        -9.5130   -5.2110  -66.9330 C.ar  205  HIS205      0.0818
     78  ND1       -9.6710   -6.0000  -65.8200 N.ar  205  HIS205     -0.2268
     79  CD2       -9.8110   -3.9500  -66.5490 C.ar  205  HIS205      0.1154
     80  CE1      -10.0440   -5.2490  -64.8000 C.ar  205  HIS205      0.1986
     81  NE2      -10.1380   -4.0010  -65.2190 N.ar  205  HIS205     -0.2212
     82  N        -12.4490   -6.2670  -68.4020 N.am  206  GLY206     -0.1957
     83  CA       -13.7360   -5.5960  -68.5230 C.3   206  GLY206      0.1869
     84  C        -14.6070   -6.1450  -69.6330 C.2   206  GLY206      0.2309
     85  O        -15.6690   -5.5620  -69.9470 O.2   206  GLY206     -0.2863
     86  N        -18.1610   -7.0720  -68.1630 N.3   209  CYS209     -0.1235
     87  CA       -19.0230   -5.9270  -67.8280 C.3   209  CYS209      0.1677
     88  C        -19.5790   -5.2960  -69.1060 C.2   209  CYS209      0.2270
     89  O        -20.7580   -4.9270  -69.2010 O.2   209  CYS209     -0.2867
     90  CB       -18.2310   -4.9270  -66.9820 C.3   209  CYS209      0.0956
     91  SG       -17.5800   -5.6790  -65.4520 S.3   209  CYS209     -0.0801
@<TRIPOS>BOND
     1    72    73    1
     2    75    74    2
     3    85    84    2
     4    84    83    1
     5    89    88    2
     6    74    73    1
     7    74    82   am
     8    88    87    1
     9    73    76    1
    10    83    82    1
    11    76    77    1
    12    86    87    1
    13    87    90    1
    14    90    91    1
    15    77    79   ar
    16    77    78   ar
    17    79    81   ar
    18    19    20    1
    19    20    23    1
    20    20    21    1
    21    78    80   ar
    22    27    26    2
    23    81    80   ar
    24    21    22    2
    25    21    24   am
    26    24    25    1
    27    18    16   ar
    28    26    25    1
    29    16    15    1
    30    16    17   ar
    31    14    13    2
    32    15    12    1
    33    71    69    1
    34    54    53    1
    35    54    55    1
    36    13    12    1
    37    12    11    1
    38    11     7   am
    39    65    66    1
    40    70    69    1
    41    66    69    1
    42    66    67    1
    43     4     3    2
    44    42    41    1
    45    55    57   am
    46    55    56    2
    47    57    58    1
    48    10     9    1
    49    52    51   ar
    50    52    50   ar
    51     7     6    1
    52     7     8    2
    53    41    40    1
    54     6     9    1
    55     6     5    1
    56    51    49   ar
    57    67    68    2
    58     3     5   am
    59     3     2    1
    60    40    39    1
    61     1     2    1
    62    39    36    1
    63    50    48   ar
    64    58    61    1
    65    58    59    1
    66    49    48   ar
    67    61    62    1
    68    31    30    2
    69    48    47    1
    70    64    63    1
    71    59    60    2
    72    33    32    1
    73    32    34    1
    74    32    29    1
    75    36    35    1
    76    36    37    1
    77    38    37    2
    78    63    62    1
    79    30    29    1
    80    29    28    1
    81    47    44    1
    82    43    44    1
    83    44    45    1
    84    45    46    2
