@<TRIPOS>MOLECULE
tmp/4c5nD01.pdb
 208 199 0 0 0
SMALL
GASTEIGER

@<TRIPOS>ATOM
      1  N        -20.4690    7.9050   36.7930 N.3    18  ALA18      -0.1245
      2  CA       -19.3330    8.6600   37.2440 C.3    18  ALA18       0.1562
      3  C        -18.4210    7.8290   38.1490 C.2    18  ALA18       0.2260
      4  O        -18.4480    6.5900   38.1460 O.2    18  ALA18      -0.2867
      5  CB       -19.7580    9.9360   37.9290 C.3    18  ALA18       0.0290
      6  N        -18.4590   18.3130   44.1860 N.3   109  VAL109     -0.1231
      7  CA       -19.9080   17.9290   44.1410 C.3   109  VAL109      0.1692
      8  C        -20.1140   16.7690   43.1480 C.2   109  VAL109      0.2592
      9  O        -19.1380   16.1440   42.7200 O.2   109  VAL109     -0.2718
     10  CB       -20.8110   19.1320   43.7560 C.3   109  VAL109      0.0266
     11  CG1      -22.2760   18.8690   44.0890 C.3   109  VAL109      0.0020
     12  CG2      -20.3620   20.4100   44.4630 C.3   109  VAL109      0.0020
     13  N        -21.3670   16.4670   42.8020 N.am  110  CYS110     -0.1970
     14  CA       -21.6800   15.5470   41.7130 C.3   110  CYS110      0.1712
     15  C        -22.4840   16.2410   40.6010 C.2   110  CYS110      0.2296
     16  O        -23.4450   15.6900   40.0690 O.2   110  CYS110     -0.2864
     17  CB       -22.4210   14.3170   42.2800 C.3   110  CYS110      0.0983
     18  SG       -21.2590   13.1330   42.9480 S.3   110  CYS110     -0.0798
     19  N        -14.0730   21.7570   37.4870 N.3   132  ASN132     -0.1225
     20  CA       -15.2180   22.3940   36.8790 C.3   132  ASN132      0.1785
     21  C        -15.2990   23.8800   37.2980 C.2   132  ASN132      0.2597
     22  O        -14.4520   24.3660   38.0590 O.2   132  ASN132     -0.2718
     23  CB       -16.4930   21.5970   37.1100 C.3   132  ASN132      0.1169
     24  CG       -16.9790   21.6250   38.5360 C.2   132  ASN132      0.2627
     25  OD1      -16.7220   22.5240   39.3070 O.2   132  ASN132     -0.2716
     26  ND2      -17.7530   20.5900   38.8700 N.am  132  ASN132     -0.0877
     27  N        -16.2140   24.6280   36.7010 N.am  133  LEU133     -0.1980
     28  CA       -16.2820   26.0860   36.9250 C.3   133  LEU133      0.1596
     29  C        -16.4210   26.3830   38.4170 C.2   133  LEU133      0.2287
     30  O        -15.7630   27.2610   38.9710 O.2   133  LEU133     -0.2864
     31  CB       -17.5290   26.6980   36.2320 C.3   133  LEU133      0.0297
     32  CG       -17.3680   27.7180   35.0840 C.3   133  LEU133      0.0022
     33  CD1      -18.4950   28.7180   35.0180 C.3   133  LEU133      0.0001
     34  CD2      -16.0360   28.4440   34.9760 C.3   133  LEU133      0.0001
     35  N        -13.0960   23.7790   33.2150 N.3   169  LYS169     -0.1231
     36  CA       -14.2420   23.4270   32.3870 C.3   169  LYS169      0.1693
     37  C        -15.3400   24.4620   32.5460 C.2   169  LYS169      0.2593
     38  O        -15.7280   24.8360   33.6610 O.2   169  LYS169     -0.2718
     39  CB       -14.7730   22.0110   32.7020 C.3   169  LYS169      0.0285
     40  CG       -13.7150   20.9390   32.3730 C.3   169  LYS169      0.0035
     41  CD       -13.8810   19.5950   33.0630 C.3   169  LYS169      0.0206
     42  CE       -13.5960   19.6780   34.5470 C.3   169  LYS169      0.1093
     43  NZ       -14.6830   18.9860   35.2810 N.3   169  LYS169     -0.1314
     44  N        -15.8850   24.8790   31.4110 N.am  170  GLY170     -0.1942
     45  CA       -16.9450   25.8430   31.3660 C.3   170  GLY170      0.2014
     46  C        -18.2060   25.0660   31.1030 C.2   170  GLY170      0.2639
     47  O        -18.9950   24.9050   31.9970 O.2   170  GLY170     -0.2714
     48  N        -18.3430   24.5890   29.8710 N.am  171  GLY171     -0.1939
     49  CA       -19.4350   23.7220   29.4910 C.3   171  GLY171      0.2014
     50  C        -20.7540   24.3660   29.7450 C.2   171  GLY171      0.2639
     51  O        -20.9570   25.5290   29.3840 O.2   171  GLY171     -0.2714
     52  N        -21.6520   23.6430   30.3940 N.am  172  LYS172     -0.1963
     53  CA       -23.0120   24.1530   30.5280 C.3   172  LYS172      0.1728
     54  C        -23.1020   25.2290   31.6310 C.2   172  LYS172      0.2616
     55  O        -23.9940   26.0840   31.6150 O.2   172  LYS172     -0.2715
     56  CB       -24.0510   23.0230   30.7160 C.3   172  LYS172      0.0311
     57  CG       -24.0100   22.2960   32.0410 C.3   172  LYS172      0.0038
     58  CD       -24.9450   21.1050   31.9810 C.3   172  LYS172      0.0206
     59  CE       -25.5430   20.7660   33.3240 C.3   172  LYS172      0.1093
     60  NZ       -26.5970   19.7000   33.1670 N.3   172  LYS172     -0.1314
     61  N        -22.1700   25.1720   32.5710 N.am  173  ALA173     -0.1977
     62  CA       -22.1470   26.0720   33.7340 C.3   173  ALA173      0.1597
     63  C        -21.8420   27.5460   33.3450 C.2   173  ALA173      0.2287
     64  O        -22.2040   28.4860   34.0610 O.2   173  ALA173     -0.2864
     65  CB       -21.1110   25.5570   34.7370 C.3   173  ALA173      0.0319
     66  N        -19.8890   25.0950   24.1050 N.3   179  SER179     -0.1217
     67  CA       -19.1630   24.5740   25.2700 C.3   179  SER179      0.1889
     68  C        -17.6670   24.9200   25.2470 C.2   179  SER179      0.2288
     69  O        -16.8880   24.2680   24.5040 O.2   179  SER179     -0.2866
     70  CB       -19.3160   23.0670   25.2890 C.3   179  SER179      0.2089
     71  OG       -18.7080   22.4790   26.4190 O.3   179  SER179     -0.2183
     72  N        -14.0440   25.3010   27.3330 N.3   181  ASP181     -0.1295
     73  CA       -13.1430   25.0060   28.4340 C.3   181  ASP181      0.1359
     74  C        -11.9110   25.8720   28.2110 C.3   181  ASP181      0.2015
     75  O        -11.5940   26.2920   27.0320 O.3   181  ASP181     -0.2188
     76  CB       -12.7120   23.5400   28.4530 C.3   181  ASP181      0.1357
     77  CG       -13.9090   22.6030   28.5370 C.2   181  ASP181      0.3664
     78  OD1      -14.8820   22.9740   29.2090 O.co2 181  ASP181     -0.2456
     79  OD2      -13.8620   21.5580   27.9020 O.co2 181  ASP181     -0.2456
     80  N        -16.5750   22.9290   21.6190 N.3   194  THR194     -0.1203
     81  CA       -17.4340   22.0850   20.8080 C.3   194  THR194      0.1994
     82  C        -18.7840   22.7260   20.9060 C.2   194  THR194      0.2618
     83  O        -18.9990   23.6890   21.7130 O.2   194  THR194     -0.2717
     84  CB       -17.5690   20.6320   21.3130 C.3   194  THR194      0.1784
     85  OG1      -18.1730   20.6310   22.6410 O.3   194  THR194     -0.2211
     86  CG2      -16.1570   19.8860   21.3560 C.3   194  THR194      0.0376
     87  N        -19.7190   22.2110   20.1300 N.am  195  ASP195     -0.1959
     88  CA       -21.0610   22.6940   20.2610 C.3   195  ASP195      0.1840
     89  C        -21.4810   22.3610   21.7220 C.2   195  ASP195      0.2622
     90  O        -20.8630   21.5250   22.3950 O.2   195  ASP195     -0.2715
     91  CB       -21.9890   21.9980   19.2270 C.3   195  ASP195      0.1450
     92  CG       -21.6650   22.3560   17.7560 C.2   195  ASP195      0.3671
     93  OD1      -20.7710   23.1720   17.4400 O.co2 195  ASP195     -0.2456
     94  OD2      -22.3280   21.8270   16.8730 O.co2 195  ASP195     -0.2456
     95  N        -22.5520   22.9870   22.1740 N.am  196  MET196     -0.1963
     96  CA       -23.3260   22.5040   23.3290 C.3   196  MET196      0.1736
     97  C        -24.2520   21.3790   22.7950 C.2   196  MET196      0.2616
     98  O        -24.8240   21.4750   21.6880 O.2   196  MET196     -0.2715
     99  CB       -24.2070   23.5980   23.9240 C.3   196  MET196      0.0427
    100  CG       -23.5100   24.6310   24.8130 C.3   196  MET196      0.0599
    101  SD       -22.8720   24.1390   26.4200 S.3   196  MET196     -0.1393
    102  CE       -24.3520   23.5010   27.1920 C.3   196  MET196      0.0692
    103  N        -24.3420   20.3160   23.5660 N.am  197  PHE197     -0.1960
    104  CA       -25.2280   19.1980   23.2640 C.3   197  PHE197      0.1771
    105  C        -26.3130   19.1590   24.3240 C.2   197  PHE197      0.2619
    106  O        -26.2900   19.9890   25.2610 O.2   197  PHE197     -0.2715
    107  CB       -24.4260   17.9090   23.2370 C.3   197  PHE197      0.0574
    108  CG       -23.3540   17.9130   22.1890 C.ar  197  PHE197     -0.0200
    109  CD1      -23.6990   17.8950   20.8430 C.ar  197  PHE197     -0.0042
    110  CD2      -22.0220   18.0190   22.5370 C.ar  197  PHE197     -0.0042
    111  CE1      -22.7210   17.9380   19.8520 C.ar  197  PHE197     -0.0003
    112  CE2      -21.0430   18.0730   21.5600 C.ar  197  PHE197     -0.0003
    113  CZ       -21.3870   18.0080   20.2070 C.ar  197  PHE197     -0.0000
    114  N        -27.2630   18.2390   24.1600 N.am  198  GLN198     -0.1963
    115  CA       -28.3220   18.0780   25.1390 C.3   198  GLN198      0.1733
    116  C        -27.7810   18.1550   26.5560 C.2   198  GLN198      0.2616
    117  O        -26.6780   17.6550   26.8300 O.2   198  GLN198     -0.2715
    118  CB       -29.0680   16.7570   24.9200 C.3   198  GLN198      0.0408
    119  CG       -28.1580   15.5250   25.0240 C.3   198  GLN198      0.0908
    120  CD       -28.0680   14.9660   26.4330 C.2   198  GLN198      0.2608
    121  OE1      -28.9330   15.2180   27.2710 O.2   198  GLN198     -0.2717
    122  NE2      -26.9980   14.2150   26.7110 N.am  198  GLN198     -0.0878
    123  N        -28.5590   18.8070   27.4260 N.am  199  GLN199     -0.1977
    124  CA       -28.1810   19.1120   28.7970 C.3   199  GLN199      0.1601
    125  C        -28.7230   18.1130   29.8660 C.2   199  GLN199      0.2287
    126  O        -28.2360   18.1010   31.0080 O.2   199  GLN199     -0.2864
    127  CB       -28.6270   20.5800   29.1380 C.3   199  GLN199      0.0394
    128  CG       -29.1570   20.8570   30.5640 C.3   199  GLN199      0.0908
    129  CD       -30.5140   21.6160   30.6590 C.2   199  GLN199      0.2608
    130  OE1      -31.3100   21.6750   29.7110 O.2   199  GLN199     -0.2717
    131  NE2      -30.7720   22.1820   31.8300 N.am  199  GLN199     -0.0878
    132  N        -26.0240   14.2090   31.2880 N.3   202  ASN202     -0.1225
    133  CA       -24.5650   14.4460   31.2780 C.3   202  ASN202      0.1785
    134  C        -23.8310   13.8660   32.5440 C.2   202  ASN202      0.2597
    135  O        -22.7240   14.2880   32.8750 O.2   202  ASN202     -0.2718
    136  CB       -24.2120   15.9480   31.2650 C.3   202  ASN202      0.1169
    137  CG       -24.9030   16.7340   30.1350 C.2   202  ASN202      0.2627
    138  OD1      -25.3780   16.1710   29.1380 O.2   202  ASN202     -0.2716
    139  ND2      -24.9500   18.0360   30.2950 N.am  202  ASN202     -0.0877
    140  N        -24.4670   12.9830   33.2620 N.am  203  HIS203     -0.1961
    141  CA       -23.8630   12.4910   34.5160 C.3   203  HIS203      0.1787
    142  C        -22.6130   11.7080   34.2130 C.2   203  HIS203      0.2621
    143  O        -22.6330   10.7900   33.3750 O.2   203  HIS203     -0.2715
    144  CB       -24.8210   11.5870   35.2320 C.3   203  HIS203      0.0785
    145  CG       -24.2540   10.9890   36.4760 C.ar  203  HIS203      0.0821
    146  ND1      -23.9520   11.7470   37.5800 N.ar  203  HIS203     -0.2267
    147  CD2      -23.9600    9.7090   36.8000 C.ar  203  HIS203      0.1154
    148  CE1      -23.5050   10.9580   38.5480 C.ar  203  HIS203      0.1986
    149  NE2      -23.4900    9.7140   38.0950 N.ar  203  HIS203     -0.2212
    150  N        -21.5380   12.0810   34.8530 N.am  204  GLY204     -0.1940
    151  CA       -20.2530   11.4280   34.6210 C.3   204  GLY204      0.2014
    152  C        -19.3050   12.1540   33.6880 C.2   204  GLY204      0.2639
    153  O        -18.1490   11.7490   33.5090 O.2   204  GLY204     -0.2714
    154  N        -19.7760   13.2410   33.0740 N.am  205  ALA205     -0.1963
    155  CA       -18.9550   13.9380   32.0960 C.3   205  ALA205      0.1728
    156  C        -17.6160   14.4210   32.6380 C.2   205  ALA205      0.2617
    157  O        -16.6060   14.2530   32.0020 O.2   205  ALA205     -0.2715
    158  CB       -19.7510   15.0550   31.4690 C.3   205  ALA205      0.0334
    159  N        -17.6110   14.9930   33.8260 N.am  206  GLY206     -0.1940
    160  CA       -16.3800   15.4450   34.4750 C.3   206  GLY206      0.2014
    161  C        -15.4290   14.2760   34.7850 C.2   206  GLY206      0.2639
    162  O        -14.2130   14.3310   34.4950 O.2   206  GLY206     -0.2714
    163  N        -15.9430   13.2130   35.3790 N.am  207  CYS207     -0.1967
    164  CA       -15.0720   12.0740   35.7180 C.3   207  CYS207      0.1712
    165  C        -14.4980   11.4560   34.4590 C.2   207  CYS207      0.2296
    166  O        -13.3160   11.1660   34.3470 O.2   207  CYS207     -0.2864
    167  CB       -15.8650   11.0240   36.5130 C.3   207  CYS207      0.0983
    168  SG       -16.3940   11.6310   38.1070 S.3   207  CYS207     -0.0798
    169  N        -14.0090   13.0360   31.5780 N.3   209  PHE209     -0.1241
    170  CA       -13.0000   13.9560   31.0860 C.3   209  PHE209      0.1605
    171  C        -11.6360   13.6830   31.7060 C.2   209  PHE209      0.2264
    172  O        -10.6170   13.5220   31.0480 O.2   209  PHE209     -0.2867
    173  CB       -13.3810   15.4000   31.4320 C.3   209  PHE209      0.0534
    174  CG       -12.4230   16.3960   30.8340 C.ar  209  PHE209     -0.0203
    175  CD1      -12.5790   16.8610   29.5440 C.ar  209  PHE209     -0.0042
    176  CD2      -11.3480   16.8170   31.5670 C.ar  209  PHE209     -0.0042
    177  CE1      -11.6360   17.7540   29.0050 C.ar  209  PHE209     -0.0003
    178  CE2      -10.4420   17.7000   31.0350 C.ar  209  PHE209     -0.0003
    179  CZ       -10.5570   18.1400   29.7430 C.ar  209  PHE209     -0.0000
    180  N        -11.5250   16.2420   25.7060 N.3   231  LYS231     -0.1245
    181  CA       -12.7540   17.0000   25.4140 C.3   231  LYS231      0.1561
    182  C        -13.5160   16.3150   24.2860 C.2   231  LYS231      0.2260
    183  O        -14.7380   16.2270   24.3480 O.2   231  LYS231     -0.2867
    184  CB       -12.5030   18.4650   25.0040 C.3   231  LYS231      0.0271
    185  CG       -13.7280   19.3070   25.1020 C.3   231  LYS231      0.0035
    186  CD       -13.4010   20.7580   24.8040 C.3   231  LYS231      0.0206
    187  CE       -14.6300   21.6070   24.5850 C.3   231  LYS231      0.1093
    188  NZ       -15.5860   21.4550   25.7100 N.3   231  LYS231     -0.1314
    189  N        -15.1980   13.1200   25.6660 N.3   234  VAL234     -0.1231
    190  CA       -16.3770   13.2940   26.4980 C.3   234  VAL234      0.1692
    191  C        -17.4780   13.9930   25.7270 C.2   234  VAL234      0.2591
    192  O        -18.6780   13.7010   25.9210 O.2   234  VAL234     -0.2718
    193  CB       -16.0460   14.0600   27.7820 C.3   234  VAL234      0.0266
    194  CG1      -15.6540   15.4920   27.4510 C.3   234  VAL234      0.0020
    195  CG2      -17.2430   14.0440   28.7190 C.3   234  VAL234      0.0020
    196  N        -17.0950   14.8240   24.7590 N.am  235  ALA235     -0.1980
    197  CA       -18.1170   15.4260   23.8950 C.3   235  ALA235      0.1597
    198  C        -19.0230   14.3750   23.2540 C.2   235  ALA235      0.2287
    199  O        -20.2340   14.5070   23.2750 O.2   235  ALA235     -0.2864
    200  CB       -17.4920   16.3260   22.8360 C.3   235  ALA235      0.0319
    201  N        -21.2140   12.7280   25.8620 N.3   238  ILE238     -0.1245
    202  CA       -22.3390   13.6360   26.2400 C.3   238  ILE238      0.1561
    203  C        -23.3870   13.6630   25.1870 C.2   238  ILE238      0.2260
    204  O        -24.5700   13.5230   25.4870 O.2   238  ILE238     -0.2867
    205  CB       -21.8920   15.1180   26.4080 C.3   238  ILE238      0.0252
    206  CG1      -21.0570   15.2060   27.6740 C.3   238  ILE238      0.0019
    207  CG2      -23.1330   16.0080   26.5020 C.3   238  ILE238      0.0019
    208  CD1      -20.2390   16.4530   27.8520 C.3   238  ILE238      0.0001
@<TRIPOS>BOND
     1    94    92   ar
     2    93    92   ar
     3    92    91    1
     4    91    88    1
     5   111   113   ar
     6   111   109   ar
     7    87    88    1
     8    87    82   am
     9   113   112   ar
    10    88    89    1
    11    81    82    1
    12    81    84    1
    13    81    80    1
    14   109   108   ar
    15    82    83    2
    16    84    86    1
    17    84    85    1
    18   112   110   ar
    19    98    97    2
    20    89    95   am
    21    89    90    2
    22    95    96    1
    23   108   110   ar
    24   108   107    1
    25    97    96    1
    26    97   103   am
    27   200   197    1
    28   107   104    1
    29   198   199    2
    30   198   197    1
    31   104   103    1
    32   104   105    1
    33    96    99    1
    34   197   196    1
    35    99   100    1
    36    66    67    1
    37   114   105   am
    38   114   115    1
    39   182   183    2
    40   182   181    1
    41   105   106    2
    42    69    68    2
    43   187   186    1
    44   187   188    1
    45   196   191   am
    46   186   185    1
    47   100   101    1
    48   118   119    1
    49   118   115    1
    50   184   185    1
    51   184   181    1
    52   119   120    1
    53   115   116    1
    54   203   204    2
    55   203   202    1
    56    68    67    1
    57    67    70    1
    58    70    71    1
    59   181   180    1
    60   189   190    1
    61   191   192    2
    62   191   190    1
    63   201   202    1
    64   202   205    1
    65   205   207    1
    66   205   206    1
    67   101   102    1
    68   120   122   am
    69   120   121    2
    70   190   193    1
    71   116   117    2
    72   116   123   am
    73    75    74    1
    74    72    73    1
    75   123   124    1
    76   194   193    1
    77   206   208    1
    78   193   195    1
    79    79    77   ar
    80    74    73    1
    81    73    76    1
    82    76    77    1
    83    77    78   ar
    84   124   127    1
    85   124   125    1
    86   177   175   ar
    87   177   179   ar
    88   127   128    1
    89   138   137    2
    90    51    50    2
    91    49    50    1
    92    49    48    1
    93   175   174   ar
    94   130   129    2
    95   179   178   ar
    96    50    52   am
    97   125   126    2
    98    48    46   am
    99   137   139   am
   100   137   136    1
   101    52    53    1
   102    53    56    1
   103    53    54    1
   104   128   129    1
   105   129   131   am
   106    56    57    1
   107   174   173    1
   108   174   176   ar
   109   178   176   ar
   110   172   171    2
   111   170   173    1
   112   170   169    1
   113   170   171    1
   114    46    45    1
   115    46    47    2
   116   136   133    1
   117   133   132    1
   118   133   134    1
   119    45    44    1
   120    44    37   am
   121   158   155    1
   122    55    54    2
   123    54    61   am
   124    58    57    1
   125    58    59    1
   126   157   156    2
   127   155   156    1
   128   155   154    1
   129    40    39    1
   130    40    41    1
   131    36    37    1
   132    36    39    1
   133    36    35    1
   134   134   135    2
   135   134   140   am
   136    37    38    2
   137    61    62    1
   138   156   159   am
   139    41    42    1
   140   154   152   am
   141    60    59    1
   142   140   141    1
   143    63    62    1
   144    63    64    2
   145   143   142    2
   146   153   152    2
   147   152   151    1
   148    62    65    1
   149   159   160    1
   150   142   141    1
   151   142   150   am
   152   166   165    2
   153   165   164    1
   154   160   161    1
   155   162   161    2
   156   141   144    1
   157    42    43    1
   158   151   150    1
   159   161   163   am
   160    34    32    1
   161    33    32    1
   162    32    31    1
   163   144   145    1
   164   163   164    1
   165   164   167    1
   166    31    28    1
   167   145   147   ar
   168   145   146   ar
   169   167   168    1
   170    27    28    1
   171    27    21   am
   172     1     2    1
   173   147   149   ar
   174    20    23    1
   175    20    21    1
   176    20    19    1
   177    28    29    1
   178    23    24    1
   179     2     5    1
   180     2     3    1
   181    21    22    2
   182   146   148   ar
   183   149   148   ar
   184     4     3    2
   185    29    30    2
   186    24    26   am
   187    24    25    2
   188    16    15    2
   189    15    14    1
   190    14    17    1
   191    14    13    1
   192    17    18    1
   193     9     8    2
   194    13     8   am
   195     8     7    1
   196    10    11    1
   197    10     7    1
   198    10    12    1
   199     7     6    1
