@<TRIPOS>MOLECULE
tmp/4c5sA00.pdb
 126 117 0 0 0
SMALL
GASTEIGER

@<TRIPOS>ATOM
      1  N         21.9520   23.3120  -36.3680 N.3    72  ALA72      -0.1231
      2  CA        20.6740   23.6450  -37.0260 C.3    72  ALA72       0.1694
      3  C         20.2100   25.0660  -36.7400 C.2    72  ALA72       0.2592
      4  O         20.0900   25.4680  -35.5910 O.2    72  ALA72      -0.2718
      5  CB        19.5930   22.6560  -36.6320 C.3    72  ALA72       0.0304
      6  N         19.9570   25.8310  -37.7980 N.am   73  GLY73      -0.1957
      7  CA        19.4630   27.1880  -37.6440 C.3    73  GLY73       0.1869
      8  C         20.5630   28.1820  -37.2820 C.2    73  GLY73       0.2309
      9  O         20.2680   29.3540  -37.0230 O.2    73  GLY73      -0.2863
     10  N         16.3680   26.7970  -41.7770 N.3    78  PHE78      -0.1227
     11  CA        15.3680   26.6770  -40.7070 C.3    78  PHE78       0.1736
     12  C         14.2680   25.6960  -41.0610 C.2    78  PHE78       0.2596
     13  O         13.7870   25.6690  -42.2140 O.2    78  PHE78      -0.2718
     14  CB        14.7350   28.0440  -40.4160 C.3    78  PHE78       0.0547
     15  CG        15.7370   29.0950  -40.0260 C.ar   78  PHE78      -0.0202
     16  CD1       16.3250   29.0750  -38.7670 C.ar   78  PHE78      -0.0042
     17  CD2       16.1340   30.0700  -40.9440 C.ar   78  PHE78      -0.0042
     18  CE1       17.2770   30.0290  -38.4200 C.ar   78  PHE78      -0.0003
     19  CE2       17.0870   31.0300  -40.6070 C.ar   78  PHE78      -0.0003
     20  CZ        17.6590   31.0080  -39.3380 C.ar   78  PHE78      -0.0000
     21  N         13.8370   24.9330  -40.0540 N.am   79  GLY79      -0.1957
     22  CA        12.6520   24.0860  -40.1830 C.3    79  GLY79       0.1869
     23  C         12.8560   23.0250  -41.2380 C.2    79  GLY79       0.2309
     24  O         13.8080   22.2590  -41.1660 O.2    79  GLY79      -0.2863
     25  N         15.8470   35.2640  -41.2360 N.3    96  LEU96      -0.1245
     26  CA        14.8350   34.5990  -40.4190 C.3    96  LEU96       0.1561
     27  C         13.8030   35.6240  -39.9640 C.2    96  LEU96       0.2260
     28  O         12.5900   35.4100  -40.1260 O.2    96  LEU96      -0.2867
     29  CB        15.4680   33.8920  -39.2080 C.3    96  LEU96       0.0270
     30  CG        14.4770   33.2950  -38.1990 C.3    96  LEU96       0.0019
     31  CD1       13.6380   32.1730  -38.8110 C.3    96  LEU96       0.0001
     32  CD2       15.2120   32.8030  -36.9590 C.3    96  LEU96       0.0001
     33  N         11.5730   36.9900  -42.7600 N.3    99  CYS99      -0.1221
     34  CA        10.5910   35.9820  -43.1180 C.3    99  CYS99       0.1808
     35  C          9.4200   35.8860  -42.1170 C.2    99  CYS99       0.2601
     36  O          8.2680   35.6750  -42.5210 O.2    99  CYS99      -0.2717
     37  CB        11.3480   34.6650  -43.2790 C.3    99  CYS99       0.0970
     38  SG        10.4690   33.1260  -42.9710 S.3    99  CYS99      -0.0800
     39  N          9.7130   36.0670  -40.8290 N.am  100  LEU100     -0.1979
     40  CA         8.6960   35.9350  -39.7740 C.3   100  LEU100      0.1596
     41  C          7.8830   37.1980  -39.4790 C.2   100  LEU100      0.2287
     42  O          6.8800   37.1420  -38.7390 O.2   100  LEU100     -0.2864
     43  CB         9.3300   35.4040  -38.4800 C.3   100  LEU100      0.0297
     44  CG         9.9220   33.9980  -38.5090 C.3   100  LEU100      0.0022
     45  CD1       10.5640   33.6700  -37.1630 C.3   100  LEU100      0.0001
     46  CD2        8.8160   32.9980  -38.8340 C.3   100  LEU100      0.0001
     47  N          6.8450   31.9510  -33.0800 N.3   159  LEU159     -0.1245
     48  CA         7.7870   32.5220  -34.0530 C.3   159  LEU159      0.1561
     49  C          7.3870   33.9130  -34.5290 C.2   159  LEU159      0.2260
     50  O          8.1620   34.8490  -34.4040 O.2   159  LEU159     -0.2867
     51  CB         7.9430   31.5930  -35.2740 C.3   159  LEU159      0.0270
     52  CG         8.6730   30.2580  -35.0960 C.3   159  LEU159      0.0019
     53  CD1        8.5270   29.4220  -36.3720 C.3   159  LEU159      0.0001
     54  CD2       10.1540   30.4750  -34.7800 C.3   159  LEU159      0.0001
     55  N         17.2770   33.2970  -34.1810 N.3   207  LEU207     -0.1245
     56  CA        16.5710   32.0980  -33.7260 C.3   207  LEU207      0.1561
     57  C         16.3570   32.0380  -32.2100 C.2   207  LEU207      0.2260
     58  O         15.2740   31.6430  -31.7410 O.2   207  LEU207     -0.2867
     59  CB        17.3070   30.8470  -34.2020 C.3   207  LEU207      0.0270
     60  CG        16.6150   29.4940  -34.0330 C.3   207  LEU207      0.0019
     61  CD1       15.3010   29.3980  -34.8220 C.3   207  LEU207      0.0001
     62  CD2       17.5930   28.4210  -34.4520 C.3   207  LEU207      0.0001
     63  N         12.5980   31.4420  -31.0080 N.3   211  ASN211     -0.1240
     64  CA        12.3520   29.9930  -30.9040 C.3   211  ASN211      0.1653
     65  C         11.8430   29.5770  -29.5190 C.2   211  ASN211      0.2266
     66  O         12.2740   28.5720  -28.9730 O.2   211  ASN211     -0.2867
     67  CB        13.6290   29.2150  -31.2990 C.3   211  ASN211      0.1155
     68  CG        13.3400   27.9390  -32.0900 C.2   211  ASN211      0.2627
     69  OD1       12.2290   27.7430  -32.6280 O.2   211  ASN211     -0.2716
     70  ND2       14.3520   27.0670  -32.1840 N.am  211  ASN211     -0.0877
     71  N         15.8890   26.1340  -29.0560 N.3   335  ASN335     -0.1226
     72  CA        16.5590   25.0690  -29.8150 C.3   335  ASN335      0.1770
     73  C         17.5100   25.6270  -30.8910 C.2   335  ASN335      0.2439
     74  O         17.1690   26.5980  -31.5560 O.2   335  ASN335     -0.2733
     75  CB        15.5420   24.1630  -30.5090 C.3   335  ASN335      0.1168
     76  CG        16.1960   22.9350  -31.0920 C.2   335  ASN335      0.2627
     77  OD1       16.6990   22.0860  -30.3540 O.2   335  ASN335     -0.2716
     78  ND2       16.2070   22.8380  -32.4130 N.am  335  ASN335     -0.0877
     79  N         18.7010   25.0160  -31.0640 N.am  336  PRO336     -0.2729
     80  CA        19.3190   23.9690  -30.2500 C.3   336  PRO336      0.1401
     81  C         19.6240   24.4270  -28.8340 C.2   336  PRO336      0.2269
     82  O         19.6870   25.6330  -28.5540 O.2   336  PRO336     -0.2865
     83  CB        20.6410   23.6910  -30.9950 C.3   336  PRO336      0.0296
     84  CG        20.2910   23.9500  -32.4130 C.3   336  PRO336      0.0237
     85  CD        19.3960   25.1630  -32.3560 C.3   336  PRO336      0.0939
     86  N         16.7570   19.3550  -30.2780 N.3   348  GLY348     -0.1225
     87  CA        15.5260   18.8470  -29.6620 C.3   348  GLY348      0.1811
     88  C         14.3560   19.7230  -30.0690 C.2   348  GLY348      0.2280
     89  O         14.3610   20.3150  -31.1490 O.2   348  GLY348     -0.2866
     90  N         10.9940   24.3430  -28.0200 N.3   351  PHE351     -0.1241
     91  CA        10.0850   25.3760  -28.4840 C.3   351  PHE351      0.1605
     92  C          8.6420   24.8770  -28.5030 C.2   351  PHE351      0.2264
     93  O          7.7440   25.6640  -28.7600 O.2   351  PHE351     -0.2867
     94  CB        10.4470   25.7930  -29.9200 C.3   351  PHE351      0.0534
     95  CG        10.6720   24.6190  -30.8430 C.ar  351  PHE351     -0.0203
     96  CD1        9.6020   23.8410  -31.2920 C.ar  351  PHE351     -0.0042
     97  CD2       11.9610   24.2710  -31.2380 C.ar  351  PHE351     -0.0042
     98  CE1        9.8210   22.7450  -32.1240 C.ar  351  PHE351     -0.0003
     99  CE2       12.1860   23.1810  -32.0660 C.ar  351  PHE351     -0.0003
    100  CZ        11.1220   22.4120  -32.5080 C.ar  351  PHE351     -0.0000
    101  N          4.0510   23.9720  -42.0670 N.3   435  GLU435     -0.1245
    102  CA         5.4140   24.4010  -42.4650 C.3   435  GLU435      0.1567
    103  C          6.1430   23.3590  -43.3180 C.2   435  GLU435      0.2260
    104  O          7.1080   22.7200  -42.8700 O.2   435  GLU435     -0.2867
    105  CB         6.2380   24.8030  -41.2250 C.3   435  GLU435      0.0388
    106  CG         7.5440   25.5510  -41.5430 C.3   435  GLU435      0.1160
    107  CD         8.7880   24.7520  -41.2020 C.2   435  GLU435      0.3649
    108  OE1        8.8650   24.1600  -40.1040 O.co2 435  GLU435     -0.2457
    109  OE2        9.7250   24.7490  -42.0250 O.co2 435  GLU435     -0.2457
    110  N          6.9080   19.9430  -41.9350 N.3   438  ASN438     -0.1225
    111  CA         7.9550   19.7520  -40.9170 C.3   438  ASN438      0.1785
    112  C          7.3170   19.7240  -39.5170 C.2   438  ASN438      0.2597
    113  O          7.6880   18.9160  -38.6260 O.2   438  ASN438     -0.2718
    114  CB         9.0100   20.8720  -41.0270 C.3   438  ASN438      0.1169
    115  CG        10.0720   20.8030  -39.9290 C.2   438  ASN438      0.2627
    116  OD1       10.7000   19.7650  -39.7140 O.2   438  ASN438     -0.2716
    117  ND2       10.2880   21.9160  -39.2470 N.am  438  ASN438     -0.0877
    118  N          6.3310   20.6040  -39.3380 N.am  439  GLN439     -0.1979
    119  CA         5.6620   20.7640  -38.0530 C.3   439  GLN439      0.1601
    120  C          4.3830   19.9480  -38.0810 C.2   439  GLN439      0.2287
    121  O          3.2750   20.4940  -37.9830 O.2   439  GLN439     -0.2864
    122  CB         5.4100   22.2470  -37.7490 C.3   439  GLN439      0.0394
    123  CG         6.6950   23.0790  -37.8250 C.3   439  GLN439      0.0908
    124  CD         6.5340   24.4900  -37.2850 C.2   439  GLN439      0.2608
    125  OE1        5.6980   24.7460  -36.4070 O.2   439  GLN439     -0.2717
    126  NE2        7.3160   25.4160  -37.8200 N.am  439  GLN439     -0.0878
@<TRIPOS>BOND
     1   103   104    2
     2   103   102    1
     3    37    34    1
     4    37    38    1
     5    34    33    1
     6    34    35    1
     7    36    35    2
     8   102   101    1
     9   102   105    1
    10    13    12    2
    11    35    39   am
    12   109   107   ar
    13   110   111    1
    14    10    11    1
    15   106   105    1
    16   106   107    1
    17    23    24    2
    18    23    22    1
    19    25    26    1
    20   107   108   ar
    21    12    11    1
    22    12    21   am
    23   114   111    1
    24   114   115    1
    25    17    19   ar
    26    17    15   ar
    27   111   112    1
    28    39    40    1
    29    11    14    1
    30    19    20   ar
    31    26    27    1
    32    26    29    1
    33    14    15    1
    34    22    21    1
    35    28    27    2
    36    15    16   ar
    37   115   116    2
    38   115   117   am
    39    40    41    1
    40    40    43    1
    41   112   118   am
    42   112   113    2
    43    41    42    2
    44    20    18   ar
    45   118   119    1
    46    29    30    1
    47    46    44    1
    48    31    30    1
    49    16    18   ar
    50    44    43    1
    51    44    45    1
    52    30    32    1
    53   120   119    1
    54   120   121    2
    55   119   122    1
    56   123   122    1
    57   123   124    1
    58   126   124   am
    59     6     7    1
    60     6     3   am
    61     7     8    1
    62   124   125    2
    63     8     9    2
    64     2     3    1
    65     2     5    1
    66     2     1    1
    67     3     4    2
    68    53    52    1
    69    51    52    1
    70    51    48    1
    71    52    54    1
    72    61    60    1
    73    49    50    2
    74    49    48    1
    75    62    60    1
    76    59    60    1
    77    59    56    1
    78    55    56    1
    79    48    47    1
    80    56    57    1
    81    69    68    2
    82   100    98   ar
    83   100    99   ar
    84    84    85    1
    85    84    83    1
    86    78    76   am
    87    85    79    1
    88    57    58    2
    89    70    68   am
    90    98    96   ar
    91    68    67    1
    92    99    97   ar
    93    74    73    2
    94    67    64    1
    95    96    95   ar
    96    97    95   ar
    97    89    88    2
    98    76    75    1
    99    76    77    2
   100    79    73   am
   101    79    80    1
   102    63    64    1
   103    83    80    1
   104    64    65    1
   105    73    72    1
   106    95    94    1
   107    75    72    1
   108    86    87    1
   109    80    81    1
   110    88    87    1
   111    94    91    1
   112    72    71    1
   113    65    66    2
   114    81    82    2
   115    93    92    2
   116    92    91    1
   117    91    90    1
