@<TRIPOS>MOLECULE
tmp/4c61A00.pdb
 153 146 0 0 0
SMALL
GASTEIGER

@<TRIPOS>ATOM
      1  N         20.2930   -6.0020   40.9430 N.3    10  GLN10      -0.1245
      2  CA        21.0560   -4.8890   41.5050 C.3    10  GLN10       0.1566
      3  C         20.3020   -4.0840   42.5390 C.2    10  GLN10       0.2260
      4  O         19.0820   -4.0620   42.5320 O.2    10  GLN10      -0.2867
      5  CB        21.6380   -3.9530   40.4250 C.3    10  GLN10       0.0367
      6  CG        20.6400   -3.1010   39.6990 C.3    10  GLN10       0.0905
      7  CD        21.3510   -2.1050   38.8380 C.2    10  GLN10       0.2608
      8  OE1       21.6710   -2.3810   37.6940 O.2    10  GLN10      -0.2717
      9  NE2       21.6620   -0.9450   39.3790 N.am   10  GLN10      -0.0878
     10  N         19.0320   -0.6590   43.9320 N.3    12  LEU12      -0.1231
     11  CA        18.6210    0.6190   43.3260 C.3    12  LEU12       0.1693
     12  C         18.8470    1.8010   44.3090 C.2    12  LEU12       0.2592
     13  O         19.1330    2.9150   43.8890 O.2    12  LEU12      -0.2718
     14  CB        17.1750    0.5660   42.7860 C.3    12  LEU12       0.0284
     15  CG        16.8920   -0.4420   41.6460 C.3    12  LEU12       0.0019
     16  CD1       15.3730   -0.5810   41.4060 C.3    12  LEU12       0.0001
     17  CD2       17.6700   -0.0770   40.3490 C.3    12  LEU12       0.0001
     18  N         18.7670    1.5250   45.5970 N.am   13  GLY13      -0.1957
     19  CA        19.0180    2.5020   46.6550 C.3    13  GLY13       0.1869
     20  C         18.4140    2.1570   48.0010 C.2    13  GLY13       0.2309
     21  O         17.4350    1.4170   48.0690 O.2    13  GLY13      -0.2863
     22  N         15.5550   -0.6250   48.1810 N.3    16  VAL16      -0.1245
     23  CA        14.9120   -0.9160   46.8940 C.3    16  VAL16       0.1561
     24  C         15.8950   -1.6700   45.9910 C.2    16  VAL16       0.2260
     25  O         17.0140   -1.2140   45.7550 O.2    16  VAL16      -0.2867
     26  CB        14.2480    0.3120   46.2030 C.3    16  VAL16       0.0252
     27  CG1       13.5480   -0.0950   44.8980 C.3    16  VAL16       0.0019
     28  CG2       13.2560    0.9970   47.1440 C.3    16  VAL16       0.0019
     29  N         10.7500   -3.9550   40.6150 N.3    33  ALA33      -0.1245
     30  CA        11.4270   -3.2570   41.7120 C.3    33  ALA33       0.1562
     31  C         10.8210   -3.7860   43.0040 C.2    33  ALA33       0.2260
     32  O          9.5950   -3.9480   43.1230 O.2    33  ALA33      -0.2867
     33  CB        11.2630   -1.7660   41.6120 C.3    33  ALA33       0.0290
     34  N          3.4610    4.9630   40.1930 N.3    64  VAL64      -0.1245
     35  CA         4.1550    3.6780   40.0470 C.3    64  VAL64       0.1561
     36  C          3.1700    2.5180   40.3310 C.2    64  VAL64       0.2260
     37  O          2.4880    2.5420   41.3600 O.2    64  VAL64      -0.2867
     38  CB         5.4710    3.6010   40.8900 C.3    64  VAL64       0.0252
     39  CG1        5.1960    3.6600   42.4020 C.3    64  VAL64       0.0019
     40  CG2        6.3010    2.3560   40.5270 C.3    64  VAL64       0.0019
     41  N          6.8120   -3.8990   42.7930 N.3    77  MET77      -0.1230
     42  CA         6.3300   -2.8530   41.8920 C.3    77  MET77       0.1702
     43  C          6.9170   -3.0200   40.5060 C.2    77  MET77       0.2595
     44  O          7.9180   -3.7240   40.3200 O.2    77  MET77      -0.2718
     45  CB         6.7160   -1.4700   42.4350 C.3    77  MET77       0.0401
     46  CG         6.0510   -1.1270   43.7540 C.3    77  MET77       0.0596
     47  SD         6.7750    0.3160   44.5440 S.3    77  MET77      -0.1393
     48  CE         8.2160   -0.4710   45.3460 C.3    77  MET77       0.0692
     49  N          6.3060   -2.3250   39.5210 N.am   78  GLU78      -0.1920
     50  CA         6.7910   -2.2900   38.1420 C.3    78  GLU78       0.1949
     51  C          8.1470   -1.5890   38.1680 C.2    78  GLU78       0.2659
     52  O          8.3840   -0.7810   39.0700 O.2    78  GLU78      -0.2711
     53  CB         5.7980   -1.5380   37.2250 C.2    78  GLU78       0.0111
     54  CG         5.7190   -0.0310   37.4280 C.2    78  GLU78       0.0838
     55  CD         4.8880    0.7660   36.4370 C.2    78  GLU78       0.3877
     56  OE1        4.7780    0.3470   35.2570 O.co2  78  GLU78      -0.2406
     57  OE2        4.3660    1.8340   36.8420 O.co2  78  GLU78      -0.2406
     58  N          9.0380   -1.9240   37.2190 N.am   79  TYR79      -0.1957
     59  CA        10.3610   -1.3170   37.1460 C.3    79  TYR79       0.1771
     60  C         10.3550   -0.2010   36.1270 C.2    79  TYR79       0.2619
     61  O          9.9510   -0.4190   34.9710 O.2    79  TYR79      -0.2715
     62  CB        11.4410   -2.3700   36.8480 C.3    79  TYR79       0.0574
     63  CG        12.8050   -1.7930   36.5360 C.ar   79  TYR79      -0.0198
     64  CD1       13.5960   -1.2300   37.5390 C.ar   79  TYR79      -0.0009
     65  CD2       13.3180   -1.8320   35.2450 C.ar   79  TYR79      -0.0009
     66  CE1       14.8490   -0.6860   37.2510 C.ar   79  TYR79       0.0417
     67  CE2       14.5850   -1.3310   34.9550 C.ar   79  TYR79       0.0417
     68  CZ        15.3360   -0.7340   35.9550 C.ar   79  TYR79       0.1957
     69  OH        16.5930   -0.2540   35.6490 O.3    79  TYR79      -0.2866
     70  N         10.7550    1.0180   36.5740 N.am   80  LEU80      -0.1964
     71  CA        10.8530    2.2110   35.7100 C.3    80  LEU80       0.1713
     72  C         12.3280    2.4050   35.4560 C.2    80  LEU80       0.2458
     73  O         13.0850    2.4980   36.4040 O.2    80  LEU80      -0.2730
     74  CB        10.1310    3.4590   36.2790 C.3    80  LEU80       0.0310
     75  CG         8.6490    3.2590   36.6810 C.3    80  LEU80       0.0022
     76  CD1        8.0230    4.5550   37.1320 C.3    80  LEU80       0.0001
     77  CD2        7.8260    2.6940   35.5360 C.3    80  LEU80       0.0001
     78  N         12.7560    2.2850   34.1900 N.am   81  PRO81      -0.2716
     79  CA        14.1990    2.1990   33.8770 C.3    81  PRO81       0.1536
     80  C         15.0970    3.4410   33.9080 C.2    81  PRO81       0.2599
     81  O         16.3180    3.2790   33.7880 O.2    81  PRO81      -0.2715
     82  CB        14.1780    1.6700   32.4430 C.3    81  PRO81       0.0310
     83  CG        12.9350    2.2410   31.8800 C.3    81  PRO81       0.0237
     84  CD        11.9440    2.0370   32.9810 C.3    81  PRO81       0.0939
     85  N         14.5360    4.6510   33.9490 N.am   82  TYR82      -0.1960
     86  CA        15.3890    5.8300   33.8840 C.3    82  TYR82       0.1771
     87  C         15.6830    6.4870   35.2580 C.2    82  TYR82       0.2620
     88  O         16.3820    7.5000   35.3130 O.2    82  TYR82      -0.2715
     89  CB        14.8390    6.8240   32.8660 C.3    82  TYR82       0.0574
     90  CG        14.8290    6.2260   31.4840 C.ar   82  TYR82      -0.0198
     91  CD1       15.9970    6.1330   30.7360 C.ar   82  TYR82      -0.0009
     92  CD2       13.6590    5.7150   30.9350 C.ar   82  TYR82      -0.0009
     93  CE1       16.0030    5.5520   29.4730 C.ar   82  TYR82       0.0417
     94  CE2       13.6520    5.1190   29.6740 C.ar   82  TYR82       0.0417
     95  CZ        14.8310    5.0340   28.9450 C.ar   82  TYR82       0.1957
     96  OH        14.8600    4.4290   27.7020 O.3    82  TYR82      -0.2866
     97  N         15.2390    5.8580   36.3360 N.am   83  GLY83      -0.1940
     98  CA        15.5220    6.3210   37.6830 C.3    83  GLY83       0.2014
     99  C         14.7250    7.5120   38.1360 C.2    83  GLY83       0.2639
    100  O         13.6840    7.8280   37.5430 O.2    83  GLY83      -0.2714
    101  N         15.2150    8.1870   39.2090 N.am   84  SER84      -0.1949
    102  CA        14.5310    9.3710   39.7180 C.3    84  SER84       0.1924
    103  C         14.6970   10.5270   38.7700 C.2    84  SER84       0.2314
    104  O         15.6930   10.5940   38.0230 O.2    84  SER84      -0.2863
    105  CB        14.9610    9.7240   41.1400 C.3    84  SER84       0.2116
    106  OG        16.1240   10.5340   41.1700 O.3    84  SER84      -0.2180
    107  N         17.8780   12.4550   39.3200 N.3    87  ASP87      -0.1239
    108  CA        19.0610   11.9460   38.6180 C.3    87  ASP87       0.1674
    109  C         18.9840   12.1390   37.1220 C.2    87  ASP87       0.2266
    110  O         19.9830   12.5240   36.5290 O.2    87  ASP87      -0.2867
    111  CB        19.3210   10.4590   38.9320 C.3    87  ASP87       0.1410
    112  CG        19.6770   10.1480   40.3710 C.2    87  ASP87       0.3668
    113  OD1       20.2100   11.0450   41.0590 O.co2  87  ASP87      -0.2456
    114  OD2       19.4280    9.0110   40.8070 O.co2  87  ASP87      -0.2456
    115  N         13.3490   13.5740   43.8590 N.3   128  ARG128     -0.1231
    116  CA        13.9900   12.2970   44.2030 C.3   128  ARG128      0.1694
    117  C         12.9690   11.1770   44.3510 C.2   128  ARG128      0.2592
    118  O         13.3430    9.9980   44.3020 O.2   128  ARG128     -0.2718
    119  CB        14.8730   12.4120   45.4650 C.3   128  ARG128      0.0321
    120  CG        14.1060   12.6010   46.7740 C.3   128  ARG128      0.0489
    121  CD        14.9860   12.5950   48.0040 C.3   128  ARG128      0.2205
    122  NE        14.3310   13.3700   49.0560 N.pl3 128  ARG128     -0.0865
    123  CZ        13.5290   12.8900   50.0030 C.cat 128  ARG128      0.5346
    124  NH1       13.2900   11.5830   50.0870 N.pl3 128  ARG128      0.1354
    125  NH2       12.9790   13.7110   50.8890 N.pl3 128  ARG128      0.1354
    126  N         11.6860   11.5390   44.5450 N.am  129  ASN129     -0.1974
    127  CA        10.5780   10.5920   44.7190 C.3   129  ASN129      0.1688
    128  C          9.6890   10.4720   43.4710 C.2   129  ASN129      0.2292
    129  O          8.5670    9.9590   43.5530 O.2   129  ASN129     -0.2864
    130  CB         9.7680   10.9560   45.9670 C.3   129  ASN129      0.1181
    131  CG        10.5980   10.8090   47.2080 C.2   129  ASN129      0.2629
    132  OD1       11.3800    9.8710   47.3570 O.2   129  ASN129     -0.2716
    133  ND2       10.5110   11.7620   48.0930 N.am  129  ASN129     -0.0877
    134  N          9.8100    9.0380   39.5380 N.3   131  LEU131     -0.1245
    135  CA        10.5330    8.1380   38.6440 C.3   131  LEU131      0.1561
    136  C         10.2110    8.4190   37.1920 C.2   131  LEU131      0.2260
    137  O          9.1180    8.8770   36.8710 O.2   131  LEU131     -0.2867
    138  CB        10.2140    6.6860   38.9780 C.3   131  LEU131      0.0270
    139  CG        10.7530    6.1570   40.2990 C.3   131  LEU131      0.0019
    140  CD1       10.0110    4.8950   40.7030 C.3   131  LEU131      0.0001
    141  CD2       12.2310    5.8580   40.1960 C.3   131  LEU131      0.0001
    142  N          6.9440    7.8550   42.4940 N.3   141  GLY141     -0.1210
    143  CA         7.5350    6.5470   42.7370 C.3   141  GLY141      0.1956
    144  C          7.6620    6.0380   44.1360 C.2   141  GLY141      0.2611
    145  O          8.0650    4.8930   44.3100 O.2   141  GLY141     -0.2717
    146  N          7.3690    6.8570   45.1340 N.am  142  ASP142     -0.1973
    147  CA         7.4760    6.4370   46.5250 C.3   142  ASP142      0.1709
    148  C          6.3610    7.0250   47.3470 C.2   142  ASP142      0.2293
    149  O          6.0730    8.2030   47.2040 O.2   142  ASP142     -0.2864
    150  CB         8.8390    6.7670   47.1400 C.3   142  ASP142      0.1436
    151  CG         9.0390    6.0380   48.4620 C.2   142  ASP142      0.3671
    152  OD1        9.4520    4.8560   48.4310 O.co2 142  ASP142     -0.2456
    153  OD2        8.7390    6.6320   49.5220 O.co2 142  ASP142     -0.2456
@<TRIPOS>BOND
     1    96    95    1
     2    95    93   ar
     3    95    94   ar
     4    93    91   ar
     5    94    92   ar
     6    91    90   ar
     7    92    90   ar
     8    90    89    1
     9    83    82    1
    10    83    84    1
    11    82    79    1
    12    89    86    1
    13    84    78    1
    14    81    80    2
    15    79    80    1
    16    79    78    1
    17    86    85    1
    18    86    87    1
    19    80    85   am
    20    78    72   am
    21    67    65   ar
    22    67    68   ar
    23    61    60    2
    24    65    63   ar
    25    56    55   ar
    26    87    88    2
    27    87    97   am
    28    72    71    1
    29    72    73    2
    30    77    75    1
    31    69    68    1
    32    71    74    1
    33    71    70    1
    34    68    66   ar
    35    60    70   am
    36    60    59    1
    37    74    75    1
    38    97    98    1
    39    55    57   ar
    40    55    54    1
    41   110   109    2
    42    63    62    1
    43    63    64   ar
    44    75    76    1
    45    62    59    1
    46   137   136    2
    47   109   108    1
    48    59    58    1
    49   136   135    1
    50    58    51   am
    51    53    54    2
    52    53    50    1
    53    66    64   ar
    54   100    99    2
    55    98    99    1
    56     8     7    2
    57   104   103    2
    58    99   101   am
    59    50    51    1
    60    50    49    1
    61    51    52    2
    62   108   111    1
    63   108   107    1
    64   135   138    1
    65   135   134    1
    66   103   102    1
    67     7     9   am
    68     7     6    1
    69   111   112    1
    70   138   139    1
    71   101   102    1
    72    49    43   am
    73     6     5    1
    74   102   105    1
    75    35    34    1
    76    35    36    1
    77    35    38    1
    78   141   139    1
    79   139   140    1
    80    44    43    2
    81    36    37    2
    82    17    15    1
    83   112   114   ar
    84   112   113   ar
    85     5     2    1
    86    43    42    1
    87    40    38    1
    88    29    30    1
    89    38    39    1
    90     1     2    1
    91   105   106    1
    92    16    15    1
    93     2     3    1
    94    33    30    1
    95    15    14    1
    96    30    31    1
    97    42    45    1
    98    42    41    1
    99    45    46    1
   100   142   143    1
   101     4     3    2
   102   143   144    1
   103    14    11    1
   104    31    32    2
   105    11    10    1
   106    11    12    1
   107   128   129    2
   108   128   127    1
   109    46    47    1
   110   115   116    1
   111    13    12    2
   112   144   145    2
   113   144   146   am
   114   116   117    1
   115   116   119    1
   116   118   117    2
   117    12    18   am
   118   117   126   am
   119    47    48    1
   120   126   127    1
   121   127   130    1
   122    27    26    1
   123   146   147    1
   124   119   120    1
   125    18    19    1
   126    25    24    2
   127   130   131    1
   128    24    23    1
   129    26    23    1
   130    26    28    1
   131   147   150    1
   132   147   148    1
   133    19    20    1
   134   120   121    1
   135    23    22    1
   136   150   151    1
   137   149   148    2
   138   131   132    2
   139   131   133   am
   140    20    21    2
   141   121   122    1
   142   152   151   ar
   143   151   153   ar
   144   122   123    2
   145   123   124    1
   146   123   125    1
