@<TRIPOS>MOLECULE
tmp/4c62B00.pdb
 179 170 0 0 0
SMALL
GASTEIGER

@<TRIPOS>ATOM
      1  N         -8.3490  -36.0040   25.9770 N.3    11  GLN11      -0.1245
      2  CA        -9.6180  -35.6820   25.3240 C.3    11  GLN11       0.1566
      3  C         -9.4310  -34.6400   24.2540 C.2    11  GLN11       0.2260
      4  O         -8.4300  -33.9300   24.2270 O.2    11  GLN11      -0.2867
      5  CB       -10.6900  -35.2300   26.3380 C.3    11  GLN11       0.0367
      6  CG       -10.4350  -33.9160   27.0720 C.3    11  GLN11       0.0905
      7  CD       -11.5010  -33.6110   28.1350 C.2    11  GLN11       0.2608
      8  OE1      -11.5660  -34.2650   29.1780 O.2    11  GLN11      -0.2717
      9  NE2      -12.3500  -32.6210   27.8660 N.am   11  GLN11      -0.0878
     10  N        -10.3920  -31.0740   22.7110 N.3    13  LEU13      -0.1231
     11  CA       -10.7970  -29.7800   23.2290 C.3    13  LEU13       0.1696
     12  C        -11.6270  -28.9650   22.2210 C.2    13  LEU13       0.2632
     13  O        -12.4260  -28.1280   22.6440 O.2    13  LEU13      -0.2714
     14  CB        -9.5700  -28.9960   23.6910 C.3    13  LEU13       0.0284
     15  CG        -8.7740  -29.6060   24.8570 C.3    13  LEU13       0.0019
     16  CD1       -7.6170  -28.7120   25.3040 C.3    13  LEU13       0.0001
     17  CD2       -9.6840  -29.8810   26.0410 C.3    13  LEU13       0.0001
     18  N        -11.4420  -29.2060   20.9170 N.am   14  GLY14      -0.1718
     19  CA       -12.2990  -28.6240   19.8560 C.2    14  GLY14       0.1480
     20  C        -11.7820  -28.7250   18.4170 C.2    14  GLY14       0.2820
     21  O        -10.7360  -29.3220   18.1790 O.2    14  GLY14      -0.2669
     22  N        -12.5330  -28.1680   17.4520 N.am   15  LYS15      -0.1943
     23  CA       -12.1630  -28.2080   16.0120 C.3    15  LYS15       0.1599
     24  C        -11.9040  -26.7990   15.4530 C.2    15  LYS15       0.2287
     25  O        -11.2710  -25.9570   16.1040 O.2    15  LYS15      -0.2864
     26  CB       -13.2510  -28.9090   15.1780 C.3    15  LYS15       0.0298
     27  CG       -12.8460  -29.2600   13.7410 C.3    15  LYS15       0.0038
     28  CD       -11.6140  -30.1620   13.7160 C.3    15  LYS15       0.0206
     29  CE       -11.4070  -30.7920   12.3640 C.3    15  LYS15       0.1093
     30  NZ       -10.2510  -31.7250   12.4170 N.3    15  LYS15      -0.1314
     31  N         -7.6690  -29.0790   18.4470 N.3    18  VAL18      -0.1245
     32  CA        -6.9050  -28.9330   19.6850 C.3    18  VAL18       0.1561
     33  C         -7.2510  -30.0870   20.6230 C.2    18  VAL18       0.2260
     34  O         -8.4330  -30.3830   20.8320 O.2    18  VAL18      -0.2867
     35  CB        -7.2400  -27.6190   20.4120 C.3    18  VAL18       0.0252
     36  CG1       -6.3690  -27.4480   21.6500 C.3    18  VAL18       0.0019
     37  CG2       -7.0530  -26.4310   19.4920 C.3    18  VAL18       0.0019
     38  N         -6.2450  -32.2580   24.5370 N.3    20  MET20      -0.1245
     39  CA        -5.5910  -32.3140   25.8460 C.3    20  MET20       0.1570
     40  C         -4.7350  -33.5650   25.9230 C.2    20  MET20       0.2261
     41  O         -5.2300  -34.6760   25.7190 O.2    20  MET20      -0.2867
     42  CB        -6.6290  -32.3720   26.9650 C.3    20  MET20       0.0387
     43  CG        -6.0620  -32.0990   28.3500 C.3    20  MET20       0.0595
     44  SD        -7.0980  -32.8140   29.6380 S.3    20  MET20      -0.1393
     45  CE        -8.6050  -31.8810   29.4120 C.3    20  MET20       0.0692
     46  N         -1.7850  -28.4700   26.0990 N.3    35  ALA35      -0.1245
     47  CA        -2.7270  -28.3420   24.9970 C.3    35  ALA35       0.1562
     48  C         -1.9320  -28.5120   23.7260 C.2    35  ALA35       0.2260
     49  O         -0.7920  -28.0440   23.6480 O.2    35  ALA35      -0.2867
     50  CB        -3.4010  -26.9820   25.0330 C.3    35  ALA35       0.0290
     51  N         -2.1060  -28.4170   19.4430 N.3    37  LYS37      -0.1245
     52  CA        -2.8150  -27.9420   18.2540 C.3    37  LYS37       0.1561
     53  C         -2.1600  -28.5130   17.0000 C.2    37  LYS37       0.2260
     54  O         -0.9290  -28.5810   16.9030 O.2    37  LYS37      -0.2867
     55  CB        -2.8190  -26.4060   18.1930 C.3    37  LYS37       0.0271
     56  CG        -3.7100  -25.8420   17.0890 C.3    37  LYS37       0.0035
     57  CD        -3.8610  -24.3320   17.1970 C.3    37  LYS37       0.0206
     58  CE        -4.7320  -23.7510   16.0920 C.3    37  LYS37       0.1093
     59  NZ        -4.8700  -22.2780   16.2560 N.3    37  LYS37      -0.1314
     60  N         -1.4030  -17.0670   26.3860 N.3    60  VAL60      -0.1245
     61  CA        -1.1060  -18.4830   26.6420 C.3    60  VAL60       0.1561
     62  C          0.3340  -18.8320   26.2780 C.2    60  VAL60       0.2260
     63  O          0.8390  -18.4280   25.2360 O.2    60  VAL60      -0.2867
     64  CB        -2.1010  -19.4180   25.9270 C.3    60  VAL60       0.0252
     65  CG1       -2.0590  -19.2190   24.4210 C.3    60  VAL60       0.0019
     66  CG2       -1.8420  -20.8690   26.3020 C.3    60  VAL60       0.0019
     67  N          1.2960  -26.1080   23.9650 N.3    71  MET71      -0.1230
     68  CA         1.1500  -24.9580   24.8550 C.3    71  MET71       0.1702
     69  C          0.6530  -25.3880   26.2200 C.2    71  MET71       0.2592
     70  O          0.1830  -26.5190   26.4050 O.2    71  MET71      -0.2718
     71  CB         0.1530  -23.9530   24.2820 C.3    71  MET71       0.0401
     72  CG         0.3140  -23.6900   22.8020 C.3    71  MET71       0.0596
     73  SD        -1.0780  -22.8030   22.1020 S.3    71  MET71      -0.1393
     74  CE        -2.0170  -24.1950   21.4860 C.3    71  MET71       0.0692
     75  N          0.7400  -24.4550   27.1680 N.am   72  GLU72      -0.1966
     76  CA         0.2520  -24.6980   28.5060 C.3    72  GLU72       0.1733
     77  C         -1.2440  -24.9840   28.3890 C.2    72  GLU72       0.2616
     78  O         -1.9160  -24.5240   27.4670 O.2    72  GLU72      -0.2715
     79  CB         0.5610  -23.5280   29.4610 C.3    72  GLU72       0.0429
     80  CG        -0.3270  -22.3040   29.2640 C.3    72  GLU72       0.1163
     81  CD        -0.0960  -21.1670   30.2680 C.2    72  GLU72       0.3649
     82  OE1        0.4300  -21.4090   31.3850 O.co2  72  GLU72      -0.2457
     83  OE2       -0.4510  -20.0150   29.9120 O.co2  72  GLU72      -0.2457
     84  N         -1.7380  -25.8070   29.2950 N.am   73  TYR73      -0.1960
     85  CA        -3.1340  -26.1650   29.3130 C.3    73  TYR73       0.1771
     86  C         -3.7880  -25.3140   30.3760 C.2    73  TYR73       0.2619
     87  O         -3.4270  -25.3990   31.5550 O.2    73  TYR73      -0.2715
     88  CB        -3.3200  -27.6400   29.6380 C.3    73  TYR73       0.0574
     89  CG        -4.7480  -27.9940   29.9230 C.ar   73  TYR73      -0.0198
     90  CD1       -5.6820  -27.9920   28.9090 C.ar   73  TYR73      -0.0009
     91  CD2       -5.1630  -28.3120   31.2120 C.ar   73  TYR73      -0.0009
     92  CE1       -6.9990  -28.3040   29.1570 C.ar   73  TYR73       0.0417
     93  CE2       -6.4760  -28.6360   31.4770 C.ar   73  TYR73       0.0417
     94  CZ        -7.3960  -28.6320   30.4420 C.ar   73  TYR73       0.1957
     95  OH        -8.7280  -28.9370   30.6740 O.3    73  TYR73      -0.2866
     96  N         -4.7370  -24.4830   29.9480 N.am   74  LEU74      -0.1964
     97  CA        -5.4890  -23.6480   30.8690 C.3    74  LEU74       0.1713
     98  C         -6.7990  -24.3620   31.1910 C.2    74  LEU74       0.2458
     99  O         -7.6150  -24.5990   30.3060 O.2    74  LEU74      -0.2730
    100  CB        -5.7040  -22.2710   30.2720 C.3    74  LEU74       0.0310
    101  CG        -4.3770  -21.5700   29.9860 C.3    74  LEU74       0.0022
    102  CD1       -4.6070  -20.2480   29.2890 C.3    74  LEU74       0.0001
    103  CD2       -3.5960  -21.3450   31.2690 C.3    74  LEU74       0.0001
    104  N         -6.9760  -24.7440   32.4650 N.am   75  PRO75      -0.2716
    105  CA        -7.9570  -25.7480   32.9060 C.3    75  PRO75       0.1536
    106  C         -9.4680  -25.4360   32.8000 C.2    75  PRO75       0.2599
    107  O        -10.2770  -26.3780   32.8210 O.2    75  PRO75      -0.2715
    108  CB        -7.5880  -25.9550   34.3800 C.3    75  PRO75       0.0310
    109  CG        -6.9010  -24.6990   34.7900 C.3    75  PRO75       0.0237
    110  CD        -6.1260  -24.2890   33.5850 C.3    75  PRO75       0.0939
    111  N         -9.8520  -24.1560   32.7240 N.am   76  TYR76      -0.1960
    112  CA       -11.2780  -23.7800   32.7610 C.3    76  TYR76       0.1771
    113  C        -11.9060  -23.4500   31.4140 C.2    76  TYR76       0.2620
    114  O        -13.1150  -23.2680   31.3320 O.2    76  TYR76      -0.2715
    115  CB       -11.4970  -22.6560   33.7600 C.3    76  TYR76       0.0574
    116  CG       -11.2570  -23.1370   35.1630 C.ar   76  TYR76      -0.0198
    117  CD1      -12.1920  -23.9510   35.8090 C.ar   76  TYR76      -0.0009
    118  CD2      -10.0800  -22.8140   35.8430 C.ar   76  TYR76      -0.0009
    119  CE1      -11.9660  -24.4080   37.0960 C.ar   76  TYR76       0.0417
    120  CE2       -9.8530  -23.2710   37.1340 C.ar   76  TYR76       0.0417
    121  CZ       -10.7980  -24.0700   37.7520 C.ar   76  TYR76       0.1957
    122  OH       -10.5750  -24.5550   39.0220 O.3    76  TYR76      -0.2866
    123  N        -11.0990  -23.4000   30.3580 N.am   77  GLY77      -0.1940
    124  CA       -11.6320  -23.3310   28.9990 C.3    77  GLY77       0.2014
    125  C        -11.9270  -21.9370   28.5040 C.2    77  GLY77       0.2639
    126  O        -11.3350  -20.9720   28.9870 O.2    77  GLY77      -0.2714
    127  N        -12.7950  -21.8220   27.5040 N.am   78  SER78      -0.1949
    128  CA       -13.0110  -20.5150   26.8970 C.3    78  SER78       0.1924
    129  C        -13.8360  -19.6330   27.8220 C.2    78  SER78       0.2314
    130  O        -14.7630  -20.1040   28.5050 O.2    78  SER78      -0.2863
    131  CB       -13.6770  -20.6100   25.5310 C.3    78  SER78       0.2116
    132  OG       -15.0690  -20.8340   25.6550 O.3    78  SER78      -0.2180
    133  N        -17.5390  -19.8470   27.3370 N.3    81  ASP81      -0.1239
    134  CA       -18.2490  -20.9500   27.9850 C.3    81  ASP81       0.1674
    135  C        -18.2880  -20.7850   29.5080 C.2    81  ASP81       0.2266
    136  O        -19.3050  -21.0820   30.1400 O.2    81  ASP81      -0.2867
    137  CB       -17.6310  -22.3170   27.6040 C.3    81  ASP81       0.1410
    138  CG       -18.0450  -22.7960   26.2110 C.2    81  ASP81       0.3668
    139  OD1      -19.0120  -22.2500   25.6350 O.co2  81  ASP81      -0.2456
    140  OD2      -17.3920  -23.7260   25.6930 O.co2  81  ASP81      -0.2456
    141  N        -14.5530  -16.3450   22.6700 N.3   122  ARG122     -0.1231
    142  CA       -14.2330  -17.7620   22.4590 C.3   122  ARG122      0.1694
    143  C        -12.7480  -18.0400   22.2100 C.2   122  ARG122      0.2592
    144  O        -12.3450  -19.1810   22.1960 O.2   122  ARG122     -0.2718
    145  CB       -15.0450  -18.3480   21.3180 C.3   122  ARG122      0.0321
    146  CG       -14.5440  -17.9320   19.9700 C.3   122  ARG122      0.0489
    147  CD       -15.3010  -18.6090   18.8560 C.3   122  ARG122      0.2205
    148  NE       -15.7650  -17.5760   17.9400 N.pl3 122  ARG122     -0.0865
    149  CZ       -14.9980  -16.9510   17.0290 C.cat 122  ARG122      0.5346
    150  NH1      -13.7010  -17.2700   16.8490 N.pl3 122  ARG122      0.1354
    151  NH2      -15.5440  -15.9850   16.2770 N.pl3 122  ARG122      0.1354
    152  N        -11.9480  -17.0070   21.9820 N.am  123  ASN123     -0.1974
    153  CA       -10.4880  -17.1510   21.9110 C.3   123  ASN123      0.1688
    154  C         -9.7810  -16.6130   23.1390 C.2   123  ASN123      0.2292
    155  O         -8.6160  -16.2420   23.0690 O.2   123  ASN123     -0.2864
    156  CB        -9.9810  -16.4630   20.6660 C.3   123  ASN123      0.1181
    157  CG       -10.6290  -17.0200   19.4440 C.2   123  ASN123      0.2629
    158  OD1      -10.9840  -18.1880   19.4180 O.2   123  ASN123     -0.2716
    159  ND2      -10.8240  -16.2040   18.4430 N.am  123  ASN123     -0.0877
    160  N         -9.0010  -17.8250   27.0440 N.3   125  LEU125     -0.1245
    161  CA        -9.0290  -18.9430   27.9680 C.3   125  LEU125      0.1561
    162  C         -8.9940  -18.4540   29.4030 C.2   125  LEU125      0.2260
    163  O         -8.5270  -17.3450   29.6830 O.2   125  LEU125     -0.2867
    164  CB        -7.8250  -19.8510   27.7170 C.3   125  LEU125      0.0270
    165  CG        -7.8380  -20.5060   26.3460 C.3   125  LEU125      0.0019
    166  CD1       -6.4890  -21.1420   26.0930 C.3   125  LEU125      0.0001
    167  CD2       -8.9510  -21.5350   26.2620 C.3   125  LEU125      0.0001
    168  N         -6.0240  -16.7940   23.8840 N.3   135  GLY135     -0.1210
    169  CA        -5.7390  -18.2190   23.7270 C.3   135  GLY135      0.1956
    170  C         -5.6010  -18.7950   22.3280 C.2   135  GLY135      0.2611
    171  O         -5.4360  -20.0230   22.1930 O.2   135  GLY135     -0.2717
    172  N         -5.6660  -17.9460   21.2960 N.am  136  ASP136     -0.1973
    173  CA        -5.4880  -18.4150   19.9170 C.3   136  ASP136      0.1709
    174  C         -4.9980  -17.2840   19.0400 C.2   136  ASP136      0.2293
    175  O         -5.4930  -16.1890   19.1370 O.2   136  ASP136     -0.2864
    176  CB        -6.7920  -18.9750   19.3540 C.3   136  ASP136      0.1436
    177  CG        -6.6270  -19.5930   17.9610 C.2   136  ASP136      0.3671
    178  OD1       -5.8620  -19.1160   17.1120 O.co2 136  ASP136     -0.2456
    179  OD2       -7.3030  -20.5720   17.6780 O.co2 136  ASP136     -0.2456
@<TRIPOS>BOND
     1    29    30    1
     2    29    28    1
     3    28    27    1
     4    27    26    1
     5    26    23    1
     6    24    23    1
     7    24    25    2
     8    23    22    1
     9    58    59    1
    10    58    57    1
    11   151   149    1
    12   150   149    1
    13    54    53    2
    14    53    52    1
    15   149   148    2
    16    56    57    1
    17    56    55    1
    18   178   177   ar
    19    22    20   am
    20   179   177   ar
    21   148   147    1
    22   177   176    1
    23    21    20    2
    24    55    52    1
    25    52    51    1
    26    20    19    1
    27   159   157   am
    28    31    32    1
    29   147   146    1
    30   174   175    2
    31   174   173    1
    32   176   173    1
    33   158   157    2
    34   157   156    1
    35    37    35    1
    36    32    35    1
    37    32    33    1
    38    19    18    2
    39   173   172    1
    40   146   145    1
    41    35    36    1
    42    33    34    2
    43   156   153    1
    44    18    12    1
    45   172   170   am
    46   145   142    1
    47    74    73    1
    48   153   152    1
    49   153   154    1
    50   152   143   am
    51    73    72    1
    52   171   170    2
    53   144   143    2
    54   143   142    1
    55    12    13    2
    56    12    11    1
    57   170   169    1
    58   142   141    1
    59    10    11    1
    60    72    71    1
    61   155   154    2
    62    11    14    1
    63    49    48    2
    64    14    15    1
    65    48    47    1
    66   169   168    1
    67    67    68    1
    68     4     3    2
    69     3     2    1
    70    71    68    1
    71    65    64    1
    72    38    39    1
    73    68    69    1
    74    15    16    1
    75    15    17    1
    76    47    50    1
    77    47    46    1
    78    63    62    2
    79     2     1    1
    80     2     5    1
    81   131   132    1
    82   131   128    1
    83   139   138   ar
    84   140   138   ar
    85    41    40    2
    86    39    40    1
    87    39    42    1
    88    64    66    1
    89    64    61    1
    90   166   165    1
    91   138   137    1
    92    69    70    2
    93    69    75   am
    94   167   165    1
    95    62    61    1
    96     5     6    1
    97   165   164    1
    98    60    61    1
    99   128   127    1
   100   128   129    1
   101    42    43    1
   102   160   161    1
   103     6     7    1
   104    75    76    1
   105   133   134    1
   106    78    77    2
   107   127   125   am
   108   137   134    1
   109   164   161    1
   110   129   130    2
   111     9     7   am
   112   161   162    1
   113   134   135    1
   114     7     8    2
   115    43    44    1
   116    77    76    1
   117    77    84   am
   118   125   126    2
   119   125   124    1
   120    76    79    1
   121    90    92   ar
   122    90    89   ar
   123   124   123    1
   124    92    94   ar
   125    80    79    1
   126    80    81    1
   127   102   101    1
   128    84    85    1
   129    85    88    1
   130    85    86    1
   131   162   163    2
   132    45    44    1
   133   135   136    2
   134    88    89    1
   135    83    81   ar
   136    89    91   ar
   137    96    86   am
   138    96    97    1
   139   101   100    1
   140   101   103    1
   141    81    82   ar
   142   100    97    1
   143    99    98    2
   144   123   113   am
   145    86    87    2
   146    94    95    1
   147    94    93   ar
   148    97    98    1
   149    98   104   am
   150    91    93   ar
   151   114   113    2
   152   113   112    1
   153   104   105    1
   154   104   110    1
   155   111   112    1
   156   111   106   am
   157   112   115    1
   158   106   107    2
   159   106   105    1
   160   105   108    1
   161   110   109    1
   162   115   116    1
   163   108   109    1
   164   116   117   ar
   165   116   118   ar
   166   117   119   ar
   167   118   120   ar
   168   119   121   ar
   169   120   121   ar
   170   121   122    1
