@<TRIPOS>MOLECULE
tmp/4c66A00.pdb
 143 139 0 0 0
SMALL
GASTEIGER

@<TRIPOS>ATOM
      1  N         31.9620   44.8640    1.0340 N.3    40  TRP40      -0.1228
      2  CA        32.1960   46.2150    1.5170 C.3    40  TRP40       0.1722
      3  C         30.9720   47.0960    1.7520 C.2    40  TRP40       0.2437
      4  O         30.9570   47.8280    2.7240 O.2    40  TRP40      -0.2733
      5  CB        33.2620   46.9510    0.6720 C.3    40  TRP40       0.0563
      6  CG        32.8560   47.1960   -0.7560 C.ar   40  TRP40       0.0003
      7  CD1       33.1170   46.3830   -1.8560 C.ar   40  TRP40       0.0946
      8  CD2       32.0390   48.3080   -1.2840 C.ar   40  TRP40       0.0152
      9  NE1       32.5730   46.9170   -2.9970 N.ar   40  TRP40      -0.2442
     10  CE2       31.9010   48.0680   -2.7190 C.ar   40  TRP40       0.0810
     11  CE3       31.4490   49.4430   -0.7320 C.ar   40  TRP40       0.0012
     12  CZ2       31.1890   48.9240   -3.5350 C.ar   40  TRP40       0.0191
     13  CZ3       30.7340   50.2980   -1.5760 C.ar   40  TRP40       0.0001
     14  CH2       30.6290   50.0540   -2.9400 C.ar   40  TRP40       0.0015
     15  N         29.9060   47.0020    0.9350 N.am   41  PRO41      -0.2718
     16  CA        28.7730   47.8640    1.3290 C.3    41  PRO41       0.1535
     17  C         28.1070   47.3870    2.6170 C.2    41  PRO41       0.2598
     18  O         27.3250   48.1260    3.2080 O.2    41  PRO41      -0.2715
     19  CB        27.7570   47.6870    0.1740 C.3    41  PRO41       0.0310
     20  CG        28.5470   47.0390   -0.9300 C.3    41  PRO41       0.0237
     21  CD        29.5730   46.2010   -0.2490 C.3    41  PRO41       0.0939
     22  N         28.4130   46.1610    3.0390 N.am   42  PHE42      -0.1974
     23  CA        27.6590   45.5530    4.1300 C.3    42  PHE42       0.1639
     24  C         28.4550   45.5050    5.4010 C.2    42  PHE42       0.2290
     25  O         28.0270   44.9100    6.3810 O.2    42  PHE42      -0.2864
     26  CB        27.1420   44.1800    3.7290 C.3    42  PHE42       0.0560
     27  CG        26.3430   44.2010    2.4760 C.ar   42  PHE42      -0.0200
     28  CD1       25.0130   44.6470    2.4910 C.ar   42  PHE42      -0.0042
     29  CD2       26.9100   43.8180    1.2600 C.ar   42  PHE42      -0.0042
     30  CE1       24.2750   44.6990    1.3280 C.ar   42  PHE42      -0.0003
     31  CE2       26.1600   43.8600    0.0920 C.ar   42  PHE42      -0.0003
     32  CZ        24.8460   44.3010    0.1300 C.ar   42  PHE42      -0.0000
     33  N         29.3740   47.9370    7.4030 N.3    44  GLN44      -0.1245
     34  CA        29.0720   48.9550    8.3830 C.3    44  GLN44       0.1566
     35  C         27.6550   49.4090    8.0980 C.2    44  GLN44       0.2260
     36  O         27.1420   49.1440    7.0170 O.2    44  GLN44      -0.2867
     37  CB        29.9990   50.1470    8.2450 C.3    44  GLN44       0.0367
     38  CG        29.9320   50.8290    6.8930 C.3    44  GLN44       0.0905
     39  CD        30.6590   50.0200    5.8440 C.2    44  GLN44       0.2608
     40  OE1       31.7900   49.6250    6.0700 O.2    44  GLN44      -0.2717
     41  NE2       30.0050   49.7430    4.7140 N.am   44  GLN44      -0.0878
     42  N         24.6200   51.5270    6.8920 N.3    46  VAL46      -0.1231
     43  CA        24.4520   52.4230    5.7830 C.3    46  VAL46       0.1692
     44  C         24.4800   53.8660    6.2330 C.2    46  VAL46       0.2592
     45  O         23.6950   54.2910    7.1030 O.2    46  VAL46      -0.2718
     46  CB        23.1280   52.1650    5.0430 C.3    46  VAL46       0.0266
     47  CG1       22.9000   53.2900    4.0540 C.3    46  VAL46       0.0020
     48  CG2       23.1380   50.7960    4.3660 C.3    46  VAL46       0.0020
     49  N         25.3840   54.6290    5.6160 N.am   47  ASP47      -0.1974
     50  CA        25.5450   56.0300    5.9250 C.3    47  ASP47       0.1709
     51  C         24.7740   56.8200    4.8860 C.2    47  ASP47       0.2293
     52  O         25.2830   57.1470    3.8050 O.2    47  ASP47      -0.2864
     53  CB        27.0470   56.3970    5.9430 C.3    47  ASP47       0.1436
     54  CG        27.3160   57.8400    6.3620 C.2    47  ASP47       0.3671
     55  OD1       26.4040   58.7130    6.3600 O.co2  47  ASP47      -0.2456
     56  OD2       28.4840   58.1140    6.6870 O.co2  47  ASP47      -0.2456
     57  N         26.4300   60.3680    3.8250 N.3    50  LYS50      -0.1231
     58  CA        27.5420   60.2010    2.8780 C.3    50  LYS50       0.1693
     59  C         27.0620   59.8130    1.4750 C.2    50  LYS50       0.2591
     60  O         27.5390   60.3510    0.4840 O.2    50  LYS50      -0.2718
     61  CB        28.4870   59.1110    3.3970 C.3    50  LYS50       0.0285
     62  CG        29.8300   58.9640    2.6860 C.3    50  LYS50       0.0035
     63  CD        30.4080   57.5880    3.0130 C.3    50  LYS50       0.0206
     64  CE        31.9210   57.5800    3.0870 C.3    50  LYS50       0.1093
     65  NZ        32.4110   56.1740    3.1740 N.3    50  LYS50      -0.1314
     66  N         26.1280   58.8640    1.4100 N.am   51  LEU51      -0.1980
     67  CA        25.5440   58.3870    0.1630 C.3    51  LEU51       0.1596
     68  C         24.5380   59.3100   -0.4620 C.2    51  LEU51       0.2287
     69  O         24.0870   59.0520   -1.5860 O.2    51  LEU51      -0.2864
     70  CB        24.8400   57.0300    0.3920 C.3    51  LEU51       0.0297
     71  CG        25.8120   55.8960    0.7480 C.3    51  LEU51       0.0022
     72  CD1       25.0590   54.6800    1.2490 C.3    51  LEU51       0.0001
     73  CD2       26.6840   55.5440   -0.4770 C.3    51  LEU51       0.0001
     74  N         21.4270   59.6290    0.4680 N.3    53  LEU53      -0.1245
     75  CA        20.2290   58.8000    0.3430 C.3    53  LEU53       0.1561
     76  C         19.3650   59.1450    1.5220 C.2    53  LEU53       0.2260
     77  O         19.1000   58.2920    2.3750 O.2    53  LEU53      -0.2867
     78  CB        20.6000   57.3140    0.3290 C.3    53  LEU53       0.0270
     79  CG        21.3410   56.8740   -0.9390 C.3    53  LEU53       0.0019
     80  CD1       21.9080   55.4560   -0.8060 C.3    53  LEU53       0.0001
     81  CD2       20.4620   57.0250   -2.1810 C.3    53  LEU53       0.0001
     82  N         16.7970   56.6240    2.8860 N.3    56  TYR56      -0.1241
     83  CA        17.1390   55.2550    3.2610 C.3    56  TYR56       0.1605
     84  C         16.3950   54.8060    4.5440 C.2    56  TYR56       0.2264
     85  O         15.5340   53.8650    4.5420 O.2    56  TYR56      -0.2867
     86  CB        18.6720   55.0630    3.4030 C.3    56  TYR56       0.0534
     87  CG        18.9800   53.6360    3.6910 C.ar   56  TYR56      -0.0201
     88  CD1       19.0450   52.7150    2.6560 C.ar   56  TYR56      -0.0009
     89  CD2       19.0950   53.1700    5.0010 C.ar   56  TYR56      -0.0009
     90  CE1       19.2780   51.3800    2.8930 C.ar   56  TYR56       0.0417
     91  CE2       19.3180   51.8300    5.2540 C.ar   56  TYR56       0.0417
     92  CZ        19.3850   50.9220    4.1890 C.ar   56  TYR56       0.1957
     93  OH        19.6290   49.5840    4.4090 O.3    56  TYR56      -0.2866
     94  N         18.3550   45.2660    1.6830 N.3    95  CYS95      -0.1235
     95  CA        18.9720   45.5900    0.3970 C.3    95  CYS95       0.1677
     96  C         17.9810   45.4350   -0.7670 C.2    95  CYS95       0.2270
     97  O         17.8090   46.3260   -1.6000 O.2    95  CYS95      -0.2867
     98  CB        20.1860   44.6810    0.1720 C.3    95  CYS95       0.0956
     99  SG        21.2080   45.2650   -1.1820 S.3    95  CYS95      -0.0801
    100  N         15.0690   48.2070   -0.4480 N.3    98  TYR98      -0.1227
    101  CA        15.4240   49.5580   -0.8030 C.3    98  TYR98       0.1736
    102  C         15.7610   49.7000   -2.3030 C.2    98  TYR98       0.2595
    103  O         15.3360   50.6540   -2.9430 O.2    98  TYR98      -0.2718
    104  CB        16.5570   50.0730    0.1040 C.3    98  TYR98       0.0548
    105  CG        16.9140   51.5140   -0.2250 C.ar   98  TYR98      -0.0200
    106  CD1       16.0760   52.5670    0.1710 C.ar   98  TYR98      -0.0009
    107  CD2       18.0440   51.8160   -0.9820 C.ar   98  TYR98      -0.0009
    108  CE1       16.3660   53.8700   -0.1800 C.ar   98  TYR98       0.0417
    109  CE2       18.3530   53.1170   -1.3360 C.ar   98  TYR98       0.0417
    110  CZ        17.5120   54.1430   -0.9270 C.ar   98  TYR98       0.1957
    111  OH        17.8140   55.4440   -1.2760 O.3    98  TYR98      -0.2866
    112  N         16.5220   48.7510   -2.8420 N.am   99  ASN99      -0.1974
    113  CA        17.1140   48.8650   -4.1760 C.3    99  ASN99       0.1688
    114  C         16.2970   48.1610   -5.2710 C.2    99  ASN99       0.2292
    115  O         15.4400   47.3400   -4.9750 O.2    99  ASN99      -0.2864
    116  CB        18.5380   48.3380   -4.1030 C.3    99  ASN99       0.1181
    117  CG        19.3750   49.1340   -3.1260 C.2    99  ASN99       0.2629
    118  OD1       19.7320   50.2740   -3.4040 O.2    99  ASN99      -0.2716
    119  ND2       19.6700   48.5460   -1.9700 N.am   99  ASN99      -0.0877
    120  N         23.5080   47.1870   -9.0240 N.3   104  ASP104     -0.1225
    121  CA        24.7650   46.5090   -8.6620 C.3   104  ASP104      0.1805
    122  C         24.7230   45.9670   -7.2360 C.2   104  ASP104      0.2597
    123  O         25.2410   44.8750   -6.9670 O.2   104  ASP104     -0.2718
    124  CB        25.9570   47.4800   -8.7710 C.3   104  ASP104      0.1424
    125  CG        26.4810   47.6190  -10.1910 C.2   104  ASP104      0.3668
    126  OD1       26.0570   46.8440  -11.0810 O.co2 104  ASP104     -0.2456
    127  OD2       27.3390   48.5130  -10.3980 O.co2 104  ASP104     -0.2456
    128  N         24.1390   46.7510   -6.3350 N.am  105  ILE105     -0.1980
    129  CA        24.1130   46.4120   -4.9200 C.3   105  ILE105      0.1595
    130  C         23.3090   45.1290   -4.7090 C.2   105  ILE105      0.2287
    131  O         23.6590   44.3190   -3.8680 O.2   105  ILE105     -0.2864
    132  CB        23.6100   47.5780   -4.0310 C.3   105  ILE105      0.0276
    133  CG1       23.7300   47.2310   -2.5280 C.3   105  ILE105      0.0022
    134  CG2       22.1930   48.0110   -4.4040 C.3   105  ILE105      0.0022
    135  CD1       25.1270   46.7470   -2.1370 C.3   105  ILE105      0.0001
    136  N         25.4240   42.1740   -5.6880 N.3   108  MET108     -0.1245
    137  CA        26.3790   41.9510   -4.6010 C.3   108  MET108      0.1570
    138  C         25.7560   41.1980   -3.4130 C.2   108  MET108      0.2261
    139  O         26.3350   40.2190   -2.9050 O.2   108  MET108     -0.2867
    140  CB        26.9310   43.2900   -4.1410 C.3   108  MET108      0.0387
    141  CG        27.7020   44.0130   -5.2270 C.3   108  MET108      0.0595
    142  SD        28.1050   45.6970   -4.7830 S.3   108  MET108     -0.1393
    143  CE        29.6200   45.3810   -3.8740 C.3   108  MET108      0.0692
@<TRIPOS>BOND
     1   126   125   ar
     2   127   125   ar
     3   125   124    1
     4   120   121    1
     5   124   121    1
     6   121   122    1
     7   122   123    2
     8   122   128   am
     9   128   129    1
    10   136   137    1
    11   114   115    2
    12   114   113    1
    13   141   142    1
    14   141   140    1
    15   129   130    1
    16   129   132    1
    17   142   143    1
    18   130   131    2
    19   137   140    1
    20   137   138    1
    21   134   132    1
    22   113   116    1
    23   113   112    1
    24   116   117    1
    25   132   133    1
    26    12    14   ar
    27    12    10   ar
    28   138   139    2
    29   118   117    2
    30   117   119   am
    31     9    10   ar
    32     9     7   ar
    33   103   102    2
    34    14    13   ar
    35   112   102   am
    36    10     8   ar
    37   133   135    1
    38   102   101    1
    39    81    79    1
    40     7     6   ar
    41    97    96    2
    42    69    68    2
    43    13    11   ar
    44   109   107   ar
    45   109   110   ar
    46     8     6   ar
    47     8    11   ar
    48   111   110    1
    49    99    98    1
    50   107   105   ar
    51    79    80    1
    52    79    78    1
    53    20    21    1
    54    20    19    1
    55   110   108   ar
    56   101   100    1
    57   101   104    1
    58    96    95    1
    59     6     5    1
    60    73    71    1
    61    68    67    1
    62    21    15    1
    63   105   104    1
    64   105   106   ar
    65   108   106   ar
    66    31    32   ar
    67    31    29   ar
    68    32    30   ar
    69    67    70    1
    70    67    66    1
    71    98    95    1
    72    19    16    1
    73    78    75    1
    74    75    74    1
    75    75    76    1
    76    70    71    1
    77    95    94    1
    78    60    59    2
    79     5     2    1
    80    71    72    1
    81    15    16    1
    82    15     3   am
    83     1     2    1
    84    29    27   ar
    85    30    28   ar
    86    16    17    1
    87    66    59   am
    88    59    58    1
    89     2     3    1
    90    76    77    2
    91     3     4    2
    92    27    28   ar
    93    27    26    1
    94    17    22   am
    95    17    18    2
    96    88    90   ar
    97    88    87   ar
    98    62    63    1
    99    62    61    1
   100    58    61    1
   101    58    57    1
   102    82    83    1
   103    90    92   ar
   104    63    64    1
   105    22    23    1
   106    64    65    1
   107    83    86    1
   108    83    84    1
   109    86    87    1
   110    87    89   ar
   111    26    23    1
   112    52    51    2
   113    47    46    1
   114    23    24    1
   115    92    93    1
   116    92    91   ar
   117    48    46    1
   118    85    84    2
   119    41    39   am
   120    51    50    1
   121    89    91   ar
   122    46    43    1
   123    24    25    2
   124    49    50    1
   125    49    44   am
   126    43    44    1
   127    43    42    1
   128    39    40    2
   129    39    38    1
   130    50    53    1
   131    53    54    1
   132    44    45    2
   133    55    54   ar
   134    54    56   ar
   135    38    37    1
   136    36    35    2
   137    33    34    1
   138    35    34    1
   139    37    34    1
