@<TRIPOS>MOLECULE
tmp/4c67A00.pdb
 126 122 0 0 0
SMALL
GASTEIGER

@<TRIPOS>ATOM
      1  N         -3.8150   -0.4120   -1.2080 N.3    40  TRP40      -0.1228
      2  CA        -3.6460   -1.7740   -1.7350 C.3    40  TRP40       0.1722
      3  C         -4.9120   -2.5860   -1.9670 C.2    40  TRP40       0.2437
      4  O         -4.9990   -3.2680   -2.9810 O.2    40  TRP40      -0.2733
      5  CB        -2.5970   -2.5520   -0.9280 C.3    40  TRP40       0.0563
      6  CG        -2.9810   -2.8100    0.5020 C.ar   40  TRP40       0.0003
      7  CD1       -2.6780   -2.0380    1.6190 C.ar   40  TRP40       0.0946
      8  CD2       -3.7600   -3.9380    1.0150 C.ar   40  TRP40       0.0152
      9  NE1       -3.2110   -2.5940    2.7530 N.ar   40  TRP40      -0.2442
     10  CE2       -3.8680   -3.7360    2.4600 C.ar   40  TRP40       0.0810
     11  CE3       -4.3620   -5.0560    0.4390 C.ar   40  TRP40       0.0012
     12  CZ2       -4.5570   -4.6230    3.2740 C.ar   40  TRP40       0.0191
     13  CZ3       -5.0510   -5.9420    1.2720 C.ar   40  TRP40       0.0001
     14  CH2       -5.1360   -5.7300    2.6570 C.ar   40  TRP40       0.0015
     15  N         -5.9260   -2.5070   -1.0740 N.am   41  PRO41      -0.2718
     16  CA        -7.1150   -3.3140   -1.3820 C.3    41  PRO41       0.1535
     17  C         -7.8680   -2.8630   -2.6350 C.2    41  PRO41       0.2598
     18  O         -8.6450   -3.6400   -3.1920 O.2    41  PRO41      -0.2715
     19  CB        -8.0020   -3.1230   -0.1400 C.3    41  PRO41       0.0310
     20  CG        -7.0850   -2.6190    0.9210 C.3    41  PRO41       0.0237
     21  CD        -6.1230   -1.7490    0.1710 C.3    41  PRO41       0.0939
     22  N         -7.6390   -1.6190   -3.0520 N.am   42  PHE42      -0.1974
     23  CA        -8.3680   -0.9920   -4.1490 C.3    42  PHE42       0.1639
     24  C         -7.5710   -0.9410   -5.4510 C.2    42  PHE42       0.2290
     25  O         -8.0520   -0.4010   -6.4430 O.2    42  PHE42      -0.2864
     26  CB        -8.7730    0.4260   -3.7370 C.3    42  PHE42       0.0560
     27  CG        -9.5700    0.4760   -2.4640 C.ar   42  PHE42      -0.0200
     28  CD1      -10.9330    0.2230   -2.4740 C.ar   42  PHE42      -0.0042
     29  CD2       -8.9530    0.7460   -1.2500 C.ar   42  PHE42      -0.0042
     30  CE1      -11.6680    0.2550   -1.2970 C.ar   42  PHE42      -0.0003
     31  CE2       -9.6850    0.7780   -0.0730 C.ar   42  PHE42      -0.0003
     32  CZ       -11.0430    0.5310   -0.0980 C.ar   42  PHE42      -0.0000
     33  N         -6.7690   -3.3460   -7.5040 N.3    44  GLN44      -0.1245
     34  CA        -7.1900   -4.3520   -8.4830 C.3    44  GLN44       0.1566
     35  C         -8.6000   -4.8170   -8.1350 C.2    44  GLN44       0.2260
     36  O         -9.0610   -4.5930   -7.0170 O.2    44  GLN44      -0.2867
     37  CB        -6.2270   -5.5510   -8.4930 C.3    44  GLN44       0.0367
     38  CG        -6.0240   -6.2410   -7.1450 C.3    44  GLN44       0.0905
     39  CD        -5.1570   -5.4350   -6.1970 C.2    44  GLN44       0.2608
     40  OE1       -4.0650   -5.0030   -6.5610 O.2    44  GLN44      -0.2717
     41  NE2       -5.6440   -5.2200   -4.9790 N.am   44  GLN44      -0.0878
     42  N        -11.7350   -6.8410   -6.7770 N.3    46  VAL46      -0.1245
     43  CA       -11.8880   -7.7110   -5.6190 C.3    46  VAL46       0.1561
     44  C        -11.8420   -9.1670   -6.0720 C.2    46  VAL46       0.2260
     45  O        -12.6280   -9.5860   -6.9180 O.2    46  VAL46      -0.2867
     46  CB       -13.2060   -7.4310   -4.8730 C.3    46  VAL46       0.0252
     47  CG1      -13.4870   -8.5250   -3.8480 C.3    46  VAL46       0.0019
     48  CG2      -13.1500   -6.0640   -4.2080 C.3    46  VAL46       0.0019
     49  N        -10.0720  -14.0550   -1.3860 N.3    51  LEU51      -0.1245
     50  CA       -10.4870  -13.4100   -0.1430 C.3    51  LEU51       0.1561
     51  C        -11.6180  -14.1540    0.5780 C.2    51  LEU51       0.2260
     52  O        -12.0190  -13.7580    1.6710 O.2    51  LEU51      -0.2867
     53  CB       -10.8960  -11.9580   -0.4180 C.3    51  LEU51       0.0270
     54  CG        -9.7960  -11.0500   -0.9800 C.3    51  LEU51       0.0019
     55  CD1      -10.3960   -9.7590   -1.5190 C.3    51  LEU51       0.0001
     56  CD2       -8.7400  -10.7540    0.0750 C.3    51  LEU51       0.0001
     57  N        -14.8820  -14.3930   -0.1590 N.3    53  LEU53      -0.1245
     58  CA       -16.0670  -13.5420   -0.0760 C.3    53  LEU53       0.1561
     59  C        -17.0680  -13.9950   -1.1360 C.2    53  LEU53       0.2260
     60  O        -17.3130  -13.2860   -2.1100 O.2    53  LEU53      -0.2867
     61  CB       -15.6890  -12.0790   -0.3110 C.3    53  LEU53       0.0270
     62  CG       -14.6070  -11.4880    0.5910 C.3    53  LEU53       0.0019
     63  CD1      -14.2700  -10.0710    0.1490 C.3    53  LEU53       0.0001
     64  CD2      -15.0510  -11.5240    2.0410 C.3    53  LEU53       0.0001
     65  N        -19.7760  -11.5670   -2.4270 N.3    56  TYR56      -0.1241
     66  CA       -19.4000  -10.2130   -2.8450 C.3    56  TYR56       0.1605
     67  C        -20.0880   -9.7990   -4.1450 C.2    56  TYR56       0.2264
     68  O        -20.6890   -8.7290   -4.2180 O.2    56  TYR56      -0.2867
     69  CB       -17.8740  -10.0410   -2.9800 C.3    56  TYR56       0.0534
     70  CG       -17.4930   -8.6090   -3.2890 C.ar   56  TYR56      -0.0201
     71  CD1      -17.3540   -7.6690   -2.2760 C.ar   56  TYR56      -0.0009
     72  CD2      -17.3390   -8.1770   -4.6020 C.ar   56  TYR56      -0.0009
     73  CE1      -17.0470   -6.3500   -2.5600 C.ar   56  TYR56       0.0417
     74  CE2      -17.0290   -6.8620   -4.8940 C.ar   56  TYR56       0.0417
     75  CZ       -16.8800   -5.9510   -3.8680 C.ar   56  TYR56       0.1957
     76  OH       -16.5800   -4.6360   -4.1580 O.3    56  TYR56      -0.2866
     77  N        -17.7850   -0.3810   -1.4780 N.3    95  CYS95      -0.1235
     78  CA       -17.1410   -0.7340   -0.2220 C.3    95  CYS95       0.1677
     79  C        -18.0880   -0.5450    0.9610 C.2    95  CYS95       0.2270
     80  O        -18.1860   -1.4050    1.8350 O.2    95  CYS95      -0.2867
     81  CB       -15.8920    0.1140   -0.0290 C.3    95  CYS95       0.0956
     82  SG       -14.8640   -0.4360    1.3340 S.3    95  CYS95      -0.0801
     83  N        -21.0890   -3.1730    0.7520 N.3    98  TYR98      -0.1227
     84  CA       -20.7570   -4.5530    1.0960 C.3    98  TYR98       0.1736
     85  C        -20.3990   -4.7510    2.5690 C.2    98  TYR98       0.2595
     86  O        -20.8000   -5.7380    3.1750 O.2    98  TYR98      -0.2718
     87  CB       -19.6160   -5.0870    0.2160 C.3    98  TYR98       0.0548
     88  CG       -19.2790   -6.5210    0.5540 C.ar   98  TYR98      -0.0200
     89  CD1      -20.1530   -7.5530    0.2250 C.ar   98  TYR98      -0.0009
     90  CD2      -18.1180   -6.8420    1.2480 C.ar   98  TYR98      -0.0009
     91  CE1      -19.8720   -8.8640    0.5600 C.ar   98  TYR98       0.0417
     92  CE2      -17.8240   -8.1530    1.5850 C.ar   98  TYR98       0.0417
     93  CZ       -18.6990   -9.1610    1.2380 C.ar   98  TYR98       0.1957
     94  OH       -18.4040  -10.4630    1.5780 O.3    98  TYR98      -0.2866
     95  N        -19.6430   -3.8120    3.1310 N.am   99  ASN99      -0.1974
     96  CA       -19.0390   -3.9870    4.4570 C.3    99  ASN99       0.1688
     97  C        -19.8400   -3.3500    5.5880 C.2    99  ASN99       0.2292
     98  O        -20.8450   -2.6890    5.3480 O.2    99  ASN99      -0.2864
     99  CB       -17.6110   -3.4440    4.4280 C.3    99  ASN99       0.1181
    100  CG       -16.7190   -4.2360    3.4920 C.2    99  ASN99       0.2629
    101  OD1      -16.3270   -5.3610    3.8030 O.2    99  ASN99      -0.2716
    102  ND2      -16.4130   -3.6660    2.3290 N.am   99  ASN99      -0.0877
    103  N        -12.3060   -2.1500    9.0970 N.3   104  ASP104     -0.1225
    104  CA       -11.0280   -1.6100    8.6420 C.3   104  ASP104      0.1805
    105  C        -11.1010   -1.1480    7.1910 C.2   104  ASP104      0.2597
    106  O        -10.6220   -0.0660    6.8730 O.2   104  ASP104     -0.2718
    107  CB        -9.8970   -2.6350    8.7990 C.3   104  ASP104      0.1424
    108  CG        -9.4010   -2.7560   10.2310 C.2   104  ASP104      0.3668
    109  OD1       -9.6080   -1.8180   11.0290 O.co2 104  ASP104     -0.2456
    110  OD2       -8.7860   -3.7990   10.5500 O.co2 104  ASP104     -0.2456
    111  N        -11.6980   -1.9550    6.3160 N.am  105  ILE105     -0.1980
    112  CA       -11.7650   -1.5970    4.8930 C.3   105  ILE105      0.1595
    113  C        -12.5780   -0.3160    4.6650 C.2   105  ILE105      0.2287
    114  O        -12.2630    0.4610    3.7730 O.2   105  ILE105     -0.2864
    115  CB       -12.3250   -2.7510    4.0230 C.3   105  ILE105      0.0276
    116  CG1      -12.0950   -2.4770    2.5280 C.3   105  ILE105      0.0022
    117  CG2      -13.8090   -2.9760    4.3040 C.3   105  ILE105      0.0022
    118  CD1      -10.6390   -2.3690    2.1310 C.3   105  ILE105      0.0001
    119  N        -10.4460    2.5680    5.5620 N.3   108  MET108     -0.1245
    120  CA        -9.4830    2.7540    4.4800 C.3   108  MET108      0.1570
    121  C        -10.1180    3.5310    3.3280 C.2   108  MET108      0.2261
    122  O         -9.5460    4.5080    2.8430 O.2   108  MET108     -0.2867
    123  CB        -8.9500    1.4010    4.0130 C.3   108  MET108      0.0387
    124  CG        -8.1220    0.7250    5.0890 C.3   108  MET108      0.0595
    125  SD        -7.6910   -0.9780    4.7330 S.3   108  MET108     -0.1393
    126  CE        -6.2770   -0.6820    3.6980 C.3   108  MET108      0.0692
@<TRIPOS>BOND
     1    37    34    1
     2    37    38    1
     3    34    35    1
     4    34    33    1
     5    35    36    2
     6    38    39    1
     7    45    44    2
     8    42    43    1
     9    40    39    2
    10    25    24    2
    11    39    41   am
    12    44    43    1
    13    43    46    1
    14    24    23    1
    15    74    72   ar
    16    74    75   ar
    17    46    48    1
    18    46    47    1
    19    72    70   ar
    20    68    67    2
    21    76    75    1
    22    23    26    1
    23    23    22    1
    24    67    66    1
    25    75    73   ar
    26    26    27    1
    27    70    69    1
    28    70    71   ar
    29    18    17    2
    30    22    17   am
    31     4     3    2
    32    69    66    1
    33    66    65    1
    34    17    16    1
    35    73    71   ar
    36    28    27   ar
    37    28    30   ar
    38    27    29   ar
    39    60    59    2
    40     3     2    1
    41     3    15   am
    42     2     1    1
    43     2     5    1
    44    55    54    1
    45    77    78    1
    46    49    50    1
    47    16    15    1
    48    16    19    1
    49    30    32   ar
    50    29    31   ar
    51    59    58    1
    52    15    21    1
    53    54    53    1
    54    54    56    1
    55     5     6    1
    56    53    50    1
    57    61    58    1
    58    61    62    1
    59    78    81    1
    60    78    79    1
    61    57    58    1
    62    50    51    1
    63    19    20    1
    64    32    31   ar
    65    81    82    1
    66    63    62    1
    67    21    20    1
    68    87    88    1
    69    87    84    1
    70    89    88   ar
    71    89    91   ar
    72    11     8   ar
    73    11    13   ar
    74     6     8   ar
    75     6     7   ar
    76    88    90   ar
    77    91    93   ar
    78    51    52    2
    79    62    64    1
    80    83    84    1
    81    79    80    2
    82     8    10   ar
    83    84    85    1
    84    93    94    1
    85    93    92   ar
    86    90    92   ar
    87    13    14   ar
    88     7     9   ar
    89   118   116    1
    90   102   100   am
    91    10     9   ar
    92    10    12   ar
    93   116   115    1
    94    85    95   am
    95    85    86    2
    96    14    12   ar
    97   122   121    2
    98    95    96    1
    99   121   120    1
   100   100   101    2
   101   100    99    1
   102   126   125    1
   103   114   113    2
   104   123   120    1
   105   123   124    1
   106   115   117    1
   107   115   112    1
   108    99    96    1
   109    96    97    1
   110   120   119    1
   111   113   112    1
   112   125   124    1
   113   112   111    1
   114    98    97    2
   115   111   105   am
   116   106   105    2
   117   105   104    1
   118   104   107    1
   119   104   103    1
   120   107   108    1
   121   108   110   ar
   122   108   109   ar
