@<TRIPOS>MOLECULE
tmp/4c69A04.pdb
 86 82 0 0 0
SMALL
GASTEIGER

@<TRIPOS>ATOM
      1  N         14.2630   37.5570   33.4780 N.3   180  LEU180     -0.1245
      2  CA        15.7010   37.7480   33.4430 C.3   180  LEU180      0.1561
      3  C         16.2910   36.5070   32.7890 C.2   180  LEU180      0.2260
      4  O         15.9250   35.3810   33.1380 O.2   180  LEU180     -0.2867
      5  CB        16.2550   37.9010   34.8590 C.3   180  LEU180      0.0270
      6  CG        17.7420   38.2270   35.0150 C.3   180  LEU180      0.0019
      7  CD1       18.6070   36.9770   35.0730 C.3   180  LEU180      0.0001
      8  CD2       18.2090   39.1300   33.9000 C.3   180  LEU180      0.0001
      9  N         20.2330   35.0100   31.4190 N.3   182  THR182     -0.1218
     10  CA        21.6580   35.1310   31.1710 C.3   182  THR182      0.1862
     11  C         22.1230   33.8130   30.5820 C.2   182  THR182      0.2287
     12  O         21.5490   32.7450   30.8580 O.2   182  THR182     -0.2866
     13  CB        22.4610   35.3540   32.4500 C.3   182  THR182      0.1770
     14  OG1       22.4530   34.1420   33.2150 O.3   182  THR182     -0.2211
     15  CG2       21.8790   36.4780   33.2670 C.3   182  THR182      0.0375
     16  N         28.9870   35.7900   26.1370 N.3   190  PHE190     -0.1227
     17  CA        28.0600   36.0880   27.2220 C.3   190  PHE190      0.1736
     18  C         26.8500   36.8650   26.7080 C.2   190  PHE190      0.2596
     19  O         26.9900   37.8100   25.9320 O.2   190  PHE190     -0.2718
     20  CB        28.7690   36.8680   28.3350 C.3   190  PHE190      0.0547
     21  CG        29.9300   36.1160   28.9570 C.ar  190  PHE190     -0.0202
     22  CD1       31.1630   36.0310   28.3020 C.ar  190  PHE190     -0.0042
     23  CD2       29.7850   35.4780   30.1910 C.ar  190  PHE190     -0.0042
     24  CE1       32.2350   35.3230   28.8700 C.ar  190  PHE190     -0.0003
     25  CE2       30.8550   34.7740   30.7720 C.ar  190  PHE190     -0.0003
     26  CZ        32.0790   34.6970   30.1080 C.ar  190  PHE190     -0.0000
     27  N         25.6680   36.4540   27.1470 N.am  191  GLY191     -0.1942
     28  CA        24.4470   37.1740   26.8480 C.3   191  GLY191      0.2014
     29  C         23.5970   37.4160   28.0870 C.2   191  GLY191      0.2639
     30  O         23.6600   36.6750   29.0700 O.2   191  GLY191     -0.2714
     31  N         22.7880   38.4610   28.0450 N.am  192  GLY192     -0.1939
     32  CA        21.8970   38.7290   29.1470 C.3   192  GLY192      0.2014
     33  C         20.7530   39.5560   28.6340 C.2   192  GLY192      0.2640
     34  O         20.9500   40.4300   27.7920 O.2   192  GLY192     -0.2714
     35  N         19.5520   39.2760   29.1190 N.am  193  SER193     -0.1935
     36  CA        18.4190   40.0810   28.7220 C.3   193  SER193      0.2055
     37  C         17.4240   40.2300   29.8470 C.2   193  SER193      0.2642
     38  O         17.2860   39.3530   30.7250 O.2   193  SER193     -0.2714
     39  CB        17.7270   39.4880   27.4930 C.3   193  SER193      0.2130
     40  OG        17.1330   38.2450   27.8300 O.3   193  SER193     -0.2179
     41  N         16.7300   41.3580   29.8060 N.am  194  ILE194     -0.1977
     42  CA        15.6210   41.6020   30.6990 C.3   194  ILE194      0.1596
     43  C         14.3790   41.8590   29.8700 C.2   194  ILE194      0.2287
     44  O         14.4070   42.6720   28.9460 O.2   194  ILE194     -0.2864
     45  CB        15.9000   42.8140   31.5840 C.3   194  ILE194      0.0276
     46  CG1       16.9710   42.4480   32.6140 C.3   194  ILE194      0.0022
     47  CG2       14.6320   43.2700   32.2690 C.3   194  ILE194      0.0022
     48  CD1       17.1570   43.4770   33.7180 C.3   194  ILE194      0.0001
     49  N         15.6860   44.6770   27.0890 N.3   206  VAL206     -0.1245
     50  CA        17.0590   45.1280   26.9900 C.3   206  VAL206      0.1561
     51  C         17.9160   43.8980   26.8040 C.2   206  VAL206      0.2260
     52  O         17.6770   42.8640   27.4440 O.2   206  VAL206     -0.2867
     53  CB        17.5150   45.8080   28.2890 C.3   206  VAL206      0.0252
     54  CG1       18.9460   46.3490   28.1340 C.3   206  VAL206      0.0019
     55  CG2       16.5490   46.9090   28.6950 C.3   206  VAL206      0.0019
     56  N         22.0640   42.3670   26.2580 N.3   208  LEU208     -0.1245
     57  CA        23.4870   42.6560   26.3950 C.3   208  LEU208      0.1561
     58  C         24.2370   41.4610   25.8860 C.2   208  LEU208      0.2260
     59  O         23.8020   40.3200   26.0830 O.2   208  LEU208     -0.2867
     60  CB        23.8770   42.8600   27.8620 C.3   208  LEU208      0.0270
     61  CG        22.9640   43.7580   28.6780 C.3   208  LEU208      0.0019
     62  CD1       23.3350   43.7210   30.1690 C.3   208  LEU208      0.0001
     63  CD2       23.0610   45.1490   28.1280 C.3   208  LEU208      0.0001
     64  N         28.5700   40.1820   25.0670 N.3   210  TRP210     -0.1241
     65  CA        29.9820   40.5130   24.9330 C.3   210  TRP210      0.1605
     66  C         30.7680   39.2350   24.8090 C.2   210  TRP210      0.2264
     67  O         30.2080   38.1410   24.8970 O.2   210  TRP210     -0.2867
     68  CB        30.4910   41.3910   26.0910 C.3   210  TRP210      0.0550
     69  CG        30.3500   40.7640   27.4290 C.ar  210  TRP210      0.0003
     70  CD1       31.2310   39.9150   28.0230 C.ar  210  TRP210      0.0946
     71  CD2       29.2600   40.9350   28.3620 C.ar  210  TRP210      0.0152
     72  NE1       30.7620   39.5410   29.2640 N.ar  210  TRP210     -0.2442
     73  CE2       29.5590   40.1560   29.5000 C.ar  210  TRP210      0.0810
     74  CE3       28.0740   41.6850   28.3490 C.ar  210  TRP210      0.0012
     75  CZ2       28.7010   40.0850   30.6200 C.ar  210  TRP210      0.0191
     76  CZ3       27.2200   41.6200   29.4660 C.ar  210  TRP210      0.0001
     77  CH2       27.5400   40.8230   30.5810 C.ar  210  TRP210      0.0015
     78  N         34.4670   37.0980   25.6510 N.3   212  ALA212     -0.1231
     79  CA        35.6650   37.0070   26.4780 C.3   212  ALA212      0.1694
     80  C         36.8830   37.2910   25.6260 C.2   212  ALA212      0.2592
     81  O         37.0130   36.7430   24.5290 O.2   212  ALA212     -0.2718
     82  CB        35.7800   35.6330   27.1260 C.3   212  ALA212      0.0304
     83  N         37.7680   38.1570   26.1200 N.am  213  GLY213     -0.1957
     84  CA        38.9840   38.4980   25.3940 C.3   213  GLY213      0.1869
     85  C         38.8630   39.7970   24.6140 C.2   213  GLY213      0.2309
     86  O         39.8470   40.3280   24.0980 O.2   213  GLY213     -0.2863
@<TRIPOS>BOND
     1    86    85    2
     2    81    80    2
     3    85    84    1
     4    66    67    2
     5    66    65    1
     6    65    64    1
     7    65    68    1
     8    84    83    1
     9    80    83   am
    10    80    79    1
    11    78    79    1
    12    58    59    2
    13    58    57    1
    14    19    18    2
    15    68    69    1
    16    16    17    1
    17    56    57    1
    18    57    60    1
    19    79    82    1
    20    18    27   am
    21    18    17    1
    22    51    50    1
    23    51    52    2
    24    28    27    1
    25    28    29    1
    26    50    49    1
    27    50    53    1
    28    17    20    1
    29    69    70   ar
    30    69    71   ar
    31    39    40    1
    32    39    36    1
    33    34    33    2
    34    60    61    1
    35    70    72   ar
    36    31    29   am
    37    31    32    1
    38    29    30    2
    39    63    61    1
    40    54    53    1
    41    53    55    1
    42    22    24   ar
    43    22    21   ar
    44    20    21    1
    45    74    71   ar
    46    74    76   ar
    47    71    73   ar
    48    33    35   am
    49    33    32    1
    50    61    62    1
    51    36    35    1
    52    36    37    1
    53    24    26   ar
    54    44    43    2
    55    21    23   ar
    56    72    73   ar
    57    76    77   ar
    58    73    75   ar
    59    41    37   am
    60    41    42    1
    61    37    38    2
    62    43    42    1
    63    26    25   ar
    64    23    25   ar
    65    77    75   ar
    66    11    12    2
    67    11    10    1
    68    42    45    1
    69    10     9    1
    70    10    13    1
    71    45    47    1
    72    45    46    1
    73    13    14    1
    74    13    15    1
    75    46    48    1
    76     3     4    2
    77     3     2    1
    78     2     1    1
    79     2     5    1
    80     8     6    1
    81     5     6    1
    82     6     7    1
