@<TRIPOS>MOLECULE
tmp/4c6fA00.pdb
 141 136 0 0 0
SMALL
GASTEIGER

@<TRIPOS>ATOM
      1  N        -15.5030  -21.2760  -10.2330 N.3    12  HIS12      -0.1241
      2  CA       -16.6300  -20.6700   -9.5260 C.3    12  HIS12       0.1621
      3  C        -17.9490  -21.3000   -9.9550 C.2    12  HIS12       0.2264
      4  O        -18.6060  -20.8410  -10.8930 O.2    12  HIS12      -0.2867
      5  CB       -16.6480  -19.1570   -9.7730 C.3    12  HIS12       0.0745
      6  CG       -17.5550  -18.4050   -8.8590 C.ar   12  HIS12       0.0817
      7  ND1      -17.1640  -17.2270   -8.2640 N.ar   12  HIS12      -0.2268
      8  CD2      -18.8210  -18.6420   -8.4310 C.ar   12  HIS12       0.1154
      9  CE1      -18.1640  -16.7630   -7.5330 C.ar   12  HIS12       0.1986
     10  NE2      -19.1660  -17.6090   -7.6070 N.ar   12  HIS12      -0.2212
     11  N        -21.7350  -23.1980   -8.3550 N.3    14  HIS14      -0.1241
     12  CA       -22.6370  -23.5230   -7.2590 C.3    14  HIS14       0.1621
     13  C        -23.3460  -24.8110   -7.5990 C.2    14  HIS14       0.2264
     14  O        -24.1210  -24.8540   -8.5480 O.2    14  HIS14      -0.2867
     15  CB       -23.6540  -22.3950   -7.0790 C.3    14  HIS14       0.0745
     16  CG       -23.0320  -21.0890   -6.6920 C.ar   14  HIS14       0.0817
     17  ND1      -22.8580  -20.7120   -5.3800 N.ar   14  HIS14      -0.2268
     18  CD2      -22.5190  -20.0760   -7.4440 C.ar   14  HIS14       0.1154
     19  CE1      -22.2740  -19.5210   -5.3390 C.ar   14  HIS14       0.1986
     20  NE2      -22.0250  -19.1300   -6.5750 N.ar   14  HIS14      -0.2212
     21  N        -25.0550  -26.7090   -5.2330 N.3    16  ARG16      -0.1245
     22  CA       -26.3120  -26.7220   -4.4630 C.3    16  ARG16       0.1563
     23  C        -26.4950  -27.8800   -3.4930 C.2    16  ARG16       0.2260
     24  O        -27.4710  -27.9310   -2.7790 O.2    16  ARG16      -0.2867
     25  CB       -27.5360  -26.6240   -5.3880 C.3    16  ARG16       0.0307
     26  CG       -27.4950  -25.4390   -6.3160 C.3    16  ARG16       0.0489
     27  CD       -27.4370  -24.1080   -5.5750 C.3    16  ARG16       0.2205
     28  NE       -27.7010  -23.0010   -6.4960 N.pl3  16  ARG16      -0.0865
     29  CZ       -27.2750  -21.7520   -6.3320 C.cat  16  ARG16       0.5346
     30  NH1      -26.5530  -21.4080   -5.2850 N.pl3  16  ARG16       0.1354
     31  NH2      -27.5670  -20.8400   -7.2450 N.pl3  16  ARG16       0.1354
     32  N        -21.9390  -21.6810   -0.2450 N.3    46  ASN46      -0.1240
     33  CA       -23.2210  -21.1190    0.1830 C.3    46  ASN46       0.1653
     34  C        -24.3780  -22.1060    0.0580 C.2    46  ASN46       0.2266
     35  O        -25.4640  -21.7600   -0.4010 O.2    46  ASN46      -0.2867
     36  CB       -23.5280  -19.8300   -0.5790 C.3    46  ASN46       0.1155
     37  CG       -23.7150  -20.0380   -2.0610 C.2    46  ASN46       0.2627
     38  OD1      -23.2200  -21.0040   -2.6340 O.2    46  ASN46      -0.2716
     39  ND2      -24.4230  -19.1220   -2.6930 N.am   46  ASN46      -0.0877
     40  N        -18.1130  -13.4160    1.2260 N.3    98  TYR98      -0.1241
     41  CA       -19.2790  -12.7580    0.6530 C.3    98  TYR98       0.1605
     42  C        -19.3820  -11.3730    1.2590 C.2    98  TYR98       0.2264
     43  O        -19.7640  -11.2400    2.4270 O.2    98  TYR98      -0.2867
     44  CB       -20.5450  -13.5800    0.9700 C.3    98  TYR98       0.0534
     45  CG       -20.6670  -14.8130    0.1070 C.ar   98  TYR98      -0.0201
     46  CD1      -21.2110  -14.7360   -1.1680 C.ar   98  TYR98      -0.0009
     47  CD2      -20.1920  -16.0380    0.5400 C.ar   98  TYR98      -0.0009
     48  CE1      -21.2930  -15.8520   -1.9810 C.ar   98  TYR98       0.0417
     49  CE2      -20.2710  -17.1660   -0.2670 C.ar   98  TYR98       0.0417
     50  CZ       -20.8050  -17.0650   -1.5310 C.ar   98  TYR98       0.1957
     51  OH       -20.8460  -18.1870   -2.3310 O.3    98  TYR98      -0.2866
     52  N        -26.3160  -10.9760   -1.8520 N.3   102  THR102     -0.1203
     53  CA       -26.4160  -11.9330   -2.9270 C.3   102  THR102      0.1994
     54  C        -27.1070  -13.1680   -2.3600 C.2   102  THR102      0.2617
     55  O        -27.6340  -13.1200   -1.2470 O.2   102  THR102     -0.2717
     56  CB       -25.0310  -12.2360   -3.5500 C.3   102  THR102      0.1784
     57  OG1      -25.2130  -13.0280   -4.7170 O.3   102  THR102     -0.2211
     58  CG2      -24.0620  -12.9260   -2.5760 C.3   102  THR102      0.0376
     59  N        -27.1260  -14.2610   -3.1120 N.am  103  PHE103     -0.1975
     60  CA       -27.7240  -15.5020   -2.6310 C.3   103  PHE103      0.1639
     61  C        -26.7610  -16.1590   -1.6260 C.2   103  PHE103      0.2290
     62  O        -26.0220  -17.0720   -1.9660 O.2   103  PHE103     -0.2864
     63  CB       -28.0170  -16.4210   -3.8250 C.3   103  PHE103      0.0560
     64  CG       -28.8400  -17.6250   -3.4740 C.ar  103  PHE103     -0.0200
     65  CD1      -30.1900  -17.5030   -3.1800 C.ar  103  PHE103     -0.0042
     66  CD2      -28.2610  -18.8760   -3.4270 C.ar  103  PHE103     -0.0042
     67  CE1      -30.9360  -18.6160   -2.8460 C.ar  103  PHE103     -0.0003
     68  CE2      -28.9970  -19.9840   -3.0970 C.ar  103  PHE103     -0.0003
     69  CZ       -30.3390  -19.8570   -2.8060 C.ar  103  PHE103     -0.0000
     70  N        -16.4780  -12.1140   -3.2380 N.3   130  HIS130     -0.1241
     71  CA       -17.5830  -11.4290   -3.9030 C.3   130  HIS130      0.1621
     72  C        -17.5270   -9.9930   -3.4030 C.2   130  HIS130      0.2264
     73  O        -17.8130   -9.7330   -2.2290 O.2   130  HIS130     -0.2867
     74  CB       -18.9200  -12.0820   -3.5490 C.3   130  HIS130      0.0745
     75  CG       -20.0860  -11.4170   -4.1980 C.ar  130  HIS130      0.0817
     76  ND1      -21.0000  -12.1130   -4.9530 N.ar  130  HIS130     -0.2268
     77  CD2      -20.4720  -10.1180   -4.2240 C.ar  130  HIS130      0.1154
     78  CE1      -21.9070  -11.2650   -5.4150 C.ar  130  HIS130      0.1986
     79  NE2      -21.6060  -10.0500   -4.9910 N.ar  130  HIS130     -0.2212
     80  N        -16.2110  -12.7530  -10.2750 N.3   154  HIS154     -0.1241
     81  CA       -17.1560  -12.1750  -11.2400 C.3   154  HIS154      0.1621
     82  C        -17.1240  -10.6510  -11.3290 C.2   154  HIS154      0.2264
     83  O        -18.0360   -9.9460  -10.8940 O.2   154  HIS154     -0.2867
     84  CB       -18.5910  -12.7120  -11.0000 C.3   154  HIS154      0.0745
     85  CG       -19.0410  -12.6850   -9.5690 C.ar  154  HIS154      0.0817
     86  ND1      -18.8090  -11.6240   -8.7270 N.ar  154  HIS154     -0.2268
     87  CD2      -19.7070  -13.5970   -8.8270 C.ar  154  HIS154      0.1154
     88  CE1      -19.3170  -11.8770   -7.5380 C.ar  154  HIS154      0.1986
     89  NE2      -19.8560  -13.0740   -7.5670 N.ar  154  HIS154     -0.2212
     90  N        -29.4260  -11.2250  -11.1670 N.3   200  VAL200     -0.1231
     91  CA       -28.1160  -11.8310  -10.9870 C.3   200  VAL200      0.1692
     92  C        -27.2700  -10.8420  -10.2090 C.2   200  VAL200      0.2591
     93  O        -27.5530   -9.6490  -10.2250 O.2   200  VAL200     -0.2718
     94  CB       -27.4710  -12.2060  -12.3510 C.3   200  VAL200      0.0266
     95  CG1      -27.2900  -10.9940  -13.2510 C.3   200  VAL200      0.0020
     96  CG2      -26.1560  -12.9710  -12.1510 C.3   200  VAL200      0.0020
     97  N        -26.2890  -11.3630   -9.4790 N.am  201  ARG201     -0.1980
     98  CA       -25.3230  -10.5090   -8.7960 C.3   201  ARG201      0.1597
     99  C        -23.9250  -10.9180   -9.1920 C.2   201  ARG201      0.2287
    100  O        -23.5880  -12.0870   -9.1480 O.2   201  ARG201     -0.2864
    101  CB       -25.4410  -10.6200   -7.2700 C.3   201  ARG201      0.0334
    102  CG       -26.7690  -10.2380   -6.7010 C.3   201  ARG201      0.0492
    103  CD       -27.0610   -8.7610   -6.8340 C.3   201  ARG201      0.2205
    104  NE       -28.3550   -8.4660   -6.2310 N.pl3 201  ARG201     -0.0865
    105  CZ       -29.5160   -8.6160   -6.8530 C.cat 201  ARG201      0.5346
    106  NH1      -29.5500   -9.0240   -8.1090 N.pl3 201  ARG201      0.1354
    107  NH2      -30.6440   -8.3490   -6.2130 N.pl3 201  ARG201      0.1354
    108  N        -19.6260  -18.7460  -12.6640 N.3   226  ASP226     -0.1239
    109  CA       -20.5890  -18.4650  -11.5830 C.3   226  ASP226      0.1674
    110  C        -21.9010  -19.1870  -11.8930 C.2   226  ASP226      0.2266
    111  O        -22.9820  -18.6240  -11.7980 O.2   226  ASP226     -0.2867
    112  CB       -20.8250  -16.9830  -11.3260 C.3   226  ASP226      0.1410
    113  CG       -21.5710  -16.7250  -10.0190 C.2   226  ASP226      0.3668
    114  OD1      -21.5920  -17.6110   -9.1310 O.co2 226  ASP226     -0.2456
    115  OD2      -22.1160  -15.6180   -9.8780 O.co2 226  ASP226     -0.2456
    116  N        -24.9800  -20.7270  -11.2870 N.3   228  ALA228     -0.1245
    117  CA       -25.8000  -20.4170  -10.1210 C.3   228  ALA228      0.1562
    118  C        -27.2250  -20.8450  -10.4330 C.2   228  ALA228      0.2260
    119  O        -28.1040  -20.0260  -10.6970 O.2   228  ALA228     -0.2867
    120  CB       -25.7110  -18.9290   -9.7790 C.3   228  ALA228      0.0290
    121  N        -30.9850  -22.0900  -10.3820 N.3   230  HIS230     -0.1241
    122  CA       -32.2340  -21.9610   -9.6440 C.3   230  HIS230      0.1621
    123  C        -33.2800  -22.4310  -10.6460 C.2   230  HIS230      0.2264
    124  O        -33.0730  -22.3050  -11.8490 O.2   230  HIS230     -0.2867
    125  CB       -32.5290  -20.5070   -9.2820 C.3   230  HIS230      0.0745
    126  CG       -31.4970  -19.8750   -8.4090 C.ar  230  HIS230      0.0817
    127  ND1      -31.3670  -20.2080   -7.0840 N.ar  230  HIS230     -0.2268
    128  CD2      -30.5800  -18.9150   -8.6560 C.ar  230  HIS230      0.1154
    129  CE1      -30.3870  -19.4960   -6.5540 C.ar  230  HIS230      0.1986
    130  NE2      -29.9000  -18.6960   -7.4860 N.ar  230  HIS230     -0.2212
    131  N        -31.0880  -14.4250   -7.1910 N.3   242  PRO242     -0.2102
    132  CA       -30.1810  -14.0270   -8.2620 C.3   242  PRO242      0.1504
    133  C        -29.3370  -15.2060   -8.7250 C.2   242  PRO242      0.2576
    134  O        -28.9450  -16.0540   -7.9170 O.2   242  PRO242     -0.2718
    135  CB       -29.3140  -12.9770   -7.5870 C.3   242  PRO242      0.0282
    136  CG       -29.2300  -13.4450   -6.1670 C.3   242  PRO242      0.0208
    137  CD       -30.5860  -14.0270   -5.8620 C.3   242  PRO242      0.0893
    138  N        -29.0480  -15.2470  -10.0190 N.am  243  GLY243     -0.1957
    139  CA       -28.0850  -16.1890  -10.5520 C.3   243  GLY243      0.1869
    140  C        -28.5230  -16.8280  -11.8440 C.2   243  GLY243      0.2309
    141  O        -29.7200  -17.0120  -12.0950 O.2   243  GLY243     -0.2863
@<TRIPOS>BOND
     1    95    94    1
     2   108   109    1
     3    94    96    1
     4    94    91    1
     5   141   140    2
     6   110   111    2
     7   110   109    1
     8   124   123    2
     9   140   139    1
    10   109   112    1
    11    82    81    1
    12    82    83    2
    13   112   113    1
    14   116   117    1
    15    81    84    1
    16    81    80    1
    17    90    91    1
    18    84    85    1
    19    91    92    1
    20     4     3    2
    21   119   118    2
    22   123   122    1
    23   139   138    1
    24   118   117    1
    25   121   122    1
    26     1     2    1
    27    93    92    2
    28    92    97   am
    29   117   120    1
    30   113   115   ar
    31   113   114   ar
    32   138   133   am
    33     3     2    1
    34     5     2    1
    35     5     6    1
    36   122   125    1
    37    85    87   ar
    38    85    86   ar
    39    97    98    1
    40   125   126    1
    41    99   100    2
    42    99    98    1
    43     6     8   ar
    44     6     7   ar
    45    87    89   ar
    46    98   101    1
    47    86    88   ar
    48   133   132    1
    49   133   134    2
    50   128   126   ar
    51   128   130   ar
    52    14    13    2
    53     8    10   ar
    54   126   127   ar
    55    11    12    1
    56     7     9   ar
    57   132   135    1
    58   132   131    1
    59   106   105    1
    60    10     9   ar
    61    13    12    1
    62   135   136    1
    63    89    88   ar
    64   130   129   ar
    65    18    16   ar
    66    18    20   ar
    67   101   102    1
    68    12    15    1
    69    31    29    1
    70   131   137    1
    71   127   129   ar
    72    15    16    1
    73   105   104    2
    74   105   107    1
    75   103   102    1
    76   103   104    1
    77    16    17   ar
    78    20    19   ar
    79    28    29    2
    80    28    27    1
    81    29    30    1
    82    26    27    1
    83    26    25    1
    84   136   137    1
    85    78    79   ar
    86    78    76   ar
    87    25    22    1
    88    17    19   ar
    89    21    22    1
    90    79    77   ar
    91    76    75   ar
    92    57    56    1
    93    22    23    1
    94    77    75   ar
    95    75    74    1
    96    71    74    1
    97    71    72    1
    98    71    70    1
    99    63    64    1
   100    63    60    1
   101    56    53    1
   102    56    58    1
   103    23    24    2
   104    64    66   ar
   105    64    65   ar
   106    66    68   ar
   107    72    73    2
   108    65    67   ar
   109    59    60    1
   110    59    54   am
   111    68    69   ar
   112    53    54    1
   113    53    52    1
   114    67    69   ar
   115    39    37   am
   116    38    37    2
   117    60    61    1
   118    54    55    2
   119    51    50    1
   120    37    36    1
   121    48    50   ar
   122    48    46   ar
   123    62    61    2
   124    50    49   ar
   125    46    45   ar
   126    36    33    1
   127    35    34    2
   128    49    47   ar
   129    32    33    1
   130    34    33    1
   131    45    47   ar
   132    45    44    1
   133    41    44    1
   134    41    40    1
   135    41    42    1
   136    42    43    2
