@<TRIPOS>MOLECULE
tmp/4c6hA01.pdb
 140 134 0 0 0
SMALL
GASTEIGER

@<TRIPOS>ATOM
      1  N         -7.3870   21.3300  -18.1510 N.3    35  ASN35      -0.1240
      2  CA        -6.5260   21.6710  -19.2900 C.3    35  ASN35       0.1653
      3  C         -5.3610   22.5560  -18.8500 C.2    35  ASN35       0.2266
      4  O         -5.5830   23.5310  -18.1170 O.2    35  ASN35      -0.2867
      5  CB        -7.3900   22.4440  -20.3050 C.3    35  ASN35       0.1155
      6  CG        -6.6820   22.6530  -21.6270 C.2    35  ASN35       0.2627
      7  OD1       -5.8920   21.8080  -22.0420 O.2    35  ASN35      -0.2716
      8  ND2       -6.9520   23.7860  -22.2880 N.am   35  ASN35      -0.0877
      9  N        -10.9560   22.7940  -12.7860 N.3   105  ASP105     -0.1225
     10  CA       -10.9760   23.2290  -14.2050 C.3   105  ASP105      0.1805
     11  C        -11.9200   22.3480  -15.0210 C.2   105  ASP105      0.2597
     12  O        -13.0380   22.0850  -14.5720 O.2   105  ASP105     -0.2718
     13  CB        -9.5430   23.3080  -14.7690 C.3   105  ASP105      0.1424
     14  CG        -9.5070   23.9090  -16.1730 C.2   105  ASP105      0.3668
     15  OD1       -9.8010   25.1250  -16.2690 O.co2 105  ASP105     -0.2456
     16  OD2       -9.2330   23.1700  -17.1570 O.co2 105  ASP105     -0.2456
     17  N        -11.5170   21.8890  -16.2010 N.am  106  TRP106     -0.1976
     18  CA       -12.4070   21.0000  -16.9620 C.3   106  TRP106      0.1640
     19  C        -12.6930   19.6670  -16.2670 C.2   106  TRP106      0.2290
     20  O        -13.7500   19.0630  -16.5140 O.2   106  TRP106     -0.2864
     21  CB       -11.8580   20.7720  -18.3790 C.3   106  TRP106      0.0576
     22  CG       -12.2040   21.9120  -19.2550 C.ar  106  TRP106      0.0006
     23  CD1      -11.3660   22.8890  -19.7150 C.ar  106  TRP106      0.0946
     24  CD2      -13.5000   22.2000  -19.7820 C.ar  106  TRP106      0.0152
     25  NE1      -12.0730   23.7710  -20.5100 N.ar  106  TRP106     -0.2442
     26  CE2      -13.3880   23.3760  -20.5460 C.ar  106  TRP106      0.0810
     27  CE3      -14.7630   21.5920  -19.6520 C.ar  106  TRP106      0.0012
     28  CZ2      -14.4740   23.9330  -21.2210 C.ar  106  TRP106      0.0191
     29  CZ3      -15.8590   22.1690  -20.3200 C.ar  106  TRP106      0.0001
     30  CH2      -15.6970   23.3220  -21.0850 C.ar  106  TRP106      0.0015
     31  N        -15.4690   25.0870  -12.9170 N.3   131  ILE131     -0.1245
     32  CA       -16.4720   25.5890  -13.8490 C.3   131  ILE131      0.1561
     33  C        -17.8180   25.6500  -13.1110 C.2   131  ILE131      0.2260
     34  O        -18.4870   24.6410  -12.9080 O.2   131  ILE131     -0.2867
     35  CB       -16.5170   24.7650  -15.1490 C.3   131  ILE131      0.0252
     36  CG1      -15.1450   24.7910  -15.8110 C.3   131  ILE131      0.0019
     37  CG2      -17.6090   25.3070  -16.0840 C.3   131  ILE131      0.0019
     38  CD1      -15.0230   23.8820  -17.0240 C.3   131  ILE131      0.0001
     39  N        -20.9070   32.1830  -18.7930 N.3   135  ARG135     -0.1245
     40  CA       -20.7240   33.6250  -18.8980 C.3   135  ARG135      0.1563
     41  C        -21.5980   34.1960  -19.9820 C.2   135  ARG135      0.2260
     42  O        -21.5340   33.7390  -21.1180 O.2   135  ARG135     -0.2867
     43  CB       -19.2530   33.9330  -19.1680 C.3   135  ARG135      0.0307
     44  CG       -18.4060   33.8100  -17.9200 C.3   135  ARG135      0.0489
     45  CD       -16.9220   33.9420  -18.2470 C.3   135  ARG135      0.2205
     46  NE       -16.1320   33.7560  -17.0380 N.pl3 135  ARG135     -0.0865
     47  CZ       -15.6600   32.5810  -16.6330 C.cat 135  ARG135      0.5346
     48  NH1      -15.8800   31.4860  -17.3530 N.pl3 135  ARG135      0.1354
     49  NH2      -14.9540   32.5050  -15.5150 N.pl3 135  ARG135      0.1354
     50  N        -15.3430   37.4370  -18.2380 N.3   141  PHE141     -0.1228
     51  CA       -14.2170   36.5060  -18.3440 C.3   141  PHE141      0.1721
     52  C        -12.9870   37.0670  -17.6190 C.2   141  PHE141      0.2437
     53  O        -12.8220   38.2800  -17.6080 O.2   141  PHE141     -0.2733
     54  CB       -13.8940   36.2800  -19.8210 C.3   141  PHE141      0.0547
     55  CG       -13.0820   35.0590  -20.0620 C.ar  141  PHE141     -0.0202
     56  CD1      -13.6780   33.8150  -20.0870 C.ar  141  PHE141     -0.0042
     57  CD2      -11.6990   35.1450  -20.1910 C.ar  141  PHE141     -0.0042
     58  CE1      -12.9110   32.6790  -20.2740 C.ar  141  PHE141     -0.0003
     59  CE2      -10.9250   34.0210  -20.3650 C.ar  141  PHE141     -0.0003
     60  CZ       -11.5360   32.7760  -20.4140 C.ar  141  PHE141     -0.0000
     61  N        -12.1190   36.1990  -17.0290 N.am  142  PRO142     -0.2729
     62  CA       -10.9400   36.7140  -16.3020 C.3   142  PRO142      0.1401
     63  C        -10.0690   37.6770  -17.1120 C.2   142  PRO142      0.2269
     64  O         -9.6930   37.3840  -18.2680 O.2   142  PRO142     -0.2865
     65  CB       -10.1600   35.4440  -15.9340 C.3   142  PRO142      0.0296
     66  CG       -11.2280   34.3970  -15.7970 C.3   142  PRO142      0.0237
     67  CD       -12.2900   34.7440  -16.8230 C.3   142  PRO142      0.0939
     68  N         -6.7730   36.6000  -18.8060 N.3   145  ALA145     -0.1245
     69  CA        -6.8540   35.5440  -19.8200 C.3   145  ALA145      0.1562
     70  C         -7.7080   35.9270  -21.0200 C.2   145  ALA145      0.2260
     71  O         -7.7780   35.1710  -21.9670 O.2   145  ALA145     -0.2867
     72  CB        -7.4140   34.2780  -19.1990 C.3   145  ALA145      0.0290
     73  N         -7.8390   33.9210  -24.6490 N.3   149  PHE149     -0.1241
     74  CA        -8.9660   33.0520  -24.9940 C.3   149  PHE149      0.1605
     75  C         -9.7300   33.5100  -26.2220 C.2   149  PHE149      0.2264
     76  O        -10.2080   32.6820  -26.9970 O.2   149  PHE149     -0.2867
     77  CB        -9.9220   32.8220  -23.8140 C.3   149  PHE149      0.0534
     78  CG        -9.4950   31.6890  -22.9180 C.ar  149  PHE149     -0.0203
     79  CD1       -8.3340   31.8040  -22.1460 C.ar  149  PHE149     -0.0042
     80  CD2      -10.2580   30.5180  -22.8360 C.ar  149  PHE149     -0.0042
     81  CE1       -7.9290   30.7710  -21.3050 C.ar  149  PHE149     -0.0003
     82  CE2       -9.8620   29.4920  -21.9910 C.ar  149  PHE149     -0.0003
     83  CZ        -8.6990   29.6120  -21.2350 C.ar  149  PHE149     -0.0000
     84  N         -0.8390   26.9790  -24.7990 N.3   167  PHE167     -0.1241
     85  CA        -1.5610   26.6630  -23.5590 C.3   167  PHE167      0.1605
     86  C         -0.5910   26.1020  -22.5030 C.2   167  PHE167      0.2264
     87  O         -0.5750   26.5140  -21.3070 O.2   167  PHE167     -0.2867
     88  CB        -2.7680   25.7160  -23.8040 C.3   167  PHE167      0.0534
     89  CG        -3.9490   26.0640  -22.9420 C.ar  167  PHE167     -0.0203
     90  CD1       -3.8970   25.8250  -21.5550 C.ar  167  PHE167     -0.0042
     91  CD2       -5.0530   26.6980  -23.4610 C.ar  167  PHE167     -0.0042
     92  CE1       -4.9580   26.2030  -20.7430 C.ar  167  PHE167     -0.0003
     93  CE2       -6.1250   27.0590  -22.6540 C.ar  167  PHE167     -0.0003
     94  CZ        -6.0670   26.8170  -21.2940 C.ar  167  PHE167     -0.0000
     95  N          0.2540   29.6720  -20.8130 N.3   171  LEU171     -0.1245
     96  CA        -0.7930   29.7100  -19.7900 C.3   171  LEU171      0.1561
     97  C         -0.4260   28.9840  -18.5020 C.2   171  LEU171      0.2260
     98  O         -0.7700   29.4610  -17.4040 O.2   171  LEU171     -0.2867
     99  CB        -2.1530   29.2970  -20.3470 C.3   171  LEU171      0.0270
    100  CG        -2.7340   30.2570  -21.3820 C.3   171  LEU171      0.0019
    101  CD1       -4.1040   29.7360  -21.7900 C.3   171  LEU171      0.0001
    102  CD2       -2.8440   31.6860  -20.8550 C.3   171  LEU171      0.0001
    103  N         -0.1630   30.8870  -14.7030 N.3   175  SER175     -0.1217
    104  CA        -1.2440   30.5410  -13.7810 C.3   175  SER175      0.1889
    105  C         -0.7520   29.9130  -12.4790 C.2   175  SER175      0.2288
    106  O         -1.5410   29.2860  -11.7840 O.2   175  SER175     -0.2866
    107  CB        -2.2010   29.5350  -14.4410 C.3   175  SER175      0.2089
    108  OG        -2.8010   30.0620  -15.6060 O.3   175  SER175     -0.2183
    109  N        -15.4220   26.3580  -23.5850 N.3   209  VAL209     -0.1245
    110  CA       -15.8410   27.1850  -22.4430 C.3   209  VAL209      0.1561
    111  C        -17.1470   27.9390  -22.7900 C.2   209  VAL209      0.2260
    112  O        -17.2300   28.5700  -23.8580 O.2   209  VAL209     -0.2867
    113  CB       -14.7480   28.1870  -21.9930 C.3   209  VAL209      0.0252
    114  CG1      -15.2740   29.0400  -20.8490 C.3   209  VAL209      0.0019
    115  CG2      -13.4840   27.4290  -21.5750 C.3   209  VAL209      0.0019
    116  N         -8.4630   32.7570  -10.0850 N.3   245  VAL245     -0.1231
    117  CA        -8.6440   33.2210  -11.4660 C.3   245  VAL245      0.1692
    118  C        -10.0760   32.9730  -11.9330 C.2   245  VAL245      0.2591
    119  O        -10.8150   33.9170  -12.2290 O.2   245  VAL245     -0.2718
    120  CB        -7.6500   32.5600  -12.4600 C.3   245  VAL245      0.0266
    121  CG1       -7.9800   32.9950  -13.9010 C.3   245  VAL245      0.0020
    122  CG2       -6.1950   32.8860  -12.1080 C.3   245  VAL245      0.0020
    123  N        -10.4710   31.7000  -11.9860 N.am  246  LEU246     -0.1980
    124  CA       -11.8470   31.3660  -12.4120 C.3   246  LEU246      0.1596
    125  C        -12.9080   31.7010  -11.3770 C.2   246  LEU246      0.2287
    126  O        -14.0390   32.0580  -11.7500 O.2   246  LEU246     -0.2864
    127  CB       -11.9860   29.8800  -12.7310 C.3   246  LEU246      0.0297
    128  CG       -11.2720   29.3910  -13.9730 C.3   246  LEU246      0.0022
    129  CD1      -11.7360   27.9670  -14.3090 C.3   246  LEU246      0.0001
    130  CD2      -11.5760   30.3330  -15.1240 C.3   246  LEU246      0.0001
    131  N         -4.4190   29.8460  -10.7230 N.3   270  HIS270     -0.1241
    132  CA        -5.3380   28.8430  -11.2670 C.3   270  HIS270      0.1621
    133  C         -4.9000   27.4110  -10.9740 C.2   270  HIS270      0.2264
    134  O         -5.7080   26.6150  -10.5080 O.2   270  HIS270     -0.2867
    135  CB        -5.5470   29.0520  -12.7530 C.3   270  HIS270      0.0745
    136  CG        -6.3770   27.9830  -13.3780 C.ar  270  HIS270      0.0817
    137  ND1       -7.7320   27.8530  -13.1300 N.ar  270  HIS270     -0.2268
    138  CD2       -6.0400   26.9670  -14.2080 C.ar  270  HIS270      0.1154
    139  CE1       -8.1970   26.8200  -13.8200 C.ar  270  HIS270      0.1986
    140  NE2       -7.1940   26.2690  -14.4830 N.ar  270  HIS270     -0.2212
@<TRIPOS>BOND
     1    76    75    2
     2    75    74    1
     3    74    73    1
     4    74    77    1
     5    84    85    1
     6   112   111    2
     7    77    78    1
     8    88    85    1
     9    88    89    1
    10   109   110    1
    11    85    86    1
    12    91    89   ar
    13    91    93   ar
    14    89    90   ar
    15    78    80   ar
    16    78    79   ar
    17    80    82   ar
    18   111   110    1
    19    93    94   ar
    20    86    87    2
    21   110   113    1
    22     8     6   am
    23    79    81   ar
    24     7     6    2
    25   113   115    1
    26   113   114    1
    27    82    83   ar
    28    71    70    2
    29   101   100    1
    30     6     5    1
    31    90    92   ar
    32   100   102    1
    33   100    99    1
    34    81    83   ar
    35    94    92   ar
    36    28    30   ar
    37    28    26   ar
    38    42    41    2
    39    30    29   ar
    40    70    69    1
    41    95    96    1
    42    26    25   ar
    43    26    24   ar
    44    25    23   ar
    45    60    59   ar
    46    60    58   ar
    47    59    57   ar
    48    99    96    1
    49    29    27   ar
    50     5     2    1
    51    58    56   ar
    52    57    55   ar
    53    56    55   ar
    54    55    54    1
    55    41    40    1
    56    54    51    1
    57    69    72    1
    58    69    68    1
    59    96    97    1
    60    24    27   ar
    61    24    22   ar
    62    23    22   ar
    63     2     3    1
    64     2     1    1
    65    22    21    1
    66    43    40    1
    67    43    44    1
    68    40    39    1
    69     3     4    2
    70    97    98    2
    71    21    18    1
    72    51    50    1
    73    51    52    1
    74    64    63    2
    75    45    44    1
    76    45    46    1
    77    52    53    2
    78    52    61   am
    79    48    47    1
    80    16    14   ar
    81    63    62    1
    82    46    47    2
    83    61    67    1
    84    61    62    1
    85    38    36    1
    86    18    19    1
    87    18    17    1
    88    67    66    1
    89    47    49    1
    90    20    19    2
    91    62    65    1
    92    15    14   ar
    93    17    11   am
    94    14    13    1
    95    37    35    1
    96    65    66    1
    97    36    35    1
    98   108   107    1
    99    35    32    1
   100   130   128    1
   101    11    12    2
   102    11    10    1
   103    13    10    1
   104   103   104    1
   105   140   138   ar
   106   140   139   ar
   107   107   104    1
   108   129   128    1
   109   138   136   ar
   110    10     9    1
   111   128   127    1
   112   121   120    1
   113    32    33    1
   114    32    31    1
   115   139   137   ar
   116   104   105    1
   117   136   137   ar
   118   136   135    1
   119    33    34    2
   120   135   132    1
   121   127   124    1
   122   105   106    2
   123   120   122    1
   124   120   117    1
   125   124   123    1
   126   124   125    1
   127   119   118    2
   128   123   118   am
   129   118   117    1
   130   126   125    2
   131   117   116    1
   132   132   133    1
   133   132   131    1
   134   133   134    2
