@<TRIPOS>MOLECULE
tmp/4c6hA00.pdb
 76 69 0 0 0
SMALL
GASTEIGER

@<TRIPOS>ATOM
      1  N         -7.0070   38.6260  -16.9290 N.3   144  ARG144     -0.1245
      2  CA        -5.6650   38.1870  -17.2950 C.3   144  ARG144      0.1563
      3  C         -5.6280   37.1890  -18.4760 C.2   144  ARG144      0.2260
      4  O         -4.5750   36.9580  -19.0410 O.2   144  ARG144     -0.2867
      5  CB        -4.9200   37.5870  -16.0960 C.3   144  ARG144      0.0307
      6  CG        -5.4870   36.2270  -15.6560 C.3   144  ARG144      0.0489
      7  CD        -4.7610   35.6890  -14.4180 C.3   144  ARG144      0.2205
      8  NE        -4.9940   36.5760  -13.3040 N.pl3 144  ARG144     -0.0865
      9  CZ        -4.0780   37.3250  -12.6680 C.cat 144  ARG144      0.5346
     10  NH1       -2.7780   37.3110  -12.9690 N.pl3 144  ARG144      0.1354
     11  NH2       -4.5150   38.1050  -11.7010 N.pl3 144  ARG144      0.1354
     12  N         -7.6420   38.2280  -23.6470 N.3   147  GLU147     -0.1231
     13  CA        -7.0260   38.3030  -24.9910 C.3   147  GLU147      0.1699
     14  C         -6.6190   36.9280  -25.5090 C.2   147  GLU147      0.2592
     15  O         -6.8530   36.5820  -26.6840 O.2   147  GLU147     -0.2718
     16  CB        -5.8070   39.2460  -25.0350 C.3   147  GLU147      0.0402
     17  CG        -6.1080   40.7080  -24.7050 C.3   147  GLU147      0.1161
     18  CD        -7.2320   41.3050  -25.5420 C.2   147  GLU147      0.3649
     19  OE1       -7.0800   41.4060  -26.7800 O.co2 147  GLU147     -0.2457
     20  OE2       -8.2800   41.6660  -24.9610 O.co2 147  GLU147     -0.2457
     21  N         -6.0070   36.1370  -24.6290 N.am  148  MET148     -0.1979
     22  CA        -5.5870   34.7910  -24.9960 C.3   148  MET148      0.1605
     23  C         -6.7770   33.9380  -25.4430 C.2   148  MET148      0.2287
     24  O         -6.7260   33.2870  -26.5030 O.2   148  MET148     -0.2864
     25  CB        -4.8810   34.1250  -23.8160 C.3   148  MET148      0.0413
     26  CG        -4.5420   32.6720  -24.0540 C.3   148  MET148      0.0598
     27  SD        -3.2960   32.4810  -25.3300 S.3   148  MET148     -0.1393
     28  CE        -1.8140   32.6540  -24.3280 C.3   148  MET148      0.0692
     29  N         -8.3530   34.8790  -28.7640 N.3   151  ALA151     -0.1245
     30  CA        -7.5230   34.4710  -29.8980 C.3   151  ALA151      0.1562
     31  C         -7.5730   32.9580  -30.1020 C.2   151  ALA151      0.2260
     32  O         -7.6130   32.4760  -31.2370 O.2   151  ALA151     -0.2867
     33  CB        -6.0870   34.9580  -29.7220 C.3   151  ALA151      0.0290
     34  N         -6.8960   31.8250  -35.3550 N.3   156  ALA156     -0.1245
     35  CA        -5.5100   31.8930  -34.8570 C.3   156  ALA156      0.1562
     36  C         -5.1520   30.7210  -33.9310 C.2   156  ALA156      0.2260
     37  O         -3.9750   30.4160  -33.7180 O.2   156  ALA156     -0.2867
     38  CB        -5.2790   33.2100  -34.1290 C.3   156  ALA156      0.0290
     39  N         -2.5900   27.7440  -34.9490 N.3   159  GLU159     -0.1231
     40  CA        -1.1880   28.1270  -34.9030 C.3   159  GLU159      0.1699
     41  C         -0.7090   28.3360  -33.4510 C.2   159  GLU159      0.2592
     42  O          0.3570   27.8510  -33.0710 O.2   159  GLU159     -0.2718
     43  CB        -0.9240   29.3730  -35.7420 C.3   159  GLU159      0.0402
     44  CG         0.5550   29.7100  -35.8430 C.3   159  GLU159      0.1161
     45  CD         0.8120   31.0830  -36.4420 C.2   159  GLU159      0.3649
     46  OE1       -0.0830   31.6270  -37.1250 O.co2 159  GLU159     -0.2457
     47  OE2        1.9150   31.6260  -36.2300 O.co2 159  GLU159     -0.2457
     48  N         -1.5160   29.0100  -32.6350 N.am  160  MET160     -0.1979
     49  CA        -1.1460   29.2140  -31.2360 C.3   160  MET160      0.1605
     50  C         -0.9010   27.9250  -30.4470 C.2   160  MET160      0.2287
     51  O         -0.0210   27.9090  -29.5920 O.2   160  MET160     -0.2864
     52  CB        -2.2200   30.0280  -30.5070 C.3   160  MET160      0.0413
     53  CG        -2.3420   31.4720  -30.9780 C.3   160  MET160      0.0598
     54  SD        -3.8840   32.1850  -30.4030 S.3   160  MET160     -0.1393
     55  CE        -3.4150   32.4520  -28.6850 C.3   160  MET160      0.0692
     56  N          1.0020   27.1000  -26.9300 N.3   166  LEU166     -0.1245
     57  CA         0.9430   28.2060  -25.9860 C.3   166  LEU166      0.1561
     58  C          0.0970   27.9300  -24.7480 C.2   166  LEU166      0.2260
     59  O          0.3250   28.5720  -23.7260 O.2   166  LEU166     -0.2867
     60  CB         0.4940   29.4980  -26.6710 C.3   166  LEU166      0.0270
     61  CG         1.5310   30.1110  -27.6290 C.3   166  LEU166      0.0019
     62  CD1        0.8240   31.2320  -28.3900 C.3   166  LEU166      0.0001
     63  CD2        2.7830   30.6040  -26.9130 C.3   166  LEU166      0.0001
     64  N          2.6900   29.0730  -22.2000 N.3   170  ALA170     -0.1231
     65  CA         2.4060   30.3970  -21.6770 C.3   170  ALA170      0.1694
     66  C          1.3880   30.3160  -20.5510 C.2   170  ALA170      0.2591
     67  O          1.6140   30.8430  -19.4460 O.2   170  ALA170     -0.2718
     68  CB         1.8900   31.2930  -22.7960 C.3   170  ALA170      0.0304
     69  N          0.2540   29.6720  -20.8130 N.am  171  LEU171     -0.1980
     70  CA        -0.7930   29.7100  -19.7900 C.3   171  LEU171      0.1596
     71  C         -0.4260   28.9840  -18.5020 C.2   171  LEU171      0.2287
     72  O         -0.7700   29.4610  -17.4040 O.2   171  LEU171     -0.2864
     73  CB        -2.1530   29.2970  -20.3470 C.3   171  LEU171      0.0297
     74  CG        -2.7340   30.2570  -21.3820 C.3   171  LEU171      0.0022
     75  CD1       -4.1040   29.7360  -21.7900 C.3   171  LEU171      0.0001
     76  CD2       -2.8440   31.6860  -20.8550 C.3   171  LEU171      0.0001
@<TRIPOS>BOND
     1    46    45   ar
     2    45    47   ar
     3    45    44    1
     4    44    43    1
     5    43    40    1
     6    34    35    1
     7    39    40    1
     8    40    41    1
     9    35    38    1
    10    35    36    1
    11    36    37    2
    12    41    42    2
    13    41    48   am
    14    48    49    1
    15    32    31    2
    16    49    52    1
    17    49    50    1
    18    53    52    1
    19    53    54    1
    20    50    51    2
    21    54    55    1
    22    31    30    1
    23    30    33    1
    24    30    29    1
    25    62    61    1
    26    61    63    1
    27    61    60    1
    28    56    57    1
    29    19    18   ar
    30    15    14    2
    31    60    57    1
    32    24    23    2
    33    57    58    1
    34    18    20   ar
    35    18    17    1
    36    14    13    1
    37    14    21   am
    38    23    22    1
    39    27    28    1
    40    27    26    1
    41    16    13    1
    42    16    17    1
    43    22    21    1
    44    22    25    1
    45    13    12    1
    46    58    59    2
    47    26    25    1
    48    68    65    1
    49    64    65    1
    50    75    74    1
    51    65    66    1
    52    74    76    1
    53    74    73    1
    54    69    66   am
    55    69    70    1
    56    66    67    2
    57    73    70    1
    58    70    71    1
    59     4     3    2
    60    71    72    2
    61     3     2    1
    62     2     1    1
    63     2     5    1
    64     5     6    1
    65     6     7    1
    66     7     8    1
    67     8     9    2
    68    10     9    1
    69     9    11    1
