@<TRIPOS>MOLECULE
tmp/4c6vA00.pdb
 160 152 0 0 0
SMALL
GASTEIGER

@<TRIPOS>ATOM
      1  N         39.1090   -1.5630   37.8080 N.3   170  CYS170     -0.1235
      2  CA        39.4590   -2.7480   37.0390 C.3   170  CYS170      0.1677
      3  C         40.8590   -3.2710   37.2780 C.2   170  CYS170      0.2270
      4  O         41.1660   -4.4080   36.9250 O.2   170  CYS170     -0.2867
      5  CB        39.2190   -2.4750   35.5560 C.3   170  CYS170      0.0956
      6  SG        37.5690   -1.7750   35.3000 S.3   170  CYS170     -0.0801
      7  N         27.3840    3.7690   29.8070 N.3   212  MET212     -0.1245
      8  CA        28.6550    4.3180   29.3450 C.3   212  MET212      0.1570
      9  C         28.8760    4.1230   27.8350 C.2   212  MET212      0.2261
     10  O         29.6940    4.8260   27.2270 O.2   212  MET212     -0.2867
     11  CB        29.7790    3.6720   30.1370 C.3   212  MET212      0.0387
     12  CG        29.6480    3.9400   31.6330 C.3   212  MET212      0.0595
     13  SD        31.2370    3.9060   32.5030 S.3   212  MET212     -0.1393
     14  CE        32.3850    3.9640   31.1000 C.3   212  MET212      0.0692
     15  N         29.8740    1.1100   27.0210 N.3   214  ALA214     -0.1245
     16  CA        31.1130    0.3510   27.2360 C.3   214  ALA214      0.1562
     17  C         30.9090   -1.1090   26.9490 C.2   214  ALA214      0.2260
     18  O         31.8540   -1.8600   26.9020 O.2   214  ALA214     -0.2867
     19  CB        31.6050    0.5220   28.6970 C.3   214  ALA214      0.0290
     20  N         32.9240   -4.3480   26.1510 N.3   236  PHE236     -0.1241
     21  CA        33.3410   -5.4600   26.9700 C.3   236  PHE236      0.1605
     22  C         32.1990   -6.3930   27.3050 C.2   236  PHE236      0.2264
     23  O         31.0290   -6.0450   27.1710 O.2   236  PHE236     -0.2867
     24  CB        34.1390   -4.9950   28.1980 C.3   236  PHE236      0.0534
     25  CG        33.3190   -4.4360   29.3320 C.ar  236  PHE236     -0.0203
     26  CD1       32.6730   -5.2770   30.2300 C.ar  236  PHE236     -0.0042
     27  CD2       33.2770   -3.0830   29.5540 C.ar  236  PHE236     -0.0042
     28  CE1       31.9350   -4.7660   31.2920 C.ar  236  PHE236     -0.0003
     29  CE2       32.5450   -2.5370   30.6210 C.ar  236  PHE236     -0.0003
     30  CZ        31.8700   -3.3900   31.4940 C.ar  236  PHE236     -0.0000
     31  N         46.5750    8.4240   35.0180 N.3   272  ASP272     -0.1239
     32  CA        46.3320    9.2460   33.8600 C.3   272  ASP272      0.1674
     33  C         46.1400   10.7130   34.1390 C.2   272  ASP272      0.2266
     34  O         46.6530   11.5120   33.4020 O.2   272  ASP272     -0.2867
     35  CB        45.1320    8.7170   33.0910 C.3   272  ASP272      0.1410
     36  CG        45.4730    7.5210   32.2450 C.2   272  ASP272      0.3668
     37  OD1       46.6670    7.1340   32.1850 O.co2 272  ASP272     -0.2456
     38  OD2       44.5480    6.9730   31.6110 O.co2 272  ASP272     -0.2456
     39  N         40.7350   11.5900   32.6080 N.3   275  HIS275     -0.1241
     40  CA        39.3060   11.5690   32.6490 C.3   275  HIS275      0.1621
     41  C         38.8350   10.5750   33.6850 C.2   275  HIS275      0.2264
     42  O         39.4750    9.5390   33.9070 O.2   275  HIS275     -0.2867
     43  CB        38.8270   11.1080   31.3050 C.3   275  HIS275      0.0745
     44  CG        37.3810   11.3730   31.0540 C.ar  275  HIS275      0.0817
     45  ND1       36.3830   10.5390   31.5080 N.ar  275  HIS275     -0.2268
     46  CD2       36.7660   12.3720   30.3800 C.ar  275  HIS275      0.1154
     47  CE1       35.2130   11.0200   31.1310 C.ar  275  HIS275      0.1986
     48  NE2       35.4160   12.1380   30.4550 N.ar  275  HIS275     -0.2212
     49  N         36.5620    8.2330   33.6010 N.3   277  VAL277     -0.1231
     50  CA        36.2900    6.8590   33.1550 C.3   277  VAL277      0.1692
     51  C         37.0750    6.4290   31.9080 C.2   277  VAL277      0.2592
     52  O         37.4690    5.2620   31.8150 O.2   277  VAL277     -0.2718
     53  CB        34.7840    6.5740   32.9520 C.3   277  VAL277      0.0266
     54  CG1       34.1250    6.2660   34.2550 C.3   277  VAL277      0.0020
     55  CG2       34.0650    7.7550   32.2520 C.3   277  VAL277      0.0020
     56  N         37.3170    7.3450   30.9660 N.am  278  ALA278     -0.1966
     57  CA        38.0910    7.0280   29.7480 C.3   278  ALA278      0.1713
     58  C         39.6350    7.1380   29.8930 C.2   278  ALA278      0.2458
     59  O         40.1590    8.0040   30.6270 O.2   278  ALA278     -0.2730
     60  CB        37.6090    7.8840   28.5570 C.3   278  ALA278      0.0333
     61  N         40.3730    6.2570   29.1930 N.am  279  PRO279     -0.2727
     62  CA        41.8280    6.2880   29.2840 C.3   279  PRO279      0.1402
     63  C         42.3880    7.3710   28.3990 C.2   279  PRO279      0.2269
     64  O         41.7430    7.7370   27.4230 O.2   279  PRO279     -0.2865
     65  CB        42.2390    4.9300   28.7230 C.3   279  PRO279      0.0296
     66  CG        41.1490    4.5270   27.8260 C.3   279  PRO279      0.0237
     67  CD        39.8870    5.1290   28.3790 C.3   279  PRO279      0.0939
     68  N         50.0970    5.0210   30.9190 N.3   286  ALA286     -0.1245
     69  CA        49.9400    3.5630   30.9700 C.3   286  ALA286      0.1562
     70  C         51.2450    2.8590   30.5010 C.2   286  ALA286      0.2260
     71  O         51.7090    1.8820   31.1270 O.2   286  ALA286     -0.2867
     72  CB        48.7250    3.1400   30.1470 C.3   286  ALA286      0.0290
     73  N         45.4240   -5.7300   28.8650 N.3   310  HIS310     -0.1241
     74  CA        44.1540   -5.4480   29.5240 C.3   310  HIS310      0.1621
     75  C         42.9440   -5.7740   28.6080 C.2   310  HIS310      0.2264
     76  O         41.9600   -6.3580   29.0640 O.2   310  HIS310     -0.2867
     77  CB        44.1180   -4.0260   30.0570 C.3   310  HIS310      0.0745
     78  CG        42.9420   -3.7660   30.9300 C.ar  310  HIS310      0.0817
     79  ND1       42.7650   -4.3980   32.1400 N.ar  310  HIS310     -0.2268
     80  CD2       41.8560   -2.9810   30.7530 C.ar  310  HIS310      0.1154
     81  CE1       41.6240   -4.0070   32.6780 C.ar  310  HIS310      0.1986
     82  NE2       41.0530   -3.1540   31.8490 N.ar  310  HIS310     -0.2212
     83  N         40.0060   -4.8430   26.9480 N.3   312  THR312     -0.1218
     84  CA        38.5770   -4.9080   27.3090 C.3   312  THR312      0.1862
     85  C         37.5930   -5.0360   26.1330 C.2   312  THR312      0.2287
     86  O         36.4510   -5.4900   26.3110 O.2   312  THR312     -0.2866
     87  CB        38.1990   -3.6620   28.0380 C.3   312  THR312      0.1770
     88  OG1       38.6350   -2.5300   27.2550 O.3   312  THR312     -0.2211
     89  CG2       38.8830   -3.6870   29.3860 C.3   312  THR312      0.0375
     90  N         36.6680   -2.4790   24.0830 N.3   314  THR314     -0.1218
     91  CA        36.0430   -1.1800   23.7750 C.3   314  THR314      0.1862
     92  C         36.8600   -0.4680   22.6950 C.2   314  THR314      0.2287
     93  O         38.0810   -0.6820   22.5870 O.2   314  THR314     -0.2866
     94  CB        35.9510   -0.2500   25.0200 C.3   314  THR314      0.1770
     95  OG1       37.2520   -0.0610   25.5930 O.3   314  THR314     -0.2211
     96  CG2       35.0370   -0.8450   26.1030 C.3   314  THR314      0.0375
     97  N         37.8620    2.7530   22.2960 N.3   316  ILE316     -0.1231
     98  CA        38.9130    3.6370   22.8030 C.3   316  ILE316      0.1692
     99  C         39.8550    2.9250   23.7610 C.2   316  ILE316      0.2592
    100  O         41.0380    3.2690   23.8450 O.2   316  ILE316     -0.2718
    101  CB        38.3620    4.9430   23.4270 C.3   316  ILE316      0.0266
    102  CG1       37.8370    4.7000   24.8280 C.3   316  ILE316      0.0019
    103  CG2       37.2780    5.5830   22.5420 C.3   316  ILE316      0.0020
    104  CD1       37.2040    5.8980   25.3990 C.3   316  ILE316      0.0001
    105  N         39.3320    1.9070   24.4390 N.am  317  GLY317     -0.1957
    106  CA        40.0770    1.1960   25.4640 C.3   317  GLY317      0.1869
    107  C         41.3200    0.5900   24.8620 C.2   317  GLY317      0.2309
    108  O         42.4460    0.8420   25.3390 O.2   317  GLY317     -0.2863
    109  N         35.3760   -9.8270   31.4530 N.3   344  HIS344     -0.1241
    110  CA        35.9380   -8.8180   32.3290 C.3   344  HIS344      0.1621
    111  C         35.2670   -8.9520   33.6980 C.2   344  HIS344      0.2264
    112  O         34.0770   -9.1740   33.7660 O.2   344  HIS344     -0.2867
    113  CB        35.6240   -7.4560   31.6690 C.3   344  HIS344      0.0745
    114  CG        36.3390   -6.2820   32.2670 C.ar  344  HIS344      0.0817
    115  ND1       37.0460   -6.3470   33.4460 N.ar  344  HIS344     -0.2268
    116  CD2       36.3990   -4.9890   31.8640 C.ar  344  HIS344      0.1154
    117  CE1       37.5180   -5.1480   33.7390 C.ar  344  HIS344      0.1986
    118  NE2       37.1400   -4.3070   32.7950 N.ar  344  HIS344     -0.2212
    119  N         44.5550   -1.7860   33.5850 N.3   401  PHE401     -0.1227
    120  CA        44.1870   -0.3630   33.7170 C.3   401  PHE401      0.1736
    121  C         42.7540   -0.2800   34.2130 C.2   401  PHE401      0.2596
    122  O         41.9950   -1.1740   33.9170 O.2   401  PHE401     -0.2718
    123  CB        44.3000    0.3410   32.3540 C.3   401  PHE401      0.0547
    124  CG        45.5210   -0.0620   31.5720 C.ar  401  PHE401     -0.0202
    125  CD1       46.7880    0.1640   32.0730 C.ar  401  PHE401     -0.0042
    126  CD2       45.4030   -0.6780   30.3410 C.ar  401  PHE401     -0.0042
    127  CE1       47.9330   -0.2320   31.3430 C.ar  401  PHE401     -0.0003
    128  CE2       46.5280   -1.0520   29.6110 C.ar  401  PHE401     -0.0003
    129  CZ        47.7940   -0.8240   30.1110 C.ar  401  PHE401     -0.0000
    130  N         42.3580    0.7580   34.9460 N.am  402  GLY402     -0.1942
    131  CA        40.9570    0.8560   35.3540 C.3   402  GLY402      0.2014
    132  C         40.4260    2.2710   35.3840 C.2   402  GLY402      0.2639
    133  O         41.2040    3.2160   35.5600 O.2   402  GLY402     -0.2714
    134  N         39.1100    2.4200   35.2220 N.am  403  PHE403     -0.1959
    135  CA        38.4390    3.7040   35.3800 C.3   403  PHE403      0.1771
    136  C         39.0160    4.4880   36.5500 C.2   403  PHE403      0.2620
    137  O         39.2800    3.8910   37.6140 O.2   403  PHE403     -0.2715
    138  CB        36.9540    3.4760   35.6320 C.3   403  PHE403      0.0574
    139  CG        36.3280    2.5760   34.6400 C.ar  403  PHE403     -0.0200
    140  CD1       35.9670    3.0500   33.3930 C.ar  403  PHE403     -0.0042
    141  CD2       36.1270    1.2540   34.9330 C.ar  403  PHE403     -0.0042
    142  CE1       35.4070    2.2030   32.4560 C.ar  403  PHE403     -0.0003
    143  CE2       35.5730    0.3950   34.0040 C.ar  403  PHE403     -0.0003
    144  CZ        35.2030    0.8650   32.7740 C.ar  403  PHE403     -0.0000
    145  N         39.1540    5.8150   36.3610 N.am  404  GLY404     -0.1940
    146  CA        39.9500    6.7190   37.2230 C.3   404  GLY404      0.2014
    147  C         41.3050    6.9970   36.5380 C.2   404  GLY404      0.2639
    148  O         42.0570    7.9350   36.8910 O.2   404  GLY404     -0.2714
    149  N         41.6290    6.1620   35.5530 N.am  405  GLY405     -0.1954
    150  CA        42.9050    6.2550   34.8770 C.3   405  GLY405      0.1869
    151  C         44.0540    5.6250   35.6490 C.2   405  GLY405      0.2309
    152  O         45.1460    6.2080   35.7320 O.2   405  GLY405     -0.2863
    153  N         46.8590    2.7690   36.2260 N.3   407  ASN407     -0.1240
    154  CA        47.6730    1.8680   35.4470 C.3   407  ASN407      0.1653
    155  C         48.5810    0.9640   36.3030 C.2   407  ASN407      0.2266
    156  O         49.3890    1.4490   37.1280 O.2   407  ASN407     -0.2867
    157  CB        48.5230    2.6970   34.5040 C.3   407  ASN407      0.1155
    158  CG        47.7210    3.7350   33.7490 C.2   407  ASN407      0.2627
    159  OD1       46.6870    3.4200   33.1370 O.2   407  ASN407     -0.2716
    160  ND2       48.2040    4.9820   33.7610 N.am  407  ASN407     -0.0877
@<TRIPOS>BOND
     1    97    98    1
     2   103   101    1
     3    93    92    2
     4    92    91    1
     5    98   101    1
     6    98    99    1
     7   101   102    1
     8    99   100    2
     9    99   105   am
    10    91    90    1
    11    91    94    1
    12   105   106    1
    13   102   104    1
    14   107   108    2
    15   107   106    1
    16    94    95    1
    17    94    96    1
    18    85    86    2
    19    85    84    1
    20    20    21    1
    21    18    17    2
    22    83    84    1
    23    17    16    1
    24    21    22    1
    25    21    24    1
    26    15    16    1
    27    23    22    2
    28    10     9    2
    29    16    19    1
    30    88    87    1
    31    84    87    1
    32    64    63    2
    33    66    67    1
    34    66    65    1
    35     9     8    1
    36    87    89    1
    37    24    25    1
    38    67    61    1
    39    63    62    1
    40    60    57    1
    41    75    76    2
    42    75    74    1
    43    65    62    1
    44    73    74    1
    45    61    62    1
    46    61    58   am
    47    25    27   ar
    48    25    26   ar
    49     8     7    1
    50     8    11    1
    51    74    77    1
    52    27    29   ar
    53   128   129   ar
    54   128   126   ar
    55    57    58    1
    56    57    56    1
    57    58    59    2
    58    77    78    1
    59   129   127   ar
    60    11    12    1
    61    72    69    1
    62    26    28   ar
    63   126   124   ar
    64    46    48   ar
    65    46    44   ar
    66    48    47   ar
    67    70    69    1
    68    70    71    2
    69    29    30   ar
    70    80    78   ar
    71    80    82   ar
    72    68    69    1
    73    78    79   ar
    74    56    51   am
    75    44    43    1
    76    44    45   ar
    77    14    13    1
    78    47    45   ar
    79    28    30   ar
    80    43    40    1
    81   127   125   ar
    82   109   110    1
    83   124   125   ar
    84   124   123    1
    85    38    36   ar
    86    12    13    1
    87   113   114    1
    88   113   110    1
    89    52    51    2
    90    82    81   ar
    91   116   114   ar
    92   116   118   ar
    93    51    50    1
    94    79    81   ar
    95    37    36   ar
    96    36    35    1
    97    55    53    1
    98   114   115   ar
    99   110   111    1
   100   123   120    1
   101   142   144   ar
   102   142   140   ar
   103    39    40    1
   104    40    41    1
   105   144   143   ar
   106   118   117   ar
   107    53    50    1
   108    53    54    1
   109    35    32    1
   110   159   158    2
   111    50    49    1
   112   140   139   ar
   113    34    33    2
   114   115   117   ar
   115   119   120    1
   116    41    42    2
   117   111   112    2
   118   120   121    1
   119   158   160   am
   120   158   157    1
   121    32    33    1
   122    32    31    1
   123   122   121    2
   124   143   141   ar
   125   121   130   am
   126   157   154    1
   127   139   141   ar
   128   139   138    1
   129   150   149    1
   130   150   151    1
   131   130   131    1
   132   134   135    1
   133   134   132   am
   134     6     5    1
   135   131   132    1
   136   135   138    1
   137   135   136    1
   138   132   133    2
   139   154   153    1
   140   154   155    1
   141   149   147   am
   142     5     2    1
   143   151   152    2
   144   155   156    2
   145   145   136   am
   146   145   146    1
   147   147   148    2
   148   147   146    1
   149   136   137    2
   150     4     3    2
   151     2     3    1
   152     2     1    1
