@<TRIPOS>MOLECULE
tmp/4c6yA00.pdb
 84 77 0 0 0
SMALL
GASTEIGER

@<TRIPOS>ATOM
      1  N         -9.0990   10.0370  -54.4440 N.3    44  SER44      -0.1217
      2  CA       -10.1270    9.3190  -55.2190 C.3    44  SER44       0.1889
      3  C        -11.3750    8.8990  -54.4710 C.2    44  SER44       0.2288
      4  O        -12.3050    8.4200  -55.0950 O.2    44  SER44      -0.2866
      5  CB        -9.5440    8.0780  -55.8770 C.3    44  SER44       0.2089
      6  OG        -8.7570    8.4420  -56.9780 O.3    44  SER44      -0.2183
      7  N         -2.7400   11.3180  -65.6970 N.3    78  ASP78      -0.1225
      8  CA        -2.0810   10.3040  -64.8740 C.3    78  ASP78       0.1805
      9  C         -3.0690    9.2750  -64.3200 C.2    78  ASP78       0.2597
     10  O         -4.1600    9.6190  -63.9070 O.2    78  ASP78      -0.2718
     11  CB        -1.3400   10.9730  -63.7070 C.3    78  ASP78       0.1424
     12  CG        -0.3970    9.9880  -63.0240 C.2    78  ASP78       0.3668
     13  OD1        0.6940    9.7770  -63.5620 O.co2  78  ASP78      -0.2456
     14  OD2       -0.7270    9.4760  -61.9190 O.co2  78  ASP78      -0.2456
     15  N         -2.6470    8.0180  -64.3670 N.am   79  TYR79      -0.1976
     16  CA        -3.3780    6.9030  -63.7720 C.3    79  TYR79       0.1639
     17  C         -4.7650    6.6770  -64.3500 C.2    79  TYR79       0.2290
     18  O         -5.7890    6.9340  -63.7000 O.2    79  TYR79      -0.2864
     19  CB        -3.4930    7.0920  -62.2720 C.3    79  TYR79       0.0560
     20  CG        -3.6360    5.7780  -61.5690 C.ar   79  TYR79      -0.0198
     21  CD1       -4.8910    5.1820  -61.3870 C.ar   79  TYR79      -0.0009
     22  CD2       -2.5090    5.1100  -61.1020 C.ar   79  TYR79      -0.0009
     23  CE1       -5.0110    3.9740  -60.7620 C.ar   79  TYR79       0.0417
     24  CE2       -2.6170    3.9030  -60.4610 C.ar   79  TYR79       0.0417
     25  CZ        -3.8660    3.3340  -60.2850 C.ar   79  TYR79       0.1957
     26  OH        -3.9610    2.1210  -59.6350 O.3    79  TYR79      -0.2866
     27  N        -10.1400    3.2700  -59.8090 N.3   104  SER104     -0.1217
     28  CA        -9.6950    4.6470  -59.5580 C.3   104  SER104      0.1889
     29  C         -9.1280    5.2930  -60.8130 C.2   104  SER104      0.2288
     30  O         -8.0710    5.9410  -60.7790 O.2   104  SER104     -0.2866
     31  CB        -8.6550    4.7180  -58.4570 C.3   104  SER104      0.2089
     32  OG        -9.2570    4.5490  -57.1990 O.3   104  SER104     -0.2183
     33  N         -8.5790    7.9960  -63.2900 N.3   106  ASN106     -0.1240
     34  CA        -8.6770    9.4640  -63.1930 C.3   106  ASN106      0.1653
     35  C         -9.3380   10.1470  -64.4060 C.2   106  ASN106      0.2266
     36  O        -10.1500   11.0730  -64.2480 O.2   106  ASN106     -0.2867
     37  CB        -7.2850   10.0510  -62.9840 C.3   106  ASN106      0.1155
     38  CG        -6.7840    9.9160  -61.5470 C.2   106  ASN106      0.2627
     39  OD1       -7.5530    9.6780  -60.6090 O.2   106  ASN106     -0.2716
     40  ND2       -5.4930   10.1220  -61.3670 N.am  106  ASN106     -0.0877
     41  N         -5.4650   15.5340  -56.1770 N.3   144  ASN144     -0.1240
     42  CA        -4.7610   14.6050  -55.2870 C.3   144  ASN144      0.1653
     43  C         -3.5340   15.2040  -54.6100 C.2   144  ASN144      0.2266
     44  O         -2.7680   14.4950  -53.9700 O.2   144  ASN144     -0.2867
     45  CB        -4.3380   13.3650  -56.0720 C.3   144  ASN144      0.1155
     46  CG        -5.5030   12.6860  -56.7190 C.2   144  ASN144      0.2627
     47  OD1       -6.4200   12.2260  -56.0450 O.2   144  ASN144     -0.2716
     48  ND2       -5.5240   12.6900  -58.0570 N.am  144  ASN144     -0.0877
     49  N         -9.3740   -2.0310  -56.0110 N.3   190  THR190     -0.1218
     50  CA        -8.1990   -1.3300  -55.4820 C.3   190  THR190      0.1862
     51  C         -8.0070   -1.4370  -53.9780 C.2   190  THR190      0.2287
     52  O         -7.0360   -0.8870  -53.4540 O.2   190  THR190     -0.2866
     53  CB        -8.2420    0.1580  -55.7660 C.3   190  THR190      0.1770
     54  OG1       -9.2900    0.7760  -54.9930 O.3   190  THR190     -0.2211
     55  CG2       -8.4020    0.4590  -57.2600 C.3   190  THR190      0.0375
     56  N         -6.2410   -2.8060  -47.9740 N.3   194  ARG194     -0.1245
     57  CA        -6.6370   -1.7500  -47.0520 C.3   194  ARG194      0.1563
     58  C         -7.6860   -2.2830  -46.1030 C.2   194  ARG194      0.2260
     59  O         -7.4010   -3.3050  -45.4480 O.2   194  ARG194     -0.2867
     60  CB        -7.0730   -0.5190  -47.8430 C.3   194  ARG194      0.0307
     61  CG        -5.8470    0.0120  -48.6000 C.3   194  ARG194      0.0489
     62  CD        -6.1340    1.3400  -49.2960 C.3   194  ARG194      0.2205
     63  NE        -5.0710    1.6640  -50.2400 N.pl3 194  ARG194     -0.0865
     64  CZ        -4.9700    2.8040  -50.9210 C.cat 194  ARG194      0.5346
     65  NH1       -5.8720    3.7670  -50.7520 N.pl3 194  ARG194      0.1354
     66  NH2       -3.9420    2.9870  -51.7610 N.pl3 194  ARG194      0.1354
     67  N        -11.2560    3.5850  -52.4820 N.3   209  THR209     -0.1203
     68  CA        -9.9820    4.0150  -51.9460 C.3   209  THR209      0.1994
     69  C         -9.5990    5.4130  -52.4490 C.2   209  THR209      0.2618
     70  O        -10.1720    5.9320  -53.4370 O.2   209  THR209     -0.2717
     71  CB        -8.8820    3.0520  -52.3710 C.3   209  THR209      0.1784
     72  OG1       -8.8510    2.9980  -53.7960 O.3   209  THR209     -0.2211
     73  CG2       -9.1340    1.6620  -51.8270 C.3   209  THR209      0.0376
     74  N         -8.5960    5.9970  -51.7950 N.am  210  GLY210     -0.1942
     75  CA        -7.9510    7.2120  -52.2870 C.3   210  GLY210      0.2014
     76  C         -6.4760    7.1740  -51.9820 C.2   210  GLY210      0.2639
     77  O         -6.0510    6.6370  -50.9370 O.2   210  GLY210     -0.2714
     78  N         -5.6820    7.7230  -52.8960 N.am  211  THR211     -0.1950
     79  CA        -4.2530    7.8490  -52.6900 C.3   211  THR211      0.1897
     80  C         -3.7810    9.1800  -53.2440 C.2   211  THR211      0.2313
     81  O         -4.2120    9.5950  -54.3300 O.2   211  THR211     -0.2863
     82  CB        -3.4890    6.7120  -53.3800 C.3   211  THR211      0.1794
     83  OG1       -4.1390    5.4710  -53.0620 O.3   211  THR211     -0.2208
     84  CG2       -2.0780    6.6830  -52.8980 C.3   211  THR211      0.0378
@<TRIPOS>BOND
     1     7     8    1
     2     8     9    1
     3     8    11    1
     4    35    36    2
     5    35    34    1
     6    15     9   am
     7    15    16    1
     8    17    16    1
     9    17    18    2
    10     9    10    2
    11    16    19    1
    12    11    12    1
    13    13    12   ar
    14    33    34    1
    15    34    37    1
    16    12    14   ar
    17    37    38    1
    18    19    20    1
    19    20    21   ar
    20    20    22   ar
    21    38    40   am
    22    38    39    2
    23    21    23   ar
    24    22    24   ar
    25    29    30    2
    26    29    28    1
    27    23    25   ar
    28    24    25   ar
    29    25    26    1
    30    27    28    1
    31    28    31    1
    32    31    32    1
    33    48    46   am
    34    55    53    1
    35     6     5    1
    36    46    45    1
    37    46    47    2
    38    41    42    1
    39    45    42    1
    40    49    50    1
    41     5     2    1
    42    53    50    1
    43    53    54    1
    44    50    51    1
    45    42    43    1
    46     2     3    1
    47     2     1    1
    48     4     3    2
    49    43    44    2
    50    81    80    2
    51    51    52    2
    52    72    71    1
    53    70    69    2
    54    82    83    1
    55    82    84    1
    56    82    79    1
    57    80    79    1
    58    78    79    1
    59    78    76   am
    60    67    68    1
    61    69    68    1
    62    69    74   am
    63    71    68    1
    64    71    73    1
    65    75    76    1
    66    75    74    1
    67    76    77    2
    68    66    64    1
    69    64    65    1
    70    64    63    2
    71    63    62    1
    72    62    61    1
    73    61    60    1
    74    56    57    1
    75    60    57    1
    76    57    58    1
    77    58    59    2
