@<TRIPOS>MOLECULE
tmp/4c6yA06.pdb
 90 89 0 0 0
SMALL
GASTEIGER

@<TRIPOS>ATOM
      1  N         -1.2810   11.5710  -39.7540 N.3    18  ARG18      -0.1245
      2  CA        -2.5240   12.0740  -39.1750 C.3    18  ARG18       0.1563
      3  C         -3.6430   11.1660  -39.6450 C.2    18  ARG18       0.2260
      4  O         -3.8720   11.0060  -40.8610 O.2    18  ARG18      -0.2867
      5  CB        -2.7720   13.5490  -39.5810 C.3    18  ARG18       0.0307
      6  CG        -4.0100   14.1730  -38.9340 C.3    18  ARG18       0.0489
      7  CD        -4.0140   15.6910  -39.0750 C.3    18  ARG18       0.2205
      8  NE        -4.1720   16.0610  -40.4730 N.pl3  18  ARG18      -0.0865
      9  CZ        -5.3400   16.3020  -41.0590 C.cat  18  ARG18       0.5346
     10  NH1       -6.4630   16.2980  -40.3600 N.pl3  18  ARG18       0.1354
     11  NH2       -5.3660   16.5860  -42.3640 N.pl3  18  ARG18       0.1354
     12  N        -10.4490   18.1160  -41.2790 N.3    39  ARG39      -0.1231
     13  CA       -10.4400   17.9430  -42.7370 C.3    39  ARG39       0.1694
     14  C         -9.2630   17.1120  -43.2150 C.2    39  ARG39       0.2592
     15  O         -8.1360   17.2100  -42.7040 O.2    39  ARG39      -0.2718
     16  CB       -10.4480   19.3050  -43.4370 C.3    39  ARG39       0.0321
     17  CG       -11.8160   19.9480  -43.4520 C.3    39  ARG39       0.0489
     18  CD       -11.8470   21.3000  -44.2080 C.3    39  ARG39       0.2205
     19  NE       -13.1990   21.8600  -44.1870 N.pl3  39  ARG39      -0.0865
     20  CZ       -14.1860   21.4920  -45.0050 C.cat  39  ARG39       0.5346
     21  NH1      -13.9900   20.5690  -45.9410 N.pl3  39  ARG39       0.1354
     22  NH2      -15.3860   22.0280  -44.8690 N.pl3  39  ARG39       0.1354
     23  N         -9.5510   16.2810  -44.2170 N.am   40  PHE40      -0.1963
     24  CA        -8.5720   15.4430  -44.8590 C.3    40  PHE40       0.1756
     25  C         -8.7710   15.5000  -46.3660 C.2    40  PHE40       0.2461
     26  O         -9.8970   15.5690  -46.8250 O.2    40  PHE40      -0.2730
     27  CB        -8.7060   13.9630  -44.4420 C.3    40  PHE40       0.0574
     28  CG        -8.3520   13.6780  -43.0010 C.ar   40  PHE40      -0.0200
     29  CD1       -9.2740   13.9020  -41.9840 C.ar   40  PHE40      -0.0042
     30  CD2       -7.1170   13.1330  -42.6730 C.ar   40  PHE40      -0.0042
     31  CE1       -8.9480   13.6180  -40.6600 C.ar   40  PHE40      -0.0003
     32  CE2       -6.8010   12.8270  -41.3430 C.ar   40  PHE40      -0.0003
     33  CZ        -7.7090   13.0780  -40.3530 C.ar   40  PHE40      -0.0000
     34  N         -7.6810   15.3850  -47.1330 N.am   41  PRO41      -0.2727
     35  CA        -7.8410   15.3330  -48.5880 C.3    41  PRO41       0.1402
     36  C         -8.5380   14.0480  -49.0520 C.2    41  PRO41       0.2269
     37  O         -8.1560   12.9450  -48.6630 O.2    41  PRO41      -0.2865
     38  CB        -6.4040   15.4040  -49.1210 C.3    41  PRO41       0.0296
     39  CG        -5.5180   15.2260  -48.0000 C.3    41  PRO41       0.0237
     40  CD        -6.2760   15.4430  -46.7070 C.3    41  PRO41       0.0939
     41  N         -2.0380   18.9040  -50.0680 N.3   147  LEU147     -0.1231
     42  CA        -1.2090   19.8370  -49.3300 C.3   147  LEU147      0.1678
     43  C         -1.7230   19.9450  -47.9000 C.2   147  LEU147      0.2434
     44  O         -2.9140   20.1950  -47.7040 O.2   147  LEU147     -0.2733
     45  CB        -1.2740   21.1990  -50.0350 C.3   147  LEU147      0.0284
     46  CG        -0.1190   22.1840  -50.0640 C.3   147  LEU147      0.0019
     47  CD1        1.2030   21.5030  -50.3390 C.3   147  LEU147      0.0001
     48  CD2       -0.4400   23.2040  -51.1550 C.3   147  LEU147      0.0001
     49  N         -0.8480   19.7840  -46.8950 N.am  148  PRO148     -0.2718
     50  CA        -1.3420   19.9650  -45.5210 C.3   148  PRO148      0.1535
     51  C         -1.8600   21.3850  -45.2760 C.2   148  PRO148      0.2599
     52  O         -1.1980   22.3440  -45.6820 O.2   148  PRO148     -0.2715
     53  CB        -0.1000   19.6620  -44.6600 C.3   148  PRO148      0.0310
     54  CG         0.7600   18.8060  -45.5180 C.3   148  PRO148      0.0237
     55  CD         0.5590   19.3460  -46.9170 C.3   148  PRO148      0.0939
     56  N         -3.0380   21.5210  -44.6720 N.am  149  GLY149     -0.1941
     57  CA        -3.5810   22.8470  -44.3850 C.3   149  GLY149      0.2014
     58  C         -4.4450   23.4000  -45.5070 C.2   149  GLY149      0.2639
     59  O         -5.0640   24.4560  -45.3770 O.2   149  GLY149     -0.2714
     60  N         -4.4750   22.6950  -46.6300 N.am  150  ASP150     -0.1957
     61  CA        -5.2740   23.1130  -47.7660 C.3   150  ASP150      0.1825
     62  C         -6.6970   22.5540  -47.6480 C.2   150  ASP150      0.2464
     63  O         -6.8800   21.3170  -47.5960 O.2   150  ASP150     -0.2730
     64  CB        -4.5930   22.6400  -49.0600 C.3   150  ASP150      0.1450
     65  CG        -5.2200   23.2150  -50.3220 C.2   150  ASP150      0.3671
     66  OD1       -6.3070   23.8370  -50.2720 O.co2 150  ASP150     -0.2456
     67  OD2       -4.6090   23.0280  -51.3860 O.co2 150  ASP150     -0.2456
     68  N         -7.7170   23.4350  -47.5720 N.am  151  PRO151     -0.2727
     69  CA        -9.1020   22.9470  -47.4510 C.3   151  PRO151      0.1402
     70  C         -9.7100   22.4710  -48.7650 C.2   151  PRO151      0.2269
     71  O        -10.8060   21.8870  -48.7890 O.2   151  PRO151     -0.2865
     72  CB        -9.8640   24.1770  -46.9280 C.3   151  PRO151      0.0296
     73  CG        -9.1360   25.3090  -47.4370 C.3   151  PRO151      0.0237
     74  CD        -7.6670   24.9020  -47.4170 C.3   151  PRO151      0.0939
     75  N        -11.4630   18.4530  -49.8600 N.3   154  THR154     -0.1218
     76  CA       -11.4410   17.7650  -48.5670 C.3   154  THR154      0.1862
     77  C        -12.8160   17.3410  -48.0900 C.2   154  THR154      0.2287
     78  O        -13.8530   17.8580  -48.5250 O.2   154  THR154     -0.2866
     79  CB       -10.8360   18.6400  -47.4260 C.3   154  THR154      0.1770
     80  OG1      -11.5630   19.8630  -47.2930 O.3   154  THR154     -0.2211
     81  CG2       -9.3770   18.9090  -47.6620 C.3   154  THR154      0.0375
     82  N         -0.2030   12.9050  -44.3550 N.3   239  GLU239     -0.1245
     83  CA         1.0270   13.4550  -43.7700 C.3   239  GLU239      0.1567
     84  C          1.9450   12.3610  -43.2460 C.2   239  GLU239      0.2260
     85  O          2.7590   12.5970  -42.3710 O.2   239  GLU239     -0.2867
     86  CB         0.7080   14.4340  -42.6440 C.3   239  GLU239      0.0388
     87  CG        -0.0030   15.6690  -43.1010 C.3   239  GLU239      0.1160
     88  CD        -0.5370   16.4560  -41.9150 C.2   239  GLU239      0.3649
     89  OE1        0.2330   16.6930  -40.9570 O.co2 239  GLU239     -0.2457
     90  OE2       -1.7350   16.7980  -41.9240 O.co2 239  GLU239     -0.2457
@<TRIPOS>BOND
     1    67    65   ar
     2    48    46    1
     3    47    46    1
     4    65    66   ar
     5    65    64    1
     6    41    42    1
     7    46    45    1
     8    45    42    1
     9    75    76    1
    10    42    43    1
    11    38    35    1
    12    38    39    1
    13    64    61    1
    14    36    37    2
    15    36    35    1
    16    71    70    2
    17    70    69    1
    18    35    34    1
    19    76    77    1
    20    76    79    1
    21    78    77    2
    22    39    40    1
    23    43    44    2
    24    43    49   am
    25    61    62    1
    26    61    60    1
    27    81    79    1
    28    62    63    2
    29    62    68   am
    30    68    69    1
    31    68    74    1
    32    69    72    1
    33    73    74    1
    34    73    72    1
    35    79    80    1
    36    34    40    1
    37    34    25   am
    38    55    49    1
    39    55    54    1
    40    49    50    1
    41    26    25    2
    42    60    58   am
    43    25    24    1
    44    21    20    1
    45    52    51    2
    46    50    51    1
    47    50    53    1
    48    54    53    1
    49    58    59    2
    50    58    57    1
    51    51    56   am
    52    20    22    1
    53    20    19    2
    54    24    27    1
    55    24    23    1
    56    56    57    1
    57    27    28    1
    58    82    83    1
    59    23    14   am
    60    18    19    1
    61    18    17    1
    62    83    84    1
    63    83    86    1
    64    17    16    1
    65    16    13    1
    66    84    85    2
    67    14    13    1
    68    14    15    2
    69    87    86    1
    70    87    88    1
    71    28    30   ar
    72    28    29   ar
    73    13    12    1
    74    30    32   ar
    75    11     9    1
    76    29    31   ar
    77    90    88   ar
    78    88    89   ar
    79    32    33   ar
    80     9     8    2
    81     9    10    1
    82     4     3    2
    83    31    33   ar
    84     8     7    1
    85     1     2    1
    86     3     2    1
    87     5     2    1
    88     5     6    1
    89     7     6    1
