@<TRIPOS>MOLECULE
tmp/4c70B01.pdb
 175 170 0 0 0
SMALL
GASTEIGER

@<TRIPOS>ATOM
      1  N         -7.4700  -22.5150   35.9360 N.3   169  GLN169     -0.1245
      2  CA        -8.2240  -21.5510   36.7420 C.3   169  GLN169      0.1566
      3  C         -7.5750  -20.1660   36.7750 C.2   169  GLN169      0.2260
      4  O         -8.1260  -19.2320   37.3760 O.2   169  GLN169     -0.2867
      5  CB        -8.3340  -22.0330   38.1950 C.3   169  GLN169      0.0367
      6  CG        -9.1350  -23.3800   38.2770 C.3   169  GLN169      0.0905
      7  CD        -8.2480  -24.6200   38.2690 C.2   169  GLN169      0.2608
      8  OE1       -7.1540  -24.6290   37.7150 O.2   169  GLN169     -0.2717
      9  NE2       -8.7940  -25.7300   38.7720 N.am  169  GLN169     -0.0878
     10  N        -14.5180  -32.8930   38.5490 N.3   208  PHE208     -0.1241
     11  CA       -13.9380  -32.1940   39.6940 C.3   208  PHE208      0.1605
     12  C        -14.2200  -32.8730   41.0220 C.2   208  PHE208      0.2264
     13  O        -13.3660  -32.9240   41.8940 O.2   208  PHE208     -0.2867
     14  CB       -14.4250  -30.7410   39.7280 C.3   208  PHE208      0.0534
     15  CG       -13.6560  -29.8390   38.7740 C.ar  208  PHE208     -0.0203
     16  CD1      -12.3840  -29.3570   39.1260 C.ar  208  PHE208     -0.0042
     17  CD2      -14.1660  -29.5440   37.5290 C.ar  208  PHE208     -0.0042
     18  CE1      -11.6730  -28.5090   38.2240 C.ar  208  PHE208     -0.0003
     19  CE2      -13.4860  -28.7350   36.6200 C.ar  208  PHE208     -0.0003
     20  CZ       -12.2410  -28.1990   36.9570 C.ar  208  PHE208     -0.0000
     21  N        -12.1020  -32.3280   45.9200 N.3   213  ALA213     -0.1245
     22  CA       -11.7670  -30.9530   46.3080 C.3   213  ALA213      0.1562
     23  C        -13.0060  -30.0580   46.4570 C.2   213  ALA213      0.2260
     24  O        -12.8690  -28.8650   46.7140 O.2   213  ALA213     -0.2867
     25  CB       -10.8690  -30.3710   45.2130 C.3   213  ALA213      0.0290
     26  N        -14.0460  -26.2070   47.2810 N.3   235  PHE235     -0.1241
     27  CA       -14.5600  -25.0660   46.5350 C.3   235  PHE235      0.1605
     28  C        -15.9870  -25.3230   46.0610 C.2   235  PHE235      0.2264
     29  O        -16.4940  -26.4390   46.1410 O.2   235  PHE235     -0.2867
     30  CB       -13.6470  -24.7210   45.3270 C.3   235  PHE235      0.0534
     31  CG       -13.7730  -25.6580   44.1380 C.ar  235  PHE235     -0.0203
     32  CD1      -12.9730  -26.7920   44.0190 C.ar  235  PHE235     -0.0042
     33  CD2      -14.6440  -25.3570   43.0970 C.ar  235  PHE235     -0.0042
     34  CE1      -13.0870  -27.6370   42.8760 C.ar  235  PHE235     -0.0003
     35  CE2      -14.7570  -26.1600   41.9300 C.ar  235  PHE235     -0.0003
     36  CZ       -13.9410  -27.3140   41.8450 C.ar  235  PHE235     -0.0000
     37  N          5.0050  -23.2090   39.2680 N.3   271  ASP271     -0.1239
     38  CA         5.5360  -23.8650   40.4980 C.3   271  ASP271      0.1674
     39  C          6.5880  -24.9650   40.2450 C.2   271  ASP271      0.2266
     40  O          7.4440  -25.2730   41.0930 O.2   271  ASP271     -0.2867
     41  CB         4.4140  -24.5500   41.2710 C.3   271  ASP271      0.1410
     42  CG         3.5620  -23.5870   42.0920 C.2   271  ASP271      0.3668
     43  OD1        3.8600  -22.3770   42.1520 O.co2 271  ASP271     -0.2456
     44  OD2        2.5400  -24.0710   42.6150 O.co2 271  ASP271     -0.2456
     45  N          3.4610  -29.7400   41.3900 N.3   274  HIS274     -0.1226
     46  CA         2.4840  -30.8170   41.2050 C.3   274  HIS274      0.1752
     47  C          1.4360  -30.3680   40.2060 C.2   274  HIS274      0.2596
     48  O          1.1350  -29.1780   40.1120 O.2   274  HIS274     -0.2718
     49  CB         1.8000  -31.1010   42.5540 C.3   274  HIS274      0.0759
     50  CG         1.0170  -32.3730   42.5810 C.ar  274  HIS274      0.0818
     51  ND1       -0.2550  -32.4810   42.0410 N.ar  274  HIS274     -0.2268
     52  CD2        1.3320  -33.6070   43.0540 C.ar  274  HIS274      0.1154
     53  CE1       -0.6930  -33.7190   42.2010 C.ar  274  HIS274      0.1986
     54  NE2        0.2290  -34.4060   42.8570 N.ar  274  HIS274     -0.2212
     55  N          0.8810  -31.2870   39.4340 N.am  275  MET275     -0.1965
     56  CA        -0.1190  -30.8910   38.4300 C.3   275  MET275      0.1736
     57  C         -1.3930  -30.3020   39.0800 C.2   275  MET275      0.2616
     58  O         -2.0070  -29.3770   38.5360 O.2   275  MET275     -0.2715
     59  CB        -0.4460  -32.0660   37.4820 C.3   275  MET275      0.0427
     60  CG         0.6330  -32.4600   36.4480 C.3   275  MET275      0.0599
     61  SD         0.4310  -31.7860   34.7410 S.3   275  MET275     -0.1393
     62  CE        -0.3520  -30.2410   35.2130 C.3   275  MET275      0.0692
     63  N         -1.8250  -30.8210   40.2210 N.am  276  VAL276     -0.1963
     64  CA        -3.0920  -30.3240   40.7850 C.3   276  VAL276      0.1727
     65  C         -3.0260  -29.9810   42.2860 C.2   276  VAL276      0.2616
     66  O         -4.0540  -30.0540   43.0050 O.2   276  VAL276     -0.2715
     67  CB        -4.2560  -31.3450   40.5730 C.3   276  VAL276      0.0290
     68  CG1       -4.3900  -31.5970   39.0670 C.3   276  VAL276      0.0023
     69  CG2       -3.9730  -32.6880   41.2330 C.3   276  VAL276      0.0023
     70  N         -1.8280  -29.6720   42.7780 N.am  277  ALA277     -0.1964
     71  CA        -1.7220  -29.0590   44.1090 C.3   277  ALA277      0.1713
     72  C         -0.7440  -27.9100   43.9640 C.2   277  ALA277      0.2458
     73  O          0.3040  -28.0780   43.2980 O.2   277  ALA277     -0.2730
     74  CB        -1.1820  -30.0950   45.1110 C.3   277  ALA277      0.0333
     75  N         -1.0230  -26.7690   44.6230 N.am  278  PRO278     -0.2727
     76  CA        -0.0750  -25.6660   44.6320 C.3   278  PRO278      0.1402
     77  C          1.0730  -25.9530   45.5830 C.2   278  PRO278      0.2269
     78  O          0.9570  -26.7940   46.4980 O.2   278  PRO278     -0.2865
     79  CB        -0.9100  -24.4620   45.1410 C.3   278  PRO278      0.0296
     80  CG        -1.8690  -25.1250   46.1310 C.3   278  PRO278      0.0237
     81  CD        -2.1900  -26.5080   45.4860 C.3   278  PRO278      0.0939
     82  N         -7.0050  -15.4650   45.3640 N.3   309  HIS309     -0.1241
     83  CA        -7.6130  -16.5330   44.5700 C.3   309  HIS309      0.1621
     84  C         -8.5230  -17.3550   45.4760 C.2   309  HIS309      0.2264
     85  O         -9.6670  -17.6250   45.0880 O.2   309  HIS309     -0.2867
     86  CB        -6.5110  -17.3950   43.9820 C.3   309  HIS309      0.0745
     87  CG        -7.0410  -18.4300   43.0330 C.ar  309  HIS309      0.0817
     88  ND1       -7.6550  -18.1080   41.8400 N.ar  309  HIS309     -0.2268
     89  CD2       -6.9880  -19.7820   43.0940 C.ar  309  HIS309      0.1154
     90  CE1       -7.9670  -19.2270   41.1980 C.ar  309  HIS309      0.1986
     91  NE2       -7.5600  -20.2540   41.9310 N.ar  309  HIS309     -0.2212
     92  N         -9.7380  -20.1690   47.0980 N.3   311  THR311     -0.1218
     93  CA       -10.7140  -21.1910   46.6230 C.3   311  THR311      0.1862
     94  C        -11.5060  -21.9430   47.6940 C.2   311  THR311      0.2287
     95  O        -12.5340  -22.5280   47.3620 O.2   311  THR311     -0.2866
     96  CB       -10.0880  -22.2730   45.7610 C.3   311  THR311      0.1770
     97  OG1       -9.2230  -23.0730   46.5920 O.3   311  THR311     -0.2211
     98  CG2       -9.3180  -21.6300   44.6120 C.3   311  THR311      0.0375
     99  N        -10.1990  -24.4360   49.3930 N.3   313  THR313     -0.1218
    100  CA        -9.6350  -25.7620   49.6810 C.3   313  THR313      0.1862
    101  C         -8.6810  -25.6210   50.8720 C.2   313  THR313      0.2287
    102  O         -8.0720  -24.5650   51.0780 O.2   313  THR313     -0.2866
    103  CB        -8.9070  -26.3980   48.4820 C.3   313  THR313      0.1770
    104  OG1       -7.7980  -25.5710   48.1520 O.3   313  THR313     -0.2211
    105  CG2       -9.8180  -26.4580   47.2380 C.3   313  THR313      0.0375
    106  N         -5.0670  -25.2190   49.2730 N.3   316  GLY316     -0.1225
    107  CA        -4.9450  -24.0360   48.4100 C.3   316  GLY316      0.1811
    108  C         -4.8370  -22.7400   49.2170 C.2   316  GLY316      0.2280
    109  O         -3.9710  -21.8800   48.9290 O.2   316  GLY316     -0.2866
    110  N        -16.6280  -20.3840   42.0880 N.3   343  HIS343     -0.1241
    111  CA       -15.4280  -20.5270   41.2510 C.3   343  HIS343      0.1621
    112  C        -15.9130  -20.6780   39.8210 C.2   343  HIS343      0.2264
    113  O        -16.5870  -21.6640   39.5210 O.2   343  HIS343     -0.2867
    114  CB       -14.6890  -21.8190   41.6570 C.3   343  HIS343      0.0745
    115  CG       -13.2430  -21.8420   41.2820 C.ar  343  HIS343      0.0817
    116  ND1      -12.7550  -21.1830   40.1670 N.ar  343  HIS343     -0.2268
    117  CD2      -12.1620  -22.3500   41.9340 C.ar  343  HIS343      0.1154
    118  CE1      -11.4510  -21.4080   40.0770 C.ar  343  HIS343      0.1986
    119  NE2      -11.0700  -22.1390   41.1200 N.ar  343  HIS343     -0.2212
    120  N        -13.7220  -20.9500   37.2220 N.3   345  ILE345     -0.1245
    121  CA       -12.6980  -21.6870   36.4300 C.3   345  ILE345      0.1561
    122  C        -11.9630  -20.7070   35.4800 C.2   345  ILE345      0.2260
    123  O        -11.3690  -19.7150   35.9590 O.2   345  ILE345     -0.2867
    124  CB       -13.2330  -22.9950   35.7810 C.3   345  ILE345      0.0252
    125  CG1      -13.9240  -23.8540   36.8530 C.3   345  ILE345      0.0019
    126  CG2      -12.0790  -23.8420   35.1360 C.3   345  ILE345      0.0019
    127  CD1      -12.9510  -24.2970   38.0230 C.3   345  ILE345      0.0001
    128  N         -4.4750  -18.6270   40.4130 N.3   400  PHE400     -0.1227
    129  CA        -3.5890  -19.7920   40.1890 C.3   400  PHE400      0.1736
    130  C         -4.3220  -20.8560   39.4190 C.2   400  PHE400      0.2596
    131  O         -5.5570  -20.8980   39.4690 O.2   400  PHE400     -0.2718
    132  CB        -3.2210  -20.3830   41.5630 C.3   400  PHE400      0.0547
    133  CG        -2.6580  -19.3360   42.5090 C.ar  400  PHE400     -0.0202
    134  CD1       -1.4790  -18.6840   42.2020 C.ar  400  PHE400     -0.0042
    135  CD2       -3.3570  -18.9720   43.6760 C.ar  400  PHE400     -0.0042
    136  CE1       -0.9730  -17.6200   42.9950 C.ar  400  PHE400     -0.0003
    137  CE2       -2.8520  -17.9220   44.4840 C.ar  400  PHE400     -0.0003
    138  CZ        -1.6670  -17.2410   44.1320 C.ar  400  PHE400     -0.0000
    139  N         -3.5960  -21.7710   38.7890 N.am  401  GLY401     -0.1942
    140  CA        -4.3020  -22.7470   37.9950 C.3   401  GLY401      0.2014
    141  C         -3.6480  -24.1260   38.0620 C.2   401  GLY401      0.2638
    142  O         -2.4170  -24.2400   38.1620 O.2   401  GLY401     -0.2714
    143  N         -4.4500  -25.1660   37.8900 N.am  402  PHE402     -0.1973
    144  CA        -3.8730  -26.5030   37.6630 C.3   402  PHE402      0.1639
    145  C         -2.7400  -26.4320   36.6450 C.2   402  PHE402      0.2290
    146  O         -2.9630  -25.9020   35.5430 O.2   402  PHE402     -0.2864
    147  CB        -4.8990  -27.5340   37.1630 C.3   402  PHE402      0.0560
    148  CG        -5.9310  -27.9670   38.2090 C.ar  402  PHE402     -0.0200
    149  CD1       -5.8490  -27.5610   39.5460 C.ar  402  PHE402     -0.0042
    150  CD2       -7.0300  -28.7250   37.8000 C.ar  402  PHE402     -0.0042
    151  CE1       -6.8000  -28.0280   40.5010 C.ar  402  PHE402     -0.0003
    152  CE2       -7.9680  -29.2100   38.7560 C.ar  402  PHE402     -0.0003
    153  CZ        -7.8440  -28.8510   40.1030 C.ar  402  PHE402     -0.0000
    154  N          0.1690  -25.6170   37.8790 N.3   404  GLY404     -0.1210
    155  CA         1.1260  -24.8550   38.6990 C.3   404  GLY404      0.1956
    156  C          1.2770  -23.4020   38.2020 C.2   404  GLY404      0.2612
    157  O          2.3120  -22.7530   38.4280 O.2   404  GLY404     -0.2717
    158  N          0.2510  -22.8680   37.5460 N.am  405  HIS405     -0.1961
    159  CA         0.3880  -21.5210   36.9620 C.3   405  HIS405      0.1787
    160  C          0.1120  -20.4760   37.9990 C.2   405  HIS405      0.2620
    161  O         -0.9220  -20.6340   38.7140 O.2   405  HIS405     -0.2715
    162  CB        -0.6060  -21.3320   35.8050 C.3   405  HIS405      0.0785
    163  CG        -0.5540  -22.4370   34.8230 C.ar  405  HIS405      0.0821
    164  ND1        0.4900  -22.6160   33.9500 N.ar  405  HIS405     -0.2267
    165  CD2       -1.3960  -23.4770   34.6220 C.ar  405  HIS405      0.1154
    166  CE1        0.2980  -23.7300   33.2600 C.ar  405  HIS405      0.1986
    167  NE2       -0.8510  -24.2600   33.6340 N.ar  405  HIS405     -0.2212
    168  N          0.9230  -19.3960   38.0480 N.am  406  ASN406     -0.1972
    169  CA         0.6440  -18.3010   38.9940 C.3   406  ASN406      0.1688
    170  C          0.5520  -16.9870   38.2480 C.2   406  ASN406      0.2292
    171  O          1.4660  -16.6710   37.4960 O.2   406  ASN406     -0.2864
    172  CB         1.8090  -18.1600   40.0220 C.3   406  ASN406      0.1181
    173  CG         2.1110  -19.4840   40.7030 C.2   406  ASN406      0.2629
    174  OD1        1.2020  -20.0810   41.2740 O.2   406  ASN406     -0.2716
    175  ND2        3.3650  -19.9840   40.6030 N.am  406  ASN406     -0.0877
@<TRIPOS>BOND
     1   166   167   ar
     2   166   164   ar
     3   167   165   ar
     4   164   163   ar
     5   165   163   ar
     6    61    62    1
     7    61    60    1
     8   163   162    1
     9   126   124    1
    10   122   123    2
    11   122   121    1
    12   146   145    2
    13   124   121    1
    14   124   125    1
    15   162   159    1
    16     1     2    1
    17   121   120    1
    18    60    59    1
    19    19    20   ar
    20    19    17   ar
    21   145   144    1
    22     2     3    1
    23     2     5    1
    24     3     4    2
    25   125   127    1
    26    20    18   ar
    27   159   158    1
    28   159   160    1
    29   147   144    1
    30   147   148    1
    31    59    56    1
    32   171   170    2
    33    17    15   ar
    34   158   156   am
    35   144   143    1
    36     8     7    2
    37   150   148   ar
    38   150   152   ar
    39   154   155    1
    40   143   141   am
    41   140   141    1
    42   140   139    1
    43   160   168   am
    44   160   161    2
    45   168   169    1
    46   141   142    2
    47     5     6    1
    48   156   157    2
    49   156   155    1
    50   148   149   ar
    51    18    16   ar
    52   170   169    1
    53     7     6    1
    54     7     9   am
    55    56    57    1
    56    56    55    1
    57    58    57    2
    58    10    11    1
    59   152   153   ar
    60    15    16   ar
    61    15    14    1
    62   139   130   am
    63   169   172    1
    64    68    67    1
    65    57    63   am
    66    37    38    1
    67   130   131    2
    68   130   129    1
    69    55    47   am
    70   113   112    2
    71   149   151   ar
    72    11    14    1
    73    11    12    1
    74   112   111    1
    75   172   173    1
    76   118   116   ar
    77   118   119   ar
    78   153   151   ar
    79    48    47    2
    80   116   115   ar
    81   129   128    1
    82   129   132    1
    83    47    46    1
    84    63    64    1
    85    39    38    1
    86    39    40    2
    87    38    41    1
    88    67    64    1
    89    67    69    1
    90   175   173   am
    91   173   174    2
    92    64    65    1
    93    12    13    2
    94   119   117   ar
    95    90    88   ar
    96    90    91   ar
    97    46    45    1
    98    46    49    1
    99   111   114    1
   100   111   110    1
   101    41    42    1
   102   115   114    1
   103   115   117   ar
   104   132   133    1
   105    88    87   ar
   106    36    35   ar
   107    36    34   ar
   108    35    33   ar
   109    91    89   ar
   110    51    53   ar
   111    51    50   ar
   112    42    43   ar
   113    42    44   ar
   114    53    54   ar
   115   134   133   ar
   116   134   136   ar
   117    65    70   am
   118    65    66    2
   119   133   135   ar
   120    49    50    1
   121    50    52   ar
   122    70    71    1
   123    54    52   ar
   124    34    32   ar
   125   136   138   ar
   126    87    89   ar
   127    87    86    1
   128    33    31   ar
   129    73    72    2
   130   135   137   ar
   131    72    71    1
   132    72    75   am
   133    86    83    1
   134    32    31   ar
   135    71    74    1
   136   138   137   ar
   137    31    30    1
   138    83    82    1
   139    83    84    1
   140    98    96    1
   141    75    76    1
   142    75    81    1
   143    76    79    1
   144    76    77    1
   145    85    84    2
   146    79    80    1
   147    25    22    1
   148    30    27    1
   149    81    80    1
   150    77    78    2
   151    96    97    1
   152    96    93    1
   153    21    22    1
   154    28    29    2
   155    28    27    1
   156    22    23    1
   157    23    24    2
   158    27    26    1
   159    93    92    1
   160    93    94    1
   161   105   103    1
   162    95    94    2
   163   104   103    1
   164   107   108    1
   165   107   106    1
   166   103   100    1
   167   109   108    2
   168    99   100    1
   169   100   101    1
   170   101   102    2
