@<TRIPOS>MOLECULE
tmp/4c71A00.pdb
 194 189 0 0 0
SMALL
GASTEIGER

@<TRIPOS>ATOM
      1  N         -3.4980  -23.1590   14.1080 N.3   170  GLN170     -0.1245
      2  CA        -2.3250  -23.6070   13.3350 C.3   170  GLN170      0.1566
      3  C         -1.0880  -22.7220   13.5320 C.2   170  GLN170      0.2260
      4  O         -0.0010  -23.0580   13.0370 O.2   170  GLN170     -0.2867
      5  CB        -2.6270  -23.6800   11.8230 C.3   170  GLN170      0.0367
      6  CG        -3.7460  -24.7130   11.5160 C.3   170  GLN170      0.0905
      7  CD        -5.1590  -24.1170   11.5850 C.2   170  GLN170      0.2608
      8  OE1       -5.3970  -23.0010   12.0810 O.2   170  GLN170     -0.2717
      9  NE2       -6.1150  -24.9000   11.1200 N.am  170  GLN170     -0.0878
     10  N        -12.0470  -31.9110    9.3930 N.3   209  PHE209     -0.1241
     11  CA       -11.4030  -31.0570    8.4110 C.3   209  PHE209      0.1605
     12  C        -11.8760  -31.3520    7.0030 C.2   209  PHE209      0.2264
     13  O        -11.9290  -30.4510    6.1540 O.2   209  PHE209     -0.2867
     14  CB        -9.8640  -31.1830    8.5020 C.3   209  PHE209      0.0534
     15  CG        -9.2770  -30.3410    9.5970 C.ar  209  PHE209     -0.0203
     16  CD1       -9.0380  -28.9970    9.3810 C.ar  209  PHE209     -0.0042
     17  CD2       -9.0160  -30.8850   10.8590 C.ar  209  PHE209     -0.0042
     18  CE1       -8.4340  -28.1920   10.3780 C.ar  209  PHE209     -0.0003
     19  CE2       -8.4720  -30.0790   11.9060 C.ar  209  PHE209     -0.0003
     20  CZ        -8.1940  -28.7330   11.6710 C.ar  209  PHE209     -0.0000
     21  N        -11.1310  -28.6800    2.5390 N.3   214  ALA214     -0.1245
     22  CA        -9.8500  -28.0580    2.1780 C.3   214  ALA214      0.1562
     23  C         -8.6680  -29.0310    2.2200 C.2   214  ALA214      0.2260
     24  O         -7.5200  -28.5880    2.1900 O.2   214  ALA214     -0.2867
     25  CB        -9.5900  -26.8370    3.0620 C.3   214  ALA214      0.0290
     26  N         -4.6210  -29.1860    1.8780 N.3   236  PHE236     -0.1241
     27  CA        -3.4590  -29.4910    2.7140 C.3   236  PHE236      0.1605
     28  C         -3.4740  -31.0000    3.0010 C.2   236  PHE236      0.2264
     29  O         -4.4660  -31.6930    2.7040 O.2   236  PHE236     -0.2867
     30  CB        -3.4820  -28.7040    4.0340 C.3   236  PHE236      0.0534
     31  CG        -4.5160  -29.2220    5.0660 C.ar  236  PHE236     -0.0203
     32  CD1       -5.8320  -28.7500    5.0590 C.ar  236  PHE236     -0.0042
     33  CD2       -4.1140  -30.1210    6.0670 C.ar  236  PHE236     -0.0042
     34  CE1       -6.7660  -29.1820    6.0600 C.ar  236  PHE236     -0.0003
     35  CE2       -5.0110  -30.5820    7.0720 C.ar  236  PHE236     -0.0003
     36  CZ        -6.3560  -30.1020    7.0310 C.ar  236  PHE236     -0.0000
     37  N         -2.2790  -33.8220    6.2420 N.3   238  PHE238     -0.1241
     38  CA        -1.7690  -33.9600    7.6000 C.3   238  PHE238      0.1605
     39  C         -0.3930  -34.6320    7.5430 C.2   238  PHE238      0.2264
     40  O         -0.2460  -35.6830    6.9310 O.2   238  PHE238     -0.2867
     41  CB        -2.6840  -34.8840    8.4260 C.3   238  PHE238      0.0534
     42  CG        -3.9390  -34.1990    8.9690 C.ar  238  PHE238     -0.0203
     43  CD1       -3.8380  -33.0060    9.6640 C.ar  238  PHE238     -0.0042
     44  CD2       -5.1650  -34.8730    8.9480 C.ar  238  PHE238     -0.0042
     45  CE1       -4.9870  -32.3850   10.2080 C.ar  238  PHE238     -0.0003
     46  CE2       -6.3130  -34.3030    9.5500 C.ar  238  PHE238     -0.0003
     47  CZ        -6.2220  -33.0350   10.1370 C.ar  238  PHE238     -0.0000
     48  N         -6.3140  -10.6510   11.7920 N.3   272  ASP272     -0.1239
     49  CA        -6.9420  -10.1530   10.5700 C.3   272  ASP272      0.1674
     50  C         -8.2390   -9.3600   10.8230 C.2   272  ASP272      0.2266
     51  O         -8.5670   -8.4710   10.0210 O.2   272  ASP272     -0.2867
     52  CB        -7.3060  -11.3620    9.6790 C.3   272  ASP272      0.1410
     53  CG        -6.1220  -11.8810    8.8770 C.2   272  ASP272      0.3668
     54  OD1       -4.9580  -11.3990    9.0010 O.co2 272  ASP272     -0.2456
     55  OD2       -6.3790  -12.9040    8.1970 O.co2 272  ASP272     -0.2456
     56  N        -12.2170  -13.0930    8.6340 N.3   275  HIS275     -0.1226
     57  CA       -13.1390  -14.2500    8.4970 C.3   275  HIS275      0.1752
     58  C        -12.5840  -15.2870    9.4830 C.2   275  HIS275      0.2596
     59  O        -11.3750  -15.2840    9.7280 O.2   275  HIS275     -0.2718
     60  CB       -13.0970  -14.7570    7.0330 C.3   275  HIS275      0.0759
     61  CG       -14.0180  -15.8980    6.7020 C.ar  275  HIS275      0.0818
     62  ND1      -13.8930  -17.1470    7.2980 N.ar  275  HIS275     -0.2268
     63  CD2      -14.9300  -16.0480    5.6970 C.ar  275  HIS275      0.1154
     64  CE1      -14.8190  -17.9410    6.8220 C.ar  275  HIS275      0.1986
     65  NE2      -15.3900  -17.3390    5.7820 N.ar  275  HIS275     -0.2212
     66  N        -13.4180  -16.1550   10.0480 N.am  276  MET276     -0.1965
     67  CA       -12.9430  -17.1210   11.0470 C.3   276  MET276      0.1736
     68  C        -11.9910  -18.1640   10.4500 C.2   276  MET276      0.2616
     69  O        -11.0090  -18.5740   11.1230 O.2   276  MET276     -0.2715
     70  CB       -14.1470  -17.7570   11.7640 C.3   276  MET276      0.0427
     71  CG       -13.7120  -18.8280   12.7980 C.3   276  MET276      0.0599
     72  SD       -13.0380  -17.8740   14.2330 S.3   276  MET276     -0.1393
     73  CE       -14.4580  -16.8840   14.6970 C.3   276  MET276      0.0692
     74  N        -12.2760  -18.6490    9.2330 N.am  277  VAL277     -0.1963
     75  CA       -11.4310  -19.7100    8.6970 C.3   277  VAL277      0.1727
     76  C        -10.9120  -19.4220    7.2940 C.2   277  VAL277      0.2616
     77  O        -10.4910  -20.3470    6.5900 O.2   277  VAL277     -0.2715
     78  CB       -12.1870  -21.1020    8.6990 C.3   277  VAL277      0.0290
     79  CG1      -12.5350  -21.5790   10.1460 C.3   277  VAL277      0.0023
     80  CG2      -13.5050  -21.0590    7.8750 C.3   277  VAL277      0.0023
     81  N        -10.9470  -18.1680    6.8540 N.am  278  ALA278     -0.1964
     82  CA       -10.1690  -17.7860    5.6530 C.3   278  ALA278      0.1713
     83  C         -9.2540  -16.5890    5.9770 C.2   278  ALA278      0.2458
     84  O         -9.6990  -15.6450    6.6530 O.2   278  ALA278     -0.2730
     85  CB       -11.1850  -17.3780    4.5400 C.3   278  ALA278      0.0333
     86  N         -8.0130  -16.5940    5.4720 N.am  279  PRO279     -0.2727
     87  CA        -7.0960  -15.4830    5.7450 C.3   279  PRO279      0.1402
     88  C         -7.5590  -14.2940    4.9090 C.2   279  PRO279      0.2269
     89  O         -8.1820  -14.4720    3.8350 O.2   279  PRO279     -0.2865
     90  CB        -5.7400  -15.9850    5.2100 C.3   279  PRO279      0.0296
     91  CG        -6.1630  -16.9330    4.0450 C.3   279  PRO279      0.0237
     92  CD        -7.4110  -17.6230    4.5840 C.3   279  PRO279      0.0939
     93  N          4.2730  -20.3660    5.7600 N.3   310  HIS310     -0.1241
     94  CA         3.2840  -21.2710    6.3680 C.3   310  HIS310      0.1621
     95  C          2.7960  -22.2530    5.2690 C.2   310  HIS310      0.2264
     96  O          2.6200  -23.4490    5.5300 O.2   310  HIS310     -0.2867
     97  CB         2.1200  -20.4540    6.9730 C.3   310  HIS310      0.0745
     98  CG         1.1360  -21.2730    7.7540 C.ar  310  HIS310      0.0817
     99  ND1        1.4650  -21.9600    8.9030 N.ar  310  HIS310     -0.2268
    100  CD2       -0.1970  -21.4550    7.5770 C.ar  310  HIS310      0.1154
    101  CE1        0.3830  -22.5480    9.3910 C.ar  310  HIS310      0.1986
    102  NE2       -0.6350  -22.2830    8.5850 N.ar  310  HIS310     -0.2212
    103  N          0.3410  -23.7680    3.1700 N.3   312  THR312     -0.1218
    104  CA        -0.4830  -24.9640    3.4710 C.3   312  THR312      0.1862
    105  C         -0.9410  -25.7530    2.2300 C.2   312  THR312      0.2287
    106  O         -1.3840  -26.9060    2.3480 O.2   312  THR312     -0.2866
    107  CB        -1.7510  -24.5840    4.2590 C.3   312  THR312      0.1770
    108  OG1       -2.5200  -23.7160    3.4370 O.3   312  THR312     -0.2211
    109  CG2       -1.3740  -23.8440    5.5540 C.3   312  THR312      0.0375
    110  N         -3.4440  -24.7490    0.3930 N.3   314  THR314     -0.1218
    111  CA        -4.8170  -24.3710    0.0300 C.3   314  THR314      0.1862
    112  C         -4.7500  -23.2640   -1.0350 C.2   314  THR314      0.2287
    113  O         -3.8110  -22.4450   -1.0430 O.2   314  THR314     -0.2866
    114  CB        -5.6870  -23.9120    1.2330 C.3   314  THR314      0.1770
    115  OG1       -5.1360  -22.7060    1.7900 O.3   314  THR314     -0.2211
    116  CG2       -5.7730  -25.0790    2.3080 C.3   314  THR314      0.0375
    117  N         -6.6360  -20.4980   -1.2540 N.3   316  ILE316     -0.1231
    118  CA        -6.6790  -19.1020   -0.7720 C.3   316  ILE316      0.1692
    119  C         -5.5540  -18.8020    0.2250 C.2   316  ILE316      0.2592
    120  O         -5.1250  -17.6710    0.3290 O.2   316  ILE316     -0.2718
    121  CB        -8.0470  -18.6540   -0.1530 C.3   316  ILE316      0.0266
    122  CG1       -8.3410  -19.3790    1.1260 C.3   316  ILE316      0.0019
    123  CG2       -9.2040  -18.8230   -1.1930 C.3   316  ILE316      0.0020
    124  CD1       -9.5750  -18.7630    1.7830 C.3   316  ILE316      0.0001
    125  N         -5.0870  -19.8100    0.9440 N.am  317  GLY317     -0.1957
    126  CA        -4.0690  -19.6150    1.9700 C.3   317  GLY317      0.1869
    127  C         -2.7610  -19.1880    1.3160 C.2   317  GLY317      0.2309
    128  O         -2.1180  -18.2300    1.7610 O.2   317  GLY317     -0.2863
    129  N          1.0400  -30.9950    7.5220 N.3   344  HIS344     -0.1241
    130  CA         0.5490  -29.9980    8.5000 C.3   344  HIS344      0.1621
    131  C          0.2820  -30.6670    9.8460 C.2   344  HIS344      0.2264
    132  O         -0.4190  -31.6760    9.9280 O.2   344  HIS344     -0.2867
    133  CB        -0.7760  -29.4140    7.9680 C.3   344  HIS344      0.0745
    134  CG        -1.1240  -28.0720    8.5190 C.ar  344  HIS344      0.0817
    135  ND1       -0.7860  -27.6820    9.7950 N.ar  344  HIS344     -0.2268
    136  CD2       -1.6760  -26.9800    7.9200 C.ar  344  HIS344      0.1154
    137  CE1       -1.2410  -26.4560   10.0100 C.ar  344  HIS344      0.1986
    138  NE2       -1.7150  -25.9770    8.8640 N.ar  344  HIS344     -0.2212
    139  N         -0.7300  -28.8060   12.6480 N.3   346  ILE346     -0.1245
    140  CA        -1.5930  -27.9290   13.4660 C.3   346  ILE346      0.1561
    141  C         -0.7880  -27.2050   14.5600 C.2   346  ILE346      0.2260
    142  O          0.0830  -26.3860   14.2690 O.2   346  ILE346     -0.2867
    143  CB        -2.7860  -28.7220   14.0480 C.3   346  ILE346      0.0252
    144  CG1       -3.2930  -29.7400   13.0170 C.3   346  ILE346      0.0019
    145  CG2       -3.9180  -27.7780   14.4780 C.3   346  ILE346      0.0019
    146  CD1       -3.6800  -29.0510   11.7310 C.3   346  ILE346      0.0001
    147  N          0.1510  -19.0210   10.5180 N.3   401  PHE401     -0.1227
    148  CA        -1.1720  -18.3790   10.6050 C.3   401  PHE401      0.1736
    149  C         -2.1550  -19.3960   11.1460 C.2   401  PHE401      0.2596
    150  O         -1.9030  -20.6080   11.0660 O.2   401  PHE401     -0.2718
    151  CB        -1.6500  -17.8730    9.2200 C.3   401  PHE401      0.0547
    152  CG        -0.6110  -17.0530    8.5010 C.ar  401  PHE401     -0.0202
    153  CD1       -0.3120  -15.7690    8.9460 C.ar  401  PHE401     -0.0042
    154  CD2        0.1260  -17.5910    7.4310 C.ar  401  PHE401     -0.0042
    155  CE1        0.7400  -15.0840    8.4120 C.ar  401  PHE401     -0.0003
    156  CE2        1.1240  -16.8430    6.7900 C.ar  401  PHE401     -0.0003
    157  CZ         1.4320  -15.5770    7.2840 C.ar  401  PHE401     -0.0000
    158  N         -3.2660  -18.9100   11.6950 N.am  402  GLY402     -0.1942
    159  CA        -4.2150  -19.8330   12.3240 C.3   402  GLY402      0.2014
    160  C         -5.6610  -19.3930   12.1680 C.2   402  GLY402      0.2638
    161  O         -5.9610  -18.1940   12.1370 O.2   402  GLY402     -0.2714
    162  N         -6.5560  -20.3830   12.0690 N.am  403  PHE403     -0.1973
    163  CA        -7.9810  -20.1210   12.0810 C.3   403  PHE403      0.1639
    164  C         -8.2940  -19.1980   13.2510 C.2   403  PHE403      0.2290
    165  O         -7.7620  -19.3980   14.3280 O.2   403  PHE403     -0.2864
    166  CB        -8.7410  -21.4200   12.3480 C.3   403  PHE403      0.0560
    167  CG        -8.8400  -22.3650   11.1830 C.ar  403  PHE403     -0.0200
    168  CD1       -8.3340  -22.0590    9.9090 C.ar  403  PHE403     -0.0042
    169  CD2       -9.5490  -23.5600   11.3710 C.ar  403  PHE403     -0.0042
    170  CE1       -8.5420  -22.9760    8.8350 C.ar  403  PHE403     -0.0003
    171  CE2       -9.7540  -24.4900   10.3100 C.ar  403  PHE403     -0.0003
    172  CZ        -9.2500  -24.2100    9.0490 C.ar  403  PHE403     -0.0000
    173  N         -7.8860  -16.0030   12.3790 N.3   405  GLY405     -0.1210
    174  CA        -7.1960  -14.8110   11.8440 C.3   405  GLY405      0.1956
    175  C         -5.8870  -14.4610   12.5840 C.2   405  GLY405      0.2612
    176  O         -5.3960  -13.3390   12.4380 O.2   405  GLY405     -0.2717
    177  N         -5.2040  -15.4360   13.1920 N.am  406  HIS406     -0.1961
    178  CA        -3.9530  -15.1550   13.8990 C.3   406  HIS406      0.1787
    179  C         -2.7370  -15.1540   12.9640 C.2   406  HIS406      0.2620
    180  O         -2.5920  -16.0630   12.1700 O.2   406  HIS406     -0.2715
    181  CB        -3.7230  -16.2560   14.9650 C.3   406  HIS406      0.0785
    182  CG        -4.9450  -16.5230   15.7850 C.ar  406  HIS406      0.0821
    183  ND1       -5.4050  -15.6140   16.7250 N.ar  406  HIS406     -0.2267
    184  CD2       -5.7950  -17.5810   15.8170 C.ar  406  HIS406      0.1154
    185  CE1       -6.5300  -16.0880   17.2550 C.ar  406  HIS406      0.1986
    186  NE2       -6.7630  -17.2920   16.7500 N.ar  406  HIS406     -0.2212
    187  N         -1.8720  -14.1530   13.0720 N.am  407  ASN407     -0.1972
    188  CA        -0.6570  -14.0640   12.2560 C.3   407  ASN407      0.1688
    189  C          0.5340  -13.9980   13.2270 C.2   407  ASN407      0.2292
    190  O          0.5880  -13.1160   14.0970 O.2   407  ASN407     -0.2864
    191  CB        -0.7250  -12.7490   11.4440 C.3   407  ASN407      0.1181
    192  CG        -2.0060  -12.6470   10.6260 C.2   407  ASN407      0.2629
    193  OD1       -2.3310  -13.5890    9.8850 O.2   407  ASN407     -0.2716
    194  ND2       -2.7110  -11.5230   10.7310 N.am  407  ASN407     -0.0877
@<TRIPOS>BOND
     1   117   118    1
     2   123   121    1
     3   113   112    2
     4   112   111    1
     5   118   121    1
     6   118   119    1
     7   121   122    1
     8   111   110    1
     9   111   114    1
    10   119   120    2
    11   119   125   am
    12   125   126    1
    13   122   124    1
    14   114   115    1
    15   114   116    1
    16   127   128    2
    17   127   126    1
    18    26    27    1
    19    22    23    1
    20    22    21    1
    21    22    25    1
    22    24    23    2
    23   105   106    2
    24   105   104    1
    25    29    28    2
    26    27    28    1
    27    27    30    1
    28   103   104    1
    29   108   107    1
    30   104   107    1
    31    89    88    2
    32    30    31    1
    33    91    92    1
    34    91    90    1
    35   107   109    1
    36    85    82    1
    37    92    86    1
    38    88    87    1
    39    32    31   ar
    40    32    34   ar
    41    31    33   ar
    42    90    87    1
    43    95    96    2
    44    95    94    1
    45    86    87    1
    46    86    83   am
    47    82    83    1
    48    82    81    1
    49    63    65   ar
    50    63    61   ar
    51    93    94    1
    52    65    64   ar
    53    83    84    2
    54    34    36   ar
    55    33    35   ar
    56    13    12    2
    57    37    38    1
    58    94    97    1
    59    77    76    2
    60    61    60    1
    61    61    62   ar
    62   156   157   ar
    63   156   154   ar
    64    64    62   ar
    65    81    76   am
    66    40    39    2
    67    97    98    1
    68    12    11    1
    69    36    35   ar
    70    60    57    1
    71   157   155   ar
    72    76    75    1
    73   154   152   ar
    74   129   130    1
    75    39    38    1
    76   100    98   ar
    77   100   102   ar
    78    38    41    1
    79    98    99   ar
    80    80    78    1
    81   136   134   ar
    82   136   138   ar
    83   133   130    1
    84   133   134    1
    85    55    53   ar
    86    11    14    1
    87    11    10    1
    88   155   153   ar
    89    41    42    1
    90    57    56    1
    91    57    58    1
    92   130   131    1
    93   152   153   ar
    94   152   151    1
    95    14    15    1
    96   134   135   ar
    97   102   101   ar
    98    75    78    1
    99    75    74    1
   100    78    79    1
   101   170   172   ar
   102   170   168   ar
   103   138   137   ar
   104    53    54   ar
   105    53    52    1
   106    99   101   ar
   107    44    42   ar
   108    44    46   ar
   109    42    43   ar
   110   172   171   ar
   111   151   148    1
   112    74    68   am
   113    16    15   ar
   114    16    18   ar
   115    58    59    2
   116    58    66   am
   117    46    47   ar
   118    15    17   ar
   119    43    45   ar
   120    52    49    1
   121   135   137   ar
   122   131   132    2
   123   193   192    2
   124   168   167   ar
   125    51    50    2
   126    66    67    1
   127    47    45   ar
   128   171   169   ar
   129    18    20   ar
   130    68    67    1
   131    68    69    2
   132   147   148    1
   133    49    50    1
   134    49    48    1
   135   148   149    1
   136   192   194   am
   137   192   191    1
   138    17    19   ar
   139    67    70    1
   140   150   149    2
   141     9     7   am
   142   149   158   am
   143   167   169   ar
   144   167   166    1
   145   191   188    1
   146     6     7    1
   147     6     5    1
   148     7     8    2
   149    20    19   ar
   150   158   159    1
   151   146   144    1
   152    70    71    1
   153     5     2    1
   154   174   173    1
   155   174   175    1
   156   162   163    1
   157   162   160   am
   158   163   166    1
   159   163   164    1
   160   161   160    2
   161   160   159    1
   162   180   179    2
   163   188   187    1
   164   188   189    1
   165   176   175    2
   166   175   177   am
   167   139   140    1
   168    71    72    1
   169   179   187   am
   170   179   178    1
   171   144   143    1
   172     4     3    2
   173   177   178    1
   174   189   190    2
   175   164   165    2
   176     2     3    1
   177     2     1    1
   178   140   143    1
   179   140   141    1
   180   178   181    1
   181   143   145    1
   182    72    73    1
   183   142   141    2
   184   181   182    1
   185   182   184   ar
   186   182   183   ar
   187   184   186   ar
   188   183   185   ar
   189   186   185   ar
