@<TRIPOS>MOLECULE
tmp/4c73A00.pdb
 164 159 0 0 0
SMALL
GASTEIGER

@<TRIPOS>ATOM
      1  N         -4.2370  -23.2620   13.9720 N.3   169  GLN169     -0.1245
      2  CA        -3.0970  -23.7580   13.1960 C.3   169  GLN169      0.1566
      3  C         -1.8400  -22.8790   13.3660 C.2   169  GLN169      0.2260
      4  O         -0.8000  -23.1950   12.7810 O.2   169  GLN169     -0.2867
      5  CB        -3.4490  -23.8640   11.7010 C.3   169  GLN169      0.0367
      6  CG        -4.6260  -24.8170   11.4630 C.3   169  GLN169      0.0905
      7  CD        -5.9520  -24.0830   11.3140 C.2   169  GLN169      0.2608
      8  OE1       -6.2370  -23.1140   12.0210 O.2   169  GLN169     -0.2717
      9  NE2       -6.8170  -24.5990   10.4200 N.am  169  GLN169     -0.0878
     10  N        -12.1780  -28.7120    3.0220 N.3   213  ALA213     -0.1245
     11  CA       -10.8110  -28.1290    3.0990 C.3   213  ALA213      0.1562
     12  C         -9.7340  -29.1230    2.6970 C.2   213  ALA213      0.2260
     13  O         -8.5550  -28.7600    2.5740 O.2   213  ALA213     -0.2867
     14  CB       -10.5460  -27.6480    4.5440 C.3   213  ALA213      0.0290
     15  N         -5.8110  -29.4100    1.9950 N.3   235  PHE235     -0.1241
     16  CA        -4.6800  -29.8660    2.8040 C.3   235  PHE235      0.1605
     17  C         -4.6860  -31.3660    3.0230 C.2   235  PHE235      0.2264
     18  O         -5.6920  -32.0770    2.8360 O.2   235  PHE235     -0.2867
     19  CB        -4.5620  -29.1180    4.1610 C.3   235  PHE235      0.0534
     20  CG        -5.5180  -29.5680    5.2500 C.ar  235  PHE235     -0.0203
     21  CD1       -6.7730  -28.9620    5.3940 C.ar  235  PHE235     -0.0042
     22  CD2       -5.1200  -30.5430    6.1850 C.ar  235  PHE235     -0.0042
     23  CE1       -7.6430  -29.3440    6.4650 C.ar  235  PHE235     -0.0003
     24  CE2       -5.9520  -30.9130    7.2440 C.ar  235  PHE235     -0.0003
     25  CZ        -7.2400  -30.3380    7.3600 C.ar  235  PHE235     -0.0000
     26  N         -6.8790  -10.7590   11.5920 N.3   271  ASP271     -0.1239
     27  CA        -7.5490  -10.2420   10.3960 C.3   271  ASP271      0.1674
     28  C         -8.8150   -9.4020   10.7010 C.2   271  ASP271      0.2266
     29  O         -9.1870   -8.6090    9.8660 O.2   271  ASP271     -0.2867
     30  CB        -8.0010  -11.3910    9.4780 C.3   271  ASP271      0.1410
     31  CG        -6.8640  -11.9910    8.6330 C.2   271  ASP271      0.3668
     32  OD1       -5.6890  -11.5240    8.7040 O.co2 271  ASP271     -0.2456
     33  OD2       -7.1710  -12.9900    7.9310 O.co2 271  ASP271     -0.2456
     34  N        -12.8250  -13.0160    8.7910 N.3   274  HIS274     -0.1226
     35  CA       -13.6950  -14.1930    8.7260 C.3   274  HIS274      0.1752
     36  C        -13.1240  -15.2150    9.6840 C.2   274  HIS274      0.2596
     37  O        -11.9090  -15.2250    9.9400 O.2   274  HIS274     -0.2718
     38  CB       -13.7250  -14.7380    7.2770 C.3   274  HIS274      0.0759
     39  CG       -14.8040  -15.7460    7.0030 C.ar  274  HIS274      0.0818
     40  ND1      -14.6780  -17.0880    7.3360 N.ar  274  HIS274     -0.2268
     41  CD2      -15.9890  -15.6210    6.3470 C.ar  274  HIS274      0.1154
     42  CE1      -15.7730  -17.7220    6.9340 C.ar  274  HIS274      0.1986
     43  NE2      -16.5660  -16.8620    6.3140 N.ar  274  HIS274     -0.2212
     44  N        -13.9830  -16.0820   10.2050 N.am  275  MET275     -0.1965
     45  CA       -13.5260  -17.0640   11.2050 C.3   275  MET275      0.1736
     46  C        -12.6450  -18.1700   10.5750 C.2   275  MET275      0.2616
     47  O        -11.7230  -18.6670   11.2310 O.2   275  MET275     -0.2715
     48  CB       -14.7600  -17.6800   11.9200 C.3   275  MET275      0.0427
     49  CG       -14.3070  -18.6780   13.0160 C.3   275  MET275      0.0599
     50  SD       -13.6570  -17.6900   14.4380 S.3   275  MET275     -0.1393
     51  CE       -14.7700  -16.3870   14.5960 C.3   275  MET275      0.0692
     52  N        -12.9120  -18.5760    9.3340 N.am  276  VAL276     -0.1963
     53  CA       -12.2060  -19.7500    8.8010 C.3   276  VAL276      0.1727
     54  C        -11.7310  -19.5100    7.3740 C.2   276  VAL276      0.2616
     55  O        -11.3230  -20.4350    6.6980 O.2   276  VAL276     -0.2715
     56  CB       -13.0680  -21.0520    8.8900 C.3   276  VAL276      0.0290
     57  CG1      -13.3960  -21.3940   10.3750 C.3   276  VAL276      0.0023
     58  CG2      -14.3560  -20.9350    8.0220 C.3   276  VAL276      0.0023
     59  N        -11.6860  -18.2600    6.9250 N.am  277  ALA277     -0.1964
     60  CA       -11.0090  -17.9480    5.6520 C.3   277  ALA277      0.1713
     61  C        -10.1270  -16.7300    5.8880 C.2   277  ALA277      0.2458
     62  O        -10.5800  -15.7830    6.5450 O.2   277  ALA277     -0.2730
     63  CB       -12.0480  -17.6070    4.5660 C.3   277  ALA277      0.0333
     64  N         -8.8690  -16.7770    5.4030 N.am  278  PRO278     -0.2727
     65  CA        -7.9430  -15.6650    5.5740 C.3   278  PRO278      0.1402
     66  C         -8.3930  -14.4900    4.6820 C.2   278  PRO278      0.2269
     67  O         -8.9950  -14.7020    3.6020 O.2   278  PRO278     -0.2865
     68  CB        -6.5880  -16.2480    5.0780 C.3   278  PRO278      0.0296
     69  CG        -7.0080  -17.2480    3.9520 C.3   278  PRO278      0.0237
     70  CD        -8.3110  -17.8560    4.5440 C.3   278  PRO278      0.0939
     71  N          3.3820  -20.9110    5.3580 N.3   309  HIS309     -0.1241
     72  CA         2.3380  -21.7230    5.9790 C.3   309  HIS309      0.1621
     73  C          1.7640  -22.6800    4.9230 C.2   309  HIS309      0.2264
     74  O          1.5820  -23.8540    5.2110 O.2   309  HIS309     -0.2867
     75  CB         1.2380  -20.8420    6.5820 C.3   309  HIS309      0.0745
     76  CG         0.2510  -21.5920    7.4500 C.ar  309  HIS309      0.0817
     77  ND1        0.6280  -22.2860    8.5850 N.ar  309  HIS309     -0.2268
     78  CD2       -1.1020  -21.7190    7.3520 C.ar  309  HIS309      0.1154
     79  CE1       -0.4590  -22.8330    9.1340 C.ar  309  HIS309      0.1986
     80  NE2       -1.5170  -22.5100    8.4000 N.ar  309  HIS309     -0.2212
     81  N         -0.8350  -24.1740    3.0800 N.3   311  THR311     -0.1218
     82  CA        -1.6390  -25.3630    3.3690 C.3   311  THR311      0.1862
     83  C         -2.0890  -26.1450    2.1330 C.2   311  THR311      0.2287
     84  O         -2.5640  -27.2690    2.2930 O.2   311  THR311     -0.2866
     85  CB        -2.9660  -24.9760    4.1160 C.3   311  THR311      0.1770
     86  OG1       -3.7500  -24.1420    3.2610 O.3   311  THR311     -0.2211
     87  CG2       -2.6230  -24.1210    5.3550 C.3   311  THR311      0.0375
     88  N         -4.6730  -25.2190    0.2260 N.3   313  THR313     -0.1218
     89  CA        -6.0060  -24.8040   -0.2310 C.3   313  THR313      0.1862
     90  C         -5.8900  -23.7260   -1.3240 C.2   313  THR313      0.2287
     91  O         -5.0030  -22.8530   -1.3040 O.2   313  THR313     -0.2866
     92  CB        -6.9300  -24.2720    0.9010 C.3   313  THR313      0.1770
     93  OG1       -6.3200  -23.1200    1.5250 O.3   313  THR313     -0.2211
     94  CG2       -7.1920  -25.3600    1.9810 C.3   313  THR313      0.0375
     95  N         -6.2060  -20.3300    0.7260 N.3   316  GLY316     -0.1225
     96  CA        -5.1820  -20.0490    1.7480 C.3   316  GLY316      0.1811
     97  C         -3.8900  -19.6010    1.0630 C.2   316  GLY316      0.2280
     98  O         -3.2500  -18.6700    1.5180 O.2   316  GLY316     -0.2866
     99  N         -0.0620  -31.3430    7.3720 N.3   343  HIS343     -0.1241
    100  CA        -0.5130  -30.2700    8.2510 C.3   343  HIS343      0.1621
    101  C         -0.6750  -30.9080    9.6320 C.2   343  HIS343      0.2264
    102  O         -1.4980  -31.7940    9.7790 O.2   343  HIS343     -0.2867
    103  CB        -1.9190  -29.7610    7.7940 C.3   343  HIS343      0.0745
    104  CG        -2.2440  -28.3850    8.2920 C.ar  343  HIS343      0.0817
    105  ND1       -1.6920  -27.8680    9.4470 N.ar  343  HIS343     -0.2268
    106  CD2       -3.0890  -27.4330    7.8240 C.ar  343  HIS343      0.1154
    107  CE1       -2.1430  -26.6430    9.6540 C.ar  343  HIS343      0.1986
    108  NE2       -2.9810  -26.3390    8.6630 N.ar  343  HIS343     -0.2212
    109  N         -1.5880  -28.9040   12.3430 N.3   345  ILE345     -0.1245
    110  CA        -2.5360  -28.0890   13.1270 C.3   345  ILE345      0.1561
    111  C         -1.7380  -27.3860   14.2660 C.2   345  ILE345      0.2260
    112  O         -0.8590  -26.5950   13.9520 O.2   345  ILE345     -0.2867
    113  CB        -3.7510  -28.8710   13.6490 C.3   345  ILE345      0.0252
    114  CG1       -4.3180  -29.8140   12.5490 C.3   345  ILE345      0.0019
    115  CG2       -4.7800  -27.8950   14.2280 C.3   345  ILE345      0.0019
    116  CD1       -4.8510  -29.0240   11.2410 C.3   345  ILE345      0.0001
    117  N         -0.5800  -19.2890   10.1930 N.3   400  PHE400     -0.1227
    118  CA        -1.8690  -18.5890   10.3670 C.3   400  PHE400      0.1736
    119  C         -2.8510  -19.5750   10.9590 C.2   400  PHE400      0.2596
    120  O         -2.6230  -20.8050   10.8530 O.2   400  PHE400     -0.2718
    121  CB        -2.3750  -18.1250    8.9680 C.3   400  PHE400      0.0547
    122  CG        -1.3220  -17.3290    8.2060 C.ar  400  PHE400     -0.0202
    123  CD1       -0.9410  -16.0620    8.6400 C.ar  400  PHE400     -0.0042
    124  CD2       -0.6420  -17.9080    7.1290 C.ar  400  PHE400     -0.0042
    125  CE1        0.0930  -15.3600    7.9960 C.ar  400  PHE400     -0.0003
    126  CE2        0.3440  -17.2330    6.4730 C.ar  400  PHE400     -0.0003
    127  CZ         0.7340  -15.9600    6.9000 C.ar  400  PHE400     -0.0000
    128  N         -3.9690  -19.0800   11.5100 N.am  401  GLY401     -0.1942
    129  CA        -4.8990  -20.0210   12.1570 C.3   401  GLY401      0.2014
    130  C         -6.3580  -19.5760   12.0310 C.2   401  GLY401      0.2638
    131  O         -6.6190  -18.3790   12.0250 O.2   401  GLY401     -0.2714
    132  N         -7.2900  -20.5210   11.9890 N.am  402  PHE402     -0.1973
    133  CA        -8.7270  -20.2380   12.0960 C.3   402  PHE402      0.1639
    134  C         -8.9100  -19.3240   13.3100 C.2   402  PHE402      0.2290
    135  O         -8.3230  -19.5410   14.3820 O.2   402  PHE402     -0.2864
    136  CB        -9.5190  -21.5190   12.3590 C.3   402  PHE402      0.0560
    137  CG        -9.6510  -22.4220   11.1520 C.ar  402  PHE402     -0.0200
    138  CD1       -9.2930  -22.0180    9.8550 C.ar  402  PHE402     -0.0042
    139  CD2      -10.1890  -23.6960   11.3580 C.ar  402  PHE402     -0.0042
    140  CE1       -9.4700  -22.9140    8.7460 C.ar  402  PHE402     -0.0003
    141  CE2      -10.3740  -24.5860   10.2810 C.ar  402  PHE402     -0.0003
    142  CZ       -10.0210  -24.1930    8.9860 C.ar  402  PHE402     -0.0000
    143  N         -8.5080  -16.0730   12.3900 N.3   404  GLY404     -0.1210
    144  CA        -7.8570  -14.8750   11.8020 C.3   404  GLY404      0.1956
    145  C         -6.4700  -14.5400   12.4050 C.2   404  GLY404      0.2612
    146  O         -6.0380  -13.3760   12.2930 O.2   404  GLY404     -0.2717
    147  N         -5.7660  -15.5390   12.9640 N.am  405  HIS405     -0.1961
    148  CA        -4.5030  -15.2940   13.6740 C.3   405  HIS405      0.1787
    149  C         -3.3580  -15.3210   12.6880 C.2   405  HIS405      0.2620
    150  O         -3.2910  -16.2560   11.8780 O.2   405  HIS405     -0.2715
    151  CB        -4.2830  -16.3740   14.7540 C.3   405  HIS405      0.0785
    152  CG        -5.4940  -16.5410   15.6360 C.ar  405  HIS405      0.0821
    153  ND1       -5.8670  -15.6130   16.5870 N.ar  405  HIS405     -0.2267
    154  CD2       -6.3390  -17.5830   15.7840 C.ar  405  HIS405      0.1154
    155  CE1       -6.9950  -16.0070   17.1630 C.ar  405  HIS405      0.1986
    156  NE2       -7.2570  -17.2340   16.7440 N.ar  405  HIS405     -0.2212
    157  N         -2.4830  -14.3290   12.7410 N.am  406  ASN406     -0.1972
    158  CA        -1.2880  -14.2790   11.8640 C.3   406  ASN406      0.1688
    159  C         -0.0440  -14.2060   12.7260 C.2   406  ASN406      0.2292
    160  O          0.0070  -13.3600   13.6130 O.2   406  ASN406     -0.2864
    161  CB        -1.3440  -12.9960   11.0460 C.3   406  ASN406      0.1181
    162  CG        -2.6420  -12.8530   10.2710 C.2   406  ASN406      0.2629
    163  OD1       -3.0430  -13.8100    9.5930 O.2   406  ASN406     -0.2716
    164  ND2       -3.3490  -11.7120   10.4410 N.am  406  ASN406     -0.0877
@<TRIPOS>BOND
     1    90    91    2
     2    90    89    1
     3    89    88    1
     4    89    92    1
     5    95    96    1
     6    92    93    1
     7    92    94    1
     8    97    98    2
     9    97    96    1
    10    15    16    1
    11    83    84    2
    12    83    82    1
    13    13    12    2
    14    12    11    1
    15    16    17    1
    16    16    19    1
    17    18    17    2
    18    10    11    1
    19    81    82    1
    20    11    14    1
    21    86    85    1
    22    82    85    1
    23    67    66    2
    24    69    70    1
    25    69    68    1
    26    85    87    1
    27    19    20    1
    28    70    64    1
    29    63    60    1
    30    66    65    1
    31    73    74    2
    32    73    72    1
    33    68    65    1
    34    20    21   ar
    35    20    22   ar
    36    71    72    1
    37    21    23   ar
    38    64    65    1
    39    64    61   am
    40    60    61    1
    41    60    59    1
    42    61    62    2
    43    72    75    1
    44    22    24   ar
    45    43    41   ar
    46    43    42   ar
    47    41    39   ar
    48    23    25   ar
    49   126   127   ar
    50   126   124   ar
    51    75    76    1
    52    55    54    2
    53   127   125   ar
    54    59    54   am
    55    42    40   ar
    56    39    38    1
    57    39    40   ar
    58   124   122   ar
    59    24    25   ar
    60    38    35    1
    61    78    76   ar
    62    78    80   ar
    63    99   100    1
    64    54    53    1
    65    76    77   ar
    66   103   100    1
    67   103   104    1
    68   106   104   ar
    69   106   108   ar
    70    33    31   ar
    71   125   123   ar
    72    58    56    1
    73   122   123   ar
    74   122   121    1
    75   100   101    1
    76   104   105   ar
    77    80    79   ar
    78    77    79   ar
    79    31    32   ar
    80    31    30    1
    81   108   107   ar
    82    35    34    1
    83    35    36    1
    84   140   142   ar
    85   140   138   ar
    86    53    56    1
    87    53    52    1
    88    56    57    1
    89   121   118    1
    90   142   141   ar
    91    52    46   am
    92   105   107   ar
    93    30    27    1
    94   163   162    2
    95   101   102    2
    96    36    37    2
    97    36    44   am
    98   138   137   ar
    99    29    28    2
   100   117   118    1
   101    44    45    1
   102   162   164   am
   103   162   161    1
   104   141   139   ar
   105   118   119    1
   106    27    28    1
   107    27    26    1
   108     9     7   am
   109    46    45    1
   110    46    47    2
   111   120   119    2
   112   119   128   am
   113   161   158    1
   114   137   139   ar
   115   137   136    1
   116    45    48    1
   117   116   114    1
   118     7     6    1
   119     7     8    2
   120     6     5    1
   121   128   129    1
   122     5     2    1
   123   144   143    1
   124   144   145    1
   125   158   159    1
   126   158   157    1
   127   150   149    2
   128    48    49    1
   129   132   130   am
   130   132   133    1
   131   131   130    2
   132   130   129    1
   133   133   136    1
   134   133   134    1
   135   146   145    2
   136   109   110    1
   137   145   147   am
   138   114   113    1
   139   149   157   am
   140   149   148    1
   141   159   160    2
   142     4     3    2
   143   147   148    1
   144    49    50    1
   145   110   113    1
   146   110   111    1
   147     2     3    1
   148     2     1    1
   149   134   135    2
   150   113   115    1
   151   148   151    1
   152   112   111    2
   153    50    51    1
   154   151   152    1
   155   152   154   ar
   156   152   153   ar
   157   154   156   ar
   158   153   155   ar
   159   156   155   ar
