@<TRIPOS>MOLECULE
tmp/4c73A01.pdb
 221 215 0 0 0
SMALL
GASTEIGER

@<TRIPOS>ATOM
      1  N          0.3720  -44.2830   30.0030 N.3    75  MET75      -0.1245
      2  CA        -0.7890  -44.4940   29.1440 C.3    75  MET75       0.1570
      3  C         -2.0980  -44.2250   29.9050 C.2    75  MET75       0.2261
      4  O         -3.1380  -43.9990   29.2960 O.2    75  MET75      -0.2867
      5  CB        -0.7950  -45.9430   28.6430 C.3    75  MET75       0.0387
      6  CG         0.2990  -46.2780   27.5960 C.3    75  MET75       0.0595
      7  SD         0.2670  -45.1580   26.1860 S.3    75  MET75      -0.1393
      8  CE        -1.4130  -45.4620   25.5680 C.3    75  MET75       0.0692
      9  N         -2.9350  -37.9690   25.0610 N.3    80  TYR80      -0.1227
     10  CA        -1.9510  -38.2390   24.0220 C.3    80  TYR80       0.1736
     11  C         -1.0080  -37.0450   23.8380 C.2    80  TYR80       0.2595
     12  O          0.2150  -37.1940   23.7720 O.2    80  TYR80      -0.2718
     13  CB        -2.6930  -38.5420   22.7120 C.3    80  TYR80       0.0548
     14  CG        -1.7040  -38.7250   21.5680 C.ar   80  TYR80      -0.0200
     15  CD1       -1.2750  -37.6100   20.8330 C.ar   80  TYR80      -0.0009
     16  CD2       -1.1970  -39.9800   21.2670 C.ar   80  TYR80      -0.0009
     17  CE1       -0.3600  -37.7560   19.7530 C.ar   80  TYR80       0.0417
     18  CE2       -0.2850  -40.1640   20.2060 C.ar   80  TYR80       0.0417
     19  CZ         0.1320  -39.0420   19.4740 C.ar   80  TYR80       0.1957
     20  OH         1.0260  -39.2240   18.4480 O.3    80  TYR80      -0.2866
     21  N         -1.5520  -35.8330   23.8040 N.am   81  VAL81      -0.1980
     22  CA        -0.6600  -34.6610   23.6630 C.3    81  VAL81       0.1595
     23  C          0.2840  -34.4770   24.8540 C.2    81  VAL81       0.2287
     24  O          1.4420  -34.0590   24.6580 O.2    81  VAL81      -0.2864
     25  CB        -1.3760  -33.3290   23.3430 C.3    81  VAL81       0.0276
     26  CG1       -1.9810  -33.4060   21.9170 C.3    81  VAL81       0.0022
     27  CG2       -2.4530  -32.9640   24.3710 C.3    81  VAL81       0.0022
     28  N          1.5410  -37.1880   26.4840 N.3    83  ARG83      -0.1245
     29  CA         2.5710  -38.1810   26.2790 C.3    83  ARG83       0.1563
     30  C          3.5420  -37.6770   25.2100 C.2    83  ARG83       0.2260
     31  O          4.7550  -37.8050   25.3900 O.2    83  ARG83      -0.2867
     32  CB         1.9090  -39.4840   25.8330 C.3    83  ARG83       0.0307
     33  CG         0.9260  -39.9810   26.9050 C.3    83  ARG83       0.0489
     34  CD         0.5590  -41.4320   26.6640 C.3    83  ARG83       0.2205
     35  NE        -0.2040  -41.6810   25.4400 N.pl3  83  ARG83      -0.0865
     36  CZ        -1.5350  -41.7000   25.3560 C.cat  83  ARG83       0.5346
     37  NH1       -2.3350  -41.3800   26.3850 N.pl3  83  ARG83       0.1354
     38  NH2       -2.0760  -42.0490   24.2070 N.pl3  83  ARG83       0.1354
     39  N         -3.6500  -27.4080   19.4120 N.3   113  GLY113     -0.1210
     40  CA        -4.9290  -26.9720   18.8320 C.3   113  GLY113      0.1956
     41  C         -6.1130  -27.1320   19.7820 C.2   113  GLY113      0.2612
     42  O         -7.0390  -26.3170   19.7700 O.2   113  GLY113     -0.2717
     43  N         -6.1280  -28.2150   20.5520 N.am  114  LEU114     -0.1965
     44  CA        -7.3410  -28.6240   21.2730 C.3   114  LEU114      0.1728
     45  C         -7.0500  -29.1500   22.7000 C.2   114  LEU114      0.2616
     46  O         -7.6220  -28.6390   23.6800 O.2   114  LEU114     -0.2715
     47  CB        -8.1080  -29.7080   20.4650 C.3   114  LEU114      0.0311
     48  CG        -9.4890  -30.0530   21.0680 C.3   114  LEU114      0.0022
     49  CD1      -10.2850  -28.7780   21.4620 C.3   114  LEU114      0.0001
     50  CD2      -10.3010  -30.8690   20.1060 C.3   114  LEU114      0.0001
     51  N         -6.0620  -30.0180   22.8550 N.am  115  GLY115     -0.1955
     52  CA        -5.7640  -30.6440   24.1570 C.3   115  GLY115      0.1869
     53  C         -6.1150  -32.1170   24.2100 C.2   115  GLY115      0.2309
     54  O         -6.2180  -32.7830   23.1660 O.2   115  GLY115     -0.2863
     55  N         -8.5480  -34.1060   24.1240 N.3   117  ALA117     -0.1231
     56  CA        -9.9660  -34.3010   23.7970 C.3   117  ALA117      0.1694
     57  C        -10.4420  -35.7690   23.7990 C.2   117  ALA117      0.2591
     58  O        -11.6450  -36.0100   23.9770 O.2   117  ALA117     -0.2718
     59  CB       -10.3470  -33.5850   22.4100 C.3   117  ALA117      0.0304
     60  N         -9.5500  -36.7360   23.5840 N.am  118  GLU118     -0.1979
     61  CA       -10.0160  -38.1310   23.6430 C.3   118  GLU118      0.1602
     62  C        -10.4910  -38.4740   25.0610 C.2   118  GLU118      0.2287
     63  O        -11.3210  -39.3740   25.2520 O.2   118  GLU118     -0.2864
     64  CB        -8.9030  -39.0800   23.1810 C.3   118  GLU118      0.0415
     65  CG        -7.8040  -39.3920   24.2000 C.3   118  GLU118      0.1163
     66  CD        -6.6840  -38.3470   24.2820 C.2   118  GLU118      0.3649
     67  OE1       -6.8320  -37.1540   23.8660 O.co2 118  GLU118     -0.2457
     68  OE2       -5.6430  -38.7400   24.8440 O.co2 118  GLU118     -0.2457
     69  N        -14.1870  -37.4860   25.4690 N.3   121  VAL121     -0.1245
     70  CA       -15.1380  -38.4610   24.9730 C.3   121  VAL121      0.1561
     71  C        -15.0990  -39.7100   25.8410 C.2   121  VAL121      0.2260
     72  O        -16.1700  -40.2790   26.1050 O.2   121  VAL121     -0.2867
     73  CB       -15.0040  -38.7770   23.4350 C.3   121  VAL121      0.0252
     74  CG1      -15.1490  -37.4630   22.6080 C.3   121  VAL121      0.0019
     75  CG2      -13.6800  -39.2860   23.1400 C.3   121  VAL121      0.0019
     76  N         -5.2690  -22.2000   17.1320 N.3   168  ALA168     -0.1231
     77  CA        -5.5870  -23.1850   16.0880 C.3   168  ALA168      0.1694
     78  C         -4.2690  -23.4100   15.3060 C.2   168  ALA168      0.2591
     79  O         -3.2620  -23.7030   15.9500 O.2   168  ALA168     -0.2718
     80  CB        -6.7610  -22.6810   15.1760 C.3   168  ALA168      0.0304
     81  N         -4.2370  -23.2620   13.9720 N.am  169  GLN169     -0.1979
     82  CA        -3.0970  -23.7580   13.1960 C.3   169  GLN169      0.1601
     83  C         -1.8400  -22.8790   13.3660 C.2   169  GLN169      0.2287
     84  O         -0.8000  -23.1950   12.7810 O.2   169  GLN169     -0.2864
     85  CB        -3.4490  -23.8640   11.7010 C.3   169  GLN169      0.0394
     86  CG        -4.6260  -24.8170   11.4630 C.3   169  GLN169      0.0908
     87  CD        -5.9520  -24.0830   11.3140 C.2   169  GLN169      0.2608
     88  OE1       -6.2370  -23.1140   12.0210 O.2   169  GLN169     -0.2717
     89  NE2       -6.8170  -24.5990   10.4200 N.am  169  GLN169     -0.0878
     90  N          0.3670  -31.9990   18.9990 N.3   197  GLU197     -0.1231
     91  CA        -0.9540  -32.1290   18.4310 C.3   197  GLU197      0.1699
     92  C         -1.2890  -33.6220   18.4480 C.2   197  GLU197      0.2593
     93  O         -0.3990  -34.4880   18.4300 O.2   197  GLU197     -0.2718
     94  CB        -0.9920  -31.5620   16.9900 C.3   197  GLU197      0.0402
     95  CG        -2.4200  -31.5010   16.4230 C.3   197  GLU197      0.1161
     96  CD        -3.3360  -30.7250   17.3610 C.2   197  GLU197      0.3649
     97  OE1       -3.3190  -29.4770   17.2810 O.co2 197  GLU197     -0.2457
     98  OE2       -3.9920  -31.3690   18.2200 O.co2 197  GLU197     -0.2457
     99  N         -2.5830  -33.9220   18.4490 N.am  198  GLY198     -0.1943
    100  CA        -3.0390  -35.3270   18.3910 C.3   198  GLY198      0.1998
    101  C         -2.7960  -36.0060   17.0400 C.2   198  GLY198      0.2481
    102  O         -2.3120  -35.3780   16.0460 O.2   198  GLY198     -0.2729
    103  N         -3.0710  -37.3260   16.9890 N.am  199  PRO199     -0.2715
    104  CA        -2.8560  -38.0550   15.7530 C.3   199  PRO199      0.1536
    105  C         -4.0710  -37.9870   14.8300 C.2   199  PRO199      0.2598
    106  O         -5.1540  -37.5180   15.2420 O.2   199  PRO199     -0.2715
    107  CB        -2.7170  -39.5160   16.2330 C.3   199  PRO199      0.0310
    108  CG        -3.6940  -39.5810   17.4080 C.3   199  PRO199      0.0237
    109  CD        -3.6170  -38.1980   18.0700 C.3   199  PRO199      0.0939
    110  N         -3.9300  -38.5340   13.6270 N.am  200  ILE200     -0.1964
    111  CA        -5.0470  -38.5080   12.6810 C.3   200  ILE200      0.1727
    112  C         -6.0920  -39.5080   13.2080 C.2   200  ILE200      0.2616
    113  O         -5.7760  -40.6720   13.5280 O.2   200  ILE200     -0.2715
    114  CB        -4.5120  -38.9930   11.3070 C.3   200  ILE200      0.0290
    115  CG1       -3.5210  -37.9430   10.7760 C.3   200  ILE200      0.0022
    116  CG2       -5.7090  -39.1820   10.2970 C.3   200  ILE200      0.0023
    117  CD1       -2.7120  -38.4440    9.5500 C.3   200  ILE200      0.0001
    118  N         -7.3480  -39.0890   13.2610 N.am  201  GLU201     -0.1977
    119  CA        -8.4170  -39.9600   13.7050 C.3   201  GLU201      0.1602
    120  C         -9.6670  -39.6270   12.8840 C.2   201  GLU201      0.2287
    121  O         -9.7070  -38.6110   12.1480 O.2   201  GLU201     -0.2864
    122  CB        -8.6490  -39.8090   15.2170 C.3   201  GLU201      0.0415
    123  CG        -8.2350  -41.1010   16.0030 C.3   201  GLU201      0.1163
    124  CD        -9.1130  -42.3070   15.6720 C.2   201  GLU201      0.3649
    125  OE1      -10.3210  -42.2620   15.1760 O.co2 201  GLU201     -0.2457
    126  OE2       -8.5220  -43.3930   15.9230 O.co2 201  GLU201     -0.2457
    127  N        -12.8490  -38.7340   13.6090 N.3   203  LEU203     -0.1231
    128  CA       -13.6100  -37.5370   13.8900 C.3   203  LEU203      0.1678
    129  C        -12.9690  -36.2040   13.4140 C.2   203  LEU203      0.2434
    130  O        -13.6740  -35.4020   12.8330 O.2   203  LEU203     -0.2733
    131  CB       -14.0810  -37.5060   15.3620 C.3   203  LEU203      0.0284
    132  CG       -15.0910  -36.4420   15.8460 C.3   203  LEU203      0.0019
    133  CD1      -16.3540  -36.3160   14.9940 C.3   203  LEU203      0.0001
    134  CD2      -15.5200  -36.7030   17.3000 C.3   203  LEU203      0.0001
    135  N        -11.6530  -35.9780   13.6030 N.am  204  PRO204     -0.2729
    136  CA       -11.0300  -34.7900   13.0250 C.3   204  PRO204      0.1401
    137  C        -11.1460  -34.8000   11.5040 C.2   204  PRO204      0.2269
    138  O        -11.3120  -33.7280   10.9160 O.2   204  PRO204     -0.2865
    139  CB        -9.5430  -34.9090   13.4440 C.3   204  PRO204      0.0296
    140  CG        -9.5830  -35.7220   14.7570 C.3   204  PRO204      0.0237
    141  CD       -10.8390  -36.5690   14.6890 C.3   204  PRO204      0.0939
    142  N        -14.6880  -33.7350   10.5750 N.3   207  ALA207     -0.1231
    143  CA       -14.9660  -32.3330   10.8340 C.3   207  ALA207      0.1694
    144  C        -14.2900  -31.4130    9.8190 C.2   207  ALA207      0.2592
    145  O        -14.9380  -30.5180    9.2920 O.2   207  ALA207     -0.2718
    146  CB       -14.5400  -31.9550   12.2670 C.3   207  ALA207      0.0304
    147  N        -13.0050  -31.6030    9.5180 N.am  208  PHE208     -0.1976
    148  CA       -12.4030  -30.7160    8.5000 C.3   208  PHE208      0.1639
    149  C        -12.9090  -31.0010    7.0970 C.2   208  PHE208      0.2290
    150  O        -12.9470  -30.1110    6.2310 O.2   208  PHE208     -0.2864
    151  CB       -10.8700  -30.8890    8.5120 C.3   208  PHE208      0.0560
    152  CG       -10.2100  -30.1780    9.6540 C.ar  208  PHE208     -0.0200
    153  CD1       -9.8120  -28.8400    9.5100 C.ar  208  PHE208     -0.0042
    154  CD2       -9.9860  -30.8460   10.8470 C.ar  208  PHE208     -0.0042
    155  CE1       -9.1850  -28.1790   10.5860 C.ar  208  PHE208     -0.0003
    156  CE2       -9.3840  -30.1810   11.9480 C.ar  208  PHE208     -0.0003
    157  CZ        -8.9930  -28.8410   11.7970 C.ar  208  PHE208     -0.0000
    158  N         -3.4980  -34.1350    6.2460 N.3   237  PHE237     -0.1227
    159  CA        -2.9730  -34.2850    7.6000 C.3   237  PHE237      0.1736
    160  C         -1.6000  -34.9640    7.5590 C.2   237  PHE237      0.2596
    161  O         -1.4210  -36.0250    6.9180 O.2   237  PHE237     -0.2718
    162  CB        -3.8650  -35.1520    8.5190 C.3   237  PHE237      0.0547
    163  CG        -5.0650  -34.4380    9.0950 C.ar  237  PHE237     -0.0202
    164  CD1       -4.9090  -33.2390    9.7950 C.ar  237  PHE237     -0.0042
    165  CD2       -6.3390  -35.0170    9.0250 C.ar  237  PHE237     -0.0042
    166  CE1       -6.0060  -32.6230   10.4300 C.ar  237  PHE237     -0.0003
    167  CE2       -7.4540  -34.4070    9.6270 C.ar  237  PHE237     -0.0003
    168  CZ        -7.2760  -33.1870   10.3390 C.ar  237  PHE237     -0.0000
    169  N         -0.6920  -34.4490    8.3800 N.am  238  GLY238     -0.1942
    170  CA         0.6060  -35.1310    8.5370 C.3   238  GLY238      0.2014
    171  C          0.9550  -34.9000    9.9930 C.2   238  GLY238      0.2639
    172  O          1.1290  -33.7550   10.4110 O.2   238  GLY238     -0.2714
    173  N          1.1170  -35.9690   10.7620 N.am  239  GLU239     -0.1963
    174  CA         1.2890  -35.8310   12.2110 C.3   239  GLU239      0.1733
    175  C          2.6590  -35.2420   12.5440 C.2   239  GLU239      0.2616
    176  O          3.6490  -35.5540   11.8610 O.2   239  GLU239     -0.2715
    177  CB         1.2370  -37.2500   12.8260 C.3   239  GLU239      0.0429
    178  CG        -0.2190  -37.8100   12.7670 C.3   239  GLU239      0.1163
    179  CD        -0.3490  -39.1670   13.4050 C.2   239  GLU239      0.3649
    180  OE1        0.6270  -39.6460   14.0360 O.co2 239  GLU239     -0.2457
    181  OE2       -1.4150  -39.7880   13.1590 O.co2 239  GLU239     -0.2457
    182  N          2.7450  -34.5090   13.6630 N.am  240  ALA240     -0.1977
    183  CA         4.0550  -34.0080   14.1100 C.3   240  ALA240      0.1597
    184  C          3.9430  -33.5060   15.5370 C.2   240  ALA240      0.2287
    185  O          2.8290  -33.2540   16.0310 O.2   240  ALA240     -0.2864
    186  CB         4.5600  -32.7940   13.2010 C.3   240  ALA240      0.0319
    187  N         -0.0620  -31.3430    7.3720 N.3   343  HIS343     -0.1226
    188  CA        -0.5130  -30.2700    8.2510 C.3   343  HIS343      0.1752
    189  C         -0.6750  -30.9080    9.6320 C.2   343  HIS343      0.2597
    190  O         -1.4980  -31.7940    9.7790 O.2   343  HIS343     -0.2718
    191  CB        -1.9190  -29.7610    7.7940 C.3   343  HIS343      0.0759
    192  CG        -2.2440  -28.3850    8.2920 C.ar  343  HIS343      0.0818
    193  ND1       -1.6920  -27.8680    9.4470 N.ar  343  HIS343     -0.2268
    194  CD2       -3.0890  -27.4330    7.8240 C.ar  343  HIS343      0.1154
    195  CE1       -2.1430  -26.6430    9.6540 C.ar  343  HIS343      0.1986
    196  NE2       -2.9810  -26.3390    8.6630 N.ar  343  HIS343     -0.2212
    197  N          0.0240  -30.4000   10.6530 N.am  344  SER344     -0.1938
    198  CA        -0.1980  -30.9010   12.0130 C.3   344  SER344      0.2055
    199  C         -0.8450  -29.8570   12.9300 C.2   344  SER344      0.2642
    200  O         -0.6630  -29.9450   14.1580 O.2   344  SER344     -0.2714
    201  CB         1.1460  -31.3570   12.6510 C.3   344  SER344      0.2130
    202  OG         2.1820  -30.4430   12.3090 O.3   344  SER344     -0.2179
    203  N         -1.5880  -28.9040   12.3430 N.am  345  ILE345     -0.1977
    204  CA        -2.5360  -28.0890   13.1270 C.3   345  ILE345      0.1596
    205  C         -1.7380  -27.3860   14.2660 C.2   345  ILE345      0.2287
    206  O         -0.8590  -26.5950   13.9520 O.2   345  ILE345     -0.2864
    207  CB        -3.7510  -28.8710   13.6490 C.3   345  ILE345      0.0276
    208  CG1       -4.3180  -29.8140   12.5490 C.3   345  ILE345      0.0022
    209  CG2       -4.7800  -27.8950   14.2280 C.3   345  ILE345      0.0022
    210  CD1       -4.8510  -29.0240   11.2410 C.3   345  ILE345      0.0001
    211  N         -7.2900  -20.5210   11.9890 N.3   402  PHE402     -0.1241
    212  CA        -8.7270  -20.2380   12.0960 C.3   402  PHE402      0.1605
    213  C         -8.9100  -19.3240   13.3100 C.2   402  PHE402      0.2264
    214  O         -8.3230  -19.5410   14.3820 O.2   402  PHE402     -0.2867
    215  CB        -9.5190  -21.5190   12.3590 C.3   402  PHE402      0.0534
    216  CG        -9.6510  -22.4220   11.1520 C.ar  402  PHE402     -0.0203
    217  CD1       -9.2930  -22.0180    9.8550 C.ar  402  PHE402     -0.0042
    218  CD2      -10.1890  -23.6960   11.3580 C.ar  402  PHE402     -0.0042
    219  CE1       -9.4700  -22.9140    8.7460 C.ar  402  PHE402     -0.0003
    220  CE2      -10.3740  -24.5860   10.2810 C.ar  402  PHE402     -0.0003
    221  CZ       -10.0210  -24.1930    8.9860 C.ar  402  PHE402     -0.0000
@<TRIPOS>BOND
     1   150   149    2
     2   158   159    1
     3   161   160    2
     4   149   148    1
     5   187   188    1
     6   160   159    1
     7   160   169   am
     8   159   162    1
     9   191   188    1
    10   191   192    1
    11   194   192   ar
    12   194   196   ar
    13   188   189    1
    14   192   193   ar
    15   169   170    1
    16   148   151    1
    17   148   147    1
    18   151   152    1
    19   162   163    1
    20   170   171    1
    21   196   195   ar
    22   219   221   ar
    23   219   217   ar
    24   221   220   ar
    25   165   163   ar
    26   165   167   ar
    27   163   164   ar
    28   145   144    2
    29   193   195   ar
    30   153   152   ar
    31   153   155   ar
    32   147   144   am
    33   117   115    1
    34   167   168   ar
    35   189   190    2
    36   189   197   am
    37   152   154   ar
    38   164   166   ar
    39   144   143    1
    40   217   216   ar
    41   171   172    2
    42   171   173   am
    43   220   218   ar
    44   116   114    1
    45   168   166   ar
    46    89    87   am
    47   142   143    1
    48   155   157   ar
    49   197   198    1
    50   173   174    1
    51   115   114    1
    52   143   146    1
    53   154   156   ar
    54   138   137    2
    55   216   218   ar
    56   216   215    1
    57   210   208    1
    58   114   111    1
    59    87    86    1
    60    87    88    2
    61    86    85    1
    62   137   136    1
    63    85    82    1
    64   157   156   ar
    65   176   175    2
    66   211   212    1
    67   198   201    1
    68   198   199    1
    69   212   215    1
    70   212   213    1
    71   121   120    2
    72   174   175    1
    73   174   177    1
    74   202   201    1
    75   203   199   am
    76   203   204    1
    77   175   182   am
    78   208   207    1
    79   111   112    1
    80   111   110    1
    81   178   177    1
    82   178   179    1
    83    84    83    2
    84   130   129    2
    85   120   119    1
    86   199   200    2
    87   136   139    1
    88   136   135    1
    89   204   207    1
    90   204   205    1
    91   181   179   ar
    92    82    83    1
    93    82    81    1
    94   186   183    1
    95   112   118   am
    96   112   113    2
    97   118   119    1
    98   213   214    2
    99   179   180   ar
   100   129   135   am
   101   129   128    1
   102   139   140    1
   103   135   141    1
   104   127   128    1
   105   110   105   am
   106   207   209    1
   107   182   183    1
   108   119   122    1
   109   128   131    1
   110   206   205    2
   111    81    78   am
   112   183   184    1
   113   141   140    1
   114   105   106    2
   115   105   104    1
   116   133   132    1
   117   125   124   ar
   118    80    77    1
   119   122   123    1
   120    78    79    2
   121    78    77    1
   122   131   132    1
   123   184   185    2
   124   124   126   ar
   125   124   123    1
   126   104   107    1
   127   104   103    1
   128   132   134    1
   129   102   101    2
   130    77    76    1
   131   107   108    1
   132    95    94    1
   133    95    96    1
   134   103   101   am
   135   103   109    1
   136    94    91    1
   137   101   100    1
   138    97    96   ar
   139    96    98   ar
   140   108   109    1
   141   100    99    1
   142    93    92    2
   143    91    92    1
   144    91    90    1
   145    20    19    1
   146    92    99   am
   147    40    39    1
   148    40    41    1
   149    19    17   ar
   150    19    18   ar
   151    17    15   ar
   152    42    41    2
   153    41    43   am
   154    50    48    1
   155    18    16   ar
   156    47    48    1
   157    47    44    1
   158    43    44    1
   159    15    14   ar
   160    48    49    1
   161    16    14   ar
   162    44    45    1
   163    14    13    1
   164    26    25    1
   165    59    56    1
   166    74    73    1
   167    45    51   am
   168    45    46    2
   169    13    10    1
   170    51    52    1
   171    75    73    1
   172    54    53    2
   173    64    61    1
   174    64    65    1
   175    25    22    1
   176    25    27    1
   177    73    70    1
   178    60    61    1
   179    60    57   am
   180    61    62    1
   181    22    21    1
   182    22    23    1
   183    12    11    2
   184    56    57    1
   185    56    55    1
   186    57    58    2
   187    21    11   am
   188    11    10    1
   189    67    66   ar
   190    10     9    1
   191    52    53    1
   192    65    66    1
   193    38    36    1
   194    66    68   ar
   195    24    23    2
   196    70    69    1
   197    70    71    1
   198    62    63    2
   199    30    31    2
   200    30    29    1
   201    36    35    2
   202    36    37    1
   203    35    34    1
   204     8     7    1
   205    32    29    1
   206    32    33    1
   207    71    72    2
   208     7     6    1
   209    29    28    1
   210    34    33    1
   211     6     5    1
   212     5     2    1
   213     2     3    1
   214     2     1    1
   215     4     3    2
