@<TRIPOS>MOLECULE
tmp/4c73A02.pdb
 76 73 0 0 0
SMALL
GASTEIGER

@<TRIPOS>ATOM
      1  N        -12.0170  -36.3520   27.0420 N.3   120  ILE120     -0.1245
      2  CA       -13.3860  -35.8650   27.1120 C.3   120  ILE120      0.1561
      3  C        -14.3900  -36.9240   26.6590 C.2   120  ILE120      0.2260
      4  O        -15.3470  -37.2380   27.3870 O.2   120  ILE120     -0.2867
      5  CB       -13.5630  -34.5910   26.2210 C.3   120  ILE120      0.0252
      6  CG1      -12.6910  -33.4590   26.7490 C.3   120  ILE120      0.0019
      7  CG2      -15.0560  -34.1860   26.2310 C.3   120  ILE120      0.0019
      8  CD1      -12.6110  -32.1860   25.8090 C.3   120  ILE120      0.0001
      9  N        -14.4490  -39.8280   29.1010 N.3   123  SER123     -0.1202
     10  CA       -15.1480  -39.5700   30.3720 C.3   123  SER123      0.2020
     11  C        -16.6830  -39.5240   30.1850 C.2   123  SER123      0.2618
     12  O        -17.4640  -39.9670   31.0260 O.2   123  SER123     -0.2717
     13  CB       -14.6950  -38.2180   30.9980 C.3   123  SER123      0.2103
     14  OG       -13.2960  -38.2160   31.3110 O.3   123  SER123     -0.2182
     15  N        -17.0950  -38.9710   29.0510 N.am  124  TYR124     -0.1975
     16  CA       -18.5030  -38.9000   28.6690 C.3   124  TYR124      0.1639
     17  C        -19.1090  -40.2990   28.5360 C.2   124  TYR124      0.2290
     18  O        -20.1550  -40.5750   29.1410 O.2   124  TYR124     -0.2864
     19  CB       -18.5980  -38.1010   27.3550 C.3   124  TYR124      0.0560
     20  CG       -19.9740  -37.9720   26.7240 C.ar  124  TYR124     -0.0198
     21  CD1      -20.9410  -37.1310   27.2870 C.ar  124  TYR124     -0.0009
     22  CD2      -20.2730  -38.6120   25.5100 C.ar  124  TYR124     -0.0009
     23  CE1      -22.1930  -36.9460   26.6680 C.ar  124  TYR124      0.0417
     24  CE2      -21.5040  -38.3950   24.8630 C.ar  124  TYR124      0.0417
     25  CZ       -22.4450  -37.5410   25.4440 C.ar  124  TYR124      0.1957
     26  OH       -23.6610  -37.2930   24.8180 O.3   124  TYR124     -0.2866
     27  N        -15.7770  -41.6110   36.2650 N.3   135  VAL135     -0.1245
     28  CA       -14.8640  -40.6080   35.7330 C.3   135  VAL135      0.1561
     29  C        -13.5430  -40.6040   36.5310 C.2   135  VAL135      0.2260
     30  O        -13.5640  -40.6210   37.7700 O.2   135  VAL135     -0.2867
     31  CB       -15.5410  -39.2420   35.8090 C.3   135  VAL135      0.0252
     32  CG1      -14.5730  -38.1120   35.3670 C.3   135  VAL135      0.0019
     33  CG2      -16.8390  -39.2550   34.9500 C.3   135  VAL135      0.0019
     34  N         -9.0730  -36.9650   35.1020 N.3   139  ALA139     -0.1231
     35  CA        -9.6220  -36.5010   33.8170 C.3   139  ALA139      0.1694
     36  C         -9.3690  -35.0100   33.5870 C.2   139  ALA139      0.2591
     37  O         -8.9880  -34.5960   32.4710 O.2   139  ALA139     -0.2718
     38  CB       -11.1490  -36.8100   33.7600 C.3   139  ALA139      0.0304
     39  N         -9.6250  -34.1890   34.6070 N.am  140  VAL140     -0.1980
     40  CA        -9.4450  -32.7450   34.4450 C.3   140  VAL140      0.1595
     41  C         -8.0210  -32.4250   33.9580 C.2   140  VAL140      0.2287
     42  O         -7.8240  -31.6910   32.9860 O.2   140  VAL140     -0.2864
     43  CB        -9.7820  -31.9390   35.7200 C.3   140  VAL140      0.0276
     44  CG1       -9.4640  -30.4220   35.5010 C.3   140  VAL140      0.0022
     45  CG2      -11.2830  -32.1250   36.0860 C.3   140  VAL140      0.0022
     46  N         -7.2930  -33.4370   30.3580 N.3   143  ILE143     -0.1231
     47  CA        -8.1370  -32.8260   29.3350 C.3   143  ILE143      0.1692
     48  C         -7.7370  -31.3640   29.0970 C.2   143  ILE143      0.2592
     49  O         -7.7200  -30.9080   27.9410 O.2   143  ILE143     -0.2718
     50  CB        -9.6380  -32.8880   29.7580 C.3   143  ILE143      0.0266
     51  CG1      -10.2030  -34.3180   29.5580 C.3   143  ILE143      0.0019
     52  CG2      -10.4590  -31.8060   28.9990 C.3   143  ILE143      0.0020
     53  CD1      -11.5710  -34.5080   30.2750 C.3   143  ILE143      0.0001
     54  N         -7.3830  -30.6580   30.1720 N.am  144  MET144     -0.1966
     55  CA        -7.2110  -29.2070   30.0920 C.3   144  MET144      0.1721
     56  C         -6.1270  -28.8880   29.0190 C.2   144  MET144      0.2458
     57  O         -5.0920  -29.5440   28.9500 O.2   144  MET144     -0.2730
     58  CB        -6.8150  -28.6340   31.4570 C.3   144  MET144      0.0427
     59  CG        -5.4130  -29.1120   31.9560 C.3   144  MET144      0.0599
     60  SD        -5.1790  -28.6230   33.7100 S.3   144  MET144     -0.1393
     61  CE        -3.4340  -29.0940   33.9210 C.3   144  MET144      0.0692
     62  N         -6.3480  -27.8870   28.1650 N.am  145  PRO145     -0.2716
     63  CA        -5.4090  -27.7500   27.0260 C.3   145  PRO145      0.1536
     64  C         -3.9930  -27.2800   27.3860 C.2   145  PRO145      0.2598
     65  O         -3.0770  -27.5430   26.5970 O.2   145  PRO145     -0.2715
     66  CB        -6.0450  -26.5980   26.2020 C.3   145  PRO145      0.0310
     67  CG        -7.4980  -26.7150   26.5030 C.3   145  PRO145      0.0237
     68  CD        -7.5230  -26.9920   28.0210 C.3   145  PRO145      0.0939
     69  N         -3.8270  -26.6870   28.5770 N.am  146  ASN146     -0.1973
     70  CA        -2.5020  -26.3680   29.1560 C.3   146  ASN146      0.1688
     71  C         -1.7980  -27.6160   29.7030 C.2   146  ASN146      0.2292
     72  O         -0.6370  -27.5630   30.1270 O.2   146  ASN146     -0.2864
     73  CB        -2.6020  -25.3190   30.2770 C.3   146  ASN146      0.1181
     74  CG        -3.6160  -25.7000   31.3580 C.2   146  ASN146      0.2629
     75  OD1       -4.7570  -26.0300   31.0480 O.2   146  ASN146     -0.2716
     76  ND2       -3.1720  -25.7470   32.6290 N.am  146  ASN146     -0.0877
@<TRIPOS>BOND
     1    26    25    1
     2    24    25   ar
     3    24    22   ar
     4    25    23   ar
     5    22    20   ar
     6     8     6    1
     7    66    67    1
     8    66    63    1
     9     5     7    1
    10     5     6    1
    11     5     2    1
    12    67    68    1
    13    65    64    2
    14     3     2    1
    15     3     4    2
    16    23    21   ar
    17    20    21   ar
    18    20    19    1
    19    63    64    1
    20    63    62    1
    21     1     2    1
    22    19    16    1
    23    64    69   am
    24    49    48    2
    25    68    62    1
    26    62    56   am
    27    17    16    1
    28    17    18    2
    29    69    70    1
    30    16    15    1
    31    57    56    2
    32    52    50    1
    33    56    55    1
    34    15    11   am
    35    48    47    1
    36    48    54   am
    37     9    10    1
    38    70    71    1
    39    70    73    1
    40    47    50    1
    41    47    46    1
    42    51    50    1
    43    51    53    1
    44    71    72    2
    45    55    54    1
    46    55    58    1
    47    11    10    1
    48    11    12    2
    49    73    74    1
    50    10    13    1
    51    13    14    1
    52    75    74    2
    53    74    76   am
    54    58    59    1
    55    59    60    1
    56    37    36    2
    57    42    41    2
    58    36    35    1
    59    36    39   am
    60    60    61    1
    61    38    35    1
    62    35    34    1
    63    41    40    1
    64    40    39    1
    65    40    43    1
    66    33    31    1
    67    32    31    1
    68    44    43    1
    69    43    45    1
    70    28    31    1
    71    28    27    1
    72    28    29    1
    73    29    30    2
