@<TRIPOS>MOLECULE
tmp/4c78A00.pdb
 210 211 0 0 0
SMALL
GASTEIGER

@<TRIPOS>ATOM
      1  N         -1.9370   24.5840  -32.0300 N.3    35  ASP35      -0.1225
      2  CA        -3.2430   25.0700  -32.4130 C.3    35  ASP35       0.1805
      3  C         -3.7070   24.0930  -33.4780 C.2    35  ASP35       0.2598
      4  O         -2.8920   23.5780  -34.2680 O.2    35  ASP35      -0.2718
      5  CB        -3.2050   26.5170  -32.9100 C.3    35  ASP35       0.1424
      6  CG        -3.3470   26.6210  -34.4040 C.2    35  ASP35       0.3668
      7  OD1       -4.5110   26.6910  -34.8850 O.co2  35  ASP35      -0.2456
      8  OD2       -2.3000   26.6180  -35.0900 O.co2  35  ASP35      -0.2456
      9  N         -5.0030   23.8060  -33.4710 N.am   36  PHE36      -0.1962
     10  CA        -5.5430   22.6730  -34.2750 C.3    36  PHE36       0.1771
     11  C         -5.6500   22.9470  -35.7910 C.2    36  PHE36       0.2619
     12  O         -5.9500   22.0250  -36.5460 O.2    36  PHE36      -0.2715
     13  CB        -6.9020   22.1720  -33.7520 C.3    36  PHE36       0.0574
     14  CG        -6.8930   21.6970  -32.3110 C.ar   36  PHE36      -0.0200
     15  CD1       -5.7360   21.1360  -31.7130 C.ar   36  PHE36      -0.0042
     16  CD2       -8.0670   21.7670  -31.5490 C.ar   36  PHE36      -0.0042
     17  CE1       -5.7610   20.7070  -30.3980 C.ar   36  PHE36      -0.0003
     18  CE2       -8.0770   21.3310  -30.2460 C.ar   36  PHE36      -0.0003
     19  CZ        -6.9380   20.8050  -29.6690 C.ar   36  PHE36      -0.0000
     20  N         -5.4290   24.1820  -36.2270 N.am   37  ARG37      -0.1977
     21  CA        -5.2650   24.4550  -37.6590 C.3    37  ARG37       0.1597
     22  C         -3.9170   23.9060  -38.1930 C.2    37  ARG37       0.2287
     23  O         -3.8450   23.5150  -39.3540 O.2    37  ARG37      -0.2864
     24  CB        -5.4300   25.9500  -37.9480 C.3    37  ARG37       0.0334
     25  CG        -5.4460   26.3170  -39.4340 C.3    37  ARG37       0.0492
     26  CD        -6.1150   27.6700  -39.6860 C.3    37  ARG37       0.2205
     27  NE        -7.5670   27.4940  -39.7590 N.pl3  37  ARG37      -0.0865
     28  CZ        -8.2760   27.3220  -40.8800 C.cat  37  ARG37       0.5346
     29  NH1       -7.6870   27.2800  -42.0800 N.pl3  37  ARG37       0.1354
     30  NH2       -9.5990   27.1690  -40.7940 N.pl3  37  ARG37       0.1354
     31  N         -8.9820   20.1220  -45.8760 N.3    42  TYR42      -0.1228
     32  CA        -9.0460   21.4470  -45.1980 C.3    42  TYR42       0.1721
     33  C         -8.9900   21.0490  -43.7290 C.2    42  TYR42       0.2437
     34  O         -9.3250   19.9510  -43.4070 O.2    42  TYR42      -0.2733
     35  CB       -10.3400   22.2040  -45.5010 C.3    42  TYR42       0.0547
     36  CG       -11.5090   21.2930  -45.5210 C.ar   42  TYR42      -0.0200
     37  CD1      -12.1520   20.9240  -44.3420 C.ar   42  TYR42      -0.0009
     38  CD2      -11.9470   20.7160  -46.7390 C.ar   42  TYR42      -0.0009
     39  CE1      -13.2180   20.0220  -44.3580 C.ar   42  TYR42       0.0417
     40  CE2      -13.0170   19.8340  -46.7600 C.ar   42  TYR42       0.0417
     41  CZ       -13.6300   19.4880  -45.5800 C.ar   42  TYR42       0.1957
     42  OH       -14.6670   18.6540  -45.6210 O.3    42  TYR42      -0.2866
     43  N         -8.5360   21.9290  -42.8630 N.am   43  PRO43      -0.2718
     44  CA        -8.1390   21.4330  -41.5150 C.3    43  PRO43       0.1535
     45  C         -9.2960   20.9130  -40.6850 C.2    43  PRO43       0.2598
     46  O         -9.1170   20.0070  -39.8120 O.2    43  PRO43      -0.2715
     47  CB        -7.4940   22.6660  -40.8450 C.3    43  PRO43       0.0310
     48  CG        -7.2790   23.6620  -41.9290 C.3    43  PRO43       0.0237
     49  CD        -8.2350   23.3480  -43.0610 C.3    43  PRO43       0.0939
     50  N        -10.4950   21.4290  -40.9600 N.am   44  GLU44      -0.1978
     51  CA       -11.6620   20.9910  -40.1560 C.3    44  GLU44       0.1602
     52  C        -12.0140   19.5430  -40.3930 C.2    44  GLU44       0.2287
     53  O        -12.7180   18.9500  -39.5790 O.2    44  GLU44      -0.2864
     54  CB       -12.9010   21.8540  -40.4460 C.3    44  GLU44       0.0415
     55  CG       -12.7460   23.3210  -40.0570 C.3    44  GLU44       0.1163
     56  CD       -11.7510   24.1260  -40.8980 C.2    44  GLU44       0.3649
     57  OE1      -11.4340   23.7790  -42.0540 O.co2  44  GLU44      -0.2457
     58  OE2      -11.3280   25.1800  -40.3830 O.co2  44  GLU44      -0.2457
     59  N        -10.3620   17.1760  -39.8020 N.3    46  ILE46      -0.1231
     60  CA        -9.8290   16.4230  -38.7060 C.3    46  ILE46       0.1692
     61  C        -10.9100   16.0660  -37.6940 C.2    46  ILE46       0.2592
     62  O        -10.8160   15.0560  -37.0660 O.2    46  ILE46      -0.2718
     63  CB        -8.6390   17.1290  -38.0410 C.3    46  ILE46       0.0266
     64  CG1       -7.7830   16.1020  -37.3280 C.3    46  ILE46       0.0019
     65  CG2       -9.0650   18.2410  -37.0870 C.3    46  ILE46       0.0020
     66  CD1       -6.4530   16.6450  -36.9050 C.3    46  ILE46       0.0001
     67  N        -11.9390   16.8880  -37.5530 N.am   47  PHE47      -0.1962
     68  CA       -13.0260   16.5430  -36.6850 C.3    47  PHE47       0.1771
     69  C        -14.3430   16.2790  -37.4810 C.2    47  PHE47       0.2619
     70  O        -15.4150   16.4970  -36.9650 O.2    47  PHE47      -0.2715
     71  CB       -13.2580   17.6050  -35.6560 C.3    47  PHE47       0.0574
     72  CG       -12.0480   17.9960  -34.8470 C.ar   47  PHE47      -0.0200
     73  CD1      -11.2750   17.0610  -34.1810 C.ar   47  PHE47      -0.0042
     74  CD2      -11.7360   19.3180  -34.6880 C.ar   47  PHE47      -0.0042
     75  CE1      -10.1910   17.4490  -33.4260 C.ar   47  PHE47      -0.0003
     76  CE2      -10.6460   19.7320  -33.9200 C.ar   47  PHE47      -0.0003
     77  CZ        -9.8520   18.7830  -33.2980 C.ar   47  PHE47      -0.0000
     78  N        -14.2380   15.7090  -38.6810 N.am   48  GLU48      -0.1977
     79  CA       -15.3750   15.3890  -39.5020 C.3    48  GLU48       0.1602
     80  C        -15.4640   13.9080  -39.6650 C.2    48  GLU48       0.2287
     81  O        -14.4990   13.2630  -40.0730 O.2    48  GLU48      -0.2864
     82  CB       -15.1840   16.0120  -40.8700 C.3    48  GLU48       0.0415
     83  CG       -16.4290   16.0150  -41.7200 C.3    48  GLU48       0.1163
     84  CD       -16.1060   16.3610  -43.1130 C.2    48  GLU48       0.3649
     85  OE1      -15.6370   17.5180  -43.3500 O.co2  48  GLU48      -0.2457
     86  OE2      -16.2120   15.4040  -43.9110 O.co2  48  GLU48      -0.2457
     87  N        -14.2200   24.0840  -23.6330 N.3    95  GLN95      -0.1245
     88  CA       -14.2200   23.7090  -25.0370 C.3    95  GLN95       0.1566
     89  C        -12.9500   22.9180  -25.4390 C.2    95  GLN95       0.2260
     90  O        -12.8710   22.4400  -26.5710 O.2    95  GLN95      -0.2867
     91  CB       -14.2780   24.9300  -25.9070 C.3    95  GLN95       0.0367
     92  CG       -15.5920   25.7080  -25.6470 C.3    95  GLN95       0.0905
     93  CD       -15.4810   27.0950  -26.1970 C.2    95  GLN95       0.2608
     94  OE1      -16.1330   27.4470  -27.1590 O.2    95  GLN95      -0.2717
     95  NE2      -14.5220   27.8600  -25.6630 N.am   95  GLN95      -0.0878
     96  N         -9.9800   19.9400  -25.5010 N.3    97  ILE97      -0.1245
     97  CA        -9.9510   18.4970  -25.4570 C.3    97  ILE97       0.1561
     98  C         -8.6400   17.9090  -24.9000 C.2    97  ILE97       0.2260
     99  O         -8.3670   16.7250  -25.0780 O.2    97  ILE97      -0.2867
    100  CB       -10.2700   17.9010  -26.8630 C.3    97  ILE97       0.0252
    101  CG1       -9.2130   18.3790  -27.9010 C.3    97  ILE97       0.0019
    102  CG2      -11.7560   18.2450  -27.2050 C.3    97  ILE97       0.0019
    103  CD1       -9.3510   17.8590  -29.3090 C.3    97  ILE97       0.0001
    104  N        -16.5920   19.2770  -25.4970 N.3   115  HIS115     -0.1241
    105  CA       -16.1400   18.6880  -26.7800 C.3   115  HIS115      0.1621
    106  C        -15.5700   17.2980  -26.5820 C.2   115  HIS115      0.2264
    107  O        -14.9470   16.7150  -27.5200 O.2   115  HIS115     -0.2867
    108  CB       -15.1530   19.6040  -27.5210 C.3   115  HIS115      0.0745
    109  CG       -15.8060   20.8320  -28.0850 C.ar  115  HIS115      0.0817
    110  ND1      -15.1660   22.0330  -28.2400 N.ar  115  HIS115     -0.2268
    111  CD2      -17.0760   21.0320  -28.4970 C.ar  115  HIS115      0.1154
    112  CE1      -15.9770   22.9100  -28.7960 C.ar  115  HIS115      0.1986
    113  NE2      -17.1630   22.3360  -28.9390 N.ar  115  HIS115     -0.2212
    114  N        -14.1680   12.2540  -28.4990 N.3   158  ILE158     -0.1231
    115  CA       -14.1080   13.6510  -28.8990 C.3   158  ILE158      0.1692
    116  C        -15.3590   13.9150  -29.7420 C.2   158  ILE158      0.2592
    117  O        -15.6870   13.1490  -30.6480 O.2   158  ILE158     -0.2718
    118  CB       -12.8390   13.9380  -29.7370 C.3   158  ILE158      0.0266
    119  CG1      -11.5460   13.6650  -28.9540 C.3   158  ILE158      0.0019
    120  CG2      -12.7950   15.3710  -30.2160 C.3   158  ILE158      0.0020
    121  CD1      -11.5470   14.1970  -27.5580 C.3   158  ILE158      0.0001
    122  N        -16.0060   15.0560  -29.5000 N.am  159  VAL159     -0.1966
    123  CA       -17.2300   15.3680  -30.1630 C.3   159  VAL159      0.1727
    124  C        -16.7850   15.9080  -31.5380 C.2   159  VAL159      0.2616
    125  O        -16.0430   16.8860  -31.6380 O.2   159  VAL159     -0.2715
    126  CB       -18.0260   16.4320  -29.3920 C.3   159  VAL159      0.0290
    127  CG1      -19.2430   16.8470  -30.1880 C.3   159  VAL159      0.0023
    128  CG2      -18.4590   15.9420  -27.9890 C.3   159  VAL159      0.0023
    129  N        -17.2430   15.2920  -32.5780 N.am  160  PHE160     -0.1960
    130  CA       -16.9430   15.7720  -33.9440 C.3   160  PHE160      0.1771
    131  C        -18.0110   16.6980  -34.4250 C.2   160  PHE160      0.2620
    132  O        -19.1340   16.6790  -33.9140 O.2   160  PHE160     -0.2715
    133  CB       -16.8060   14.5670  -34.8690 C.3   160  PHE160      0.0574
    134  CG       -15.4310   13.9770  -34.9070 C.ar  160  PHE160     -0.0200
    135  CD1      -14.5200   14.1550  -33.8520 C.ar  160  PHE160     -0.0042
    136  CD2      -15.0210   13.2210  -36.0120 C.ar  160  PHE160     -0.0042
    137  CE1      -13.2550   13.5850  -33.8790 C.ar  160  PHE160     -0.0003
    138  CE2      -13.7400   12.6840  -36.0550 C.ar  160  PHE160     -0.0003
    139  CZ       -12.8450   12.8960  -35.0090 C.ar  160  PHE160     -0.0000
    140  N        -17.6920   17.4790  -35.4500 N.am  161  PHE161     -0.1960
    141  CA       -18.6770   18.3960  -36.0310 C.3   161  PHE161      0.1771
    142  C        -19.9720   17.6910  -36.3700 C.2   161  PHE161      0.2620
    143  O        -19.9610   16.5910  -36.8770 O.2   161  PHE161     -0.2715
    144  CB       -18.1510   19.1300  -37.2660 C.3   161  PHE161      0.0574
    145  CG       -17.0480   20.0840  -36.9620 C.ar  161  PHE161     -0.0200
    146  CD1      -17.2400   21.1040  -36.0300 C.ar  161  PHE161     -0.0042
    147  CD2      -15.8330   19.9830  -37.6100 C.ar  161  PHE161     -0.0042
    148  CE1      -16.2160   21.9930  -35.7020 C.ar  161  PHE161     -0.0003
    149  CE2      -14.8190   20.8850  -37.3080 C.ar  161  PHE161     -0.0003
    150  CZ       -15.0120   21.8710  -36.3430 C.ar  161  PHE161     -0.0000
    151  N        -21.1040   18.3140  -36.0320 N.am  162  GLY162     -0.1940
    152  CA       -22.4010   17.7010  -36.3130 C.3   162  GLY162      0.2014
    153  C        -22.8720   16.6760  -35.2390 C.2   162  GLY162      0.2639
    154  O        -24.0270   16.3500  -35.2090 O.2   162  GLY162     -0.2714
    155  N        -22.0070   16.1820  -34.3640 N.am  163  GLU163     -0.1963
    156  CA       -22.3970   15.1760  -33.3480 C.3   163  GLU163      0.1718
    157  C        -22.9720   15.9110  -32.1620 C.2   163  GLU163      0.2458
    158  O        -22.6250   17.0720  -31.9210 O.2   163  GLU163     -0.2730
    159  CB       -21.2220   14.3230  -32.8640 C.3   163  GLU163      0.0428
    160  CG       -20.6430   13.3510  -33.8810 C.3   163  GLU163      0.1163
    161  CD       -19.6240   12.4180  -33.2550 C.2   163  GLU163      0.3649
    162  OE1      -18.6430   12.8160  -32.5370 O.co2 163  GLU163     -0.2457
    163  OE2      -19.7860   11.2300  -33.5030 O.co2 163  GLU163     -0.2457
    164  N        -23.8640   15.2560  -31.4180 N.am  164  PRO164     -0.2716
    165  CA       -24.4600   15.8970  -30.2820 C.3   164  PRO164      0.1536
    166  C        -23.4240   16.2640  -29.2460 C.2   164  PRO164      0.2598
    167  O        -22.4840   15.5220  -29.0510 O.2   164  PRO164     -0.2715
    168  CB       -25.4150   14.8080  -29.7500 C.3   164  PRO164      0.0310
    169  CG       -25.8960   14.2160  -31.0280 C.3   164  PRO164      0.0237
    170  CD       -24.6040   14.0320  -31.7710 C.3   164  PRO164      0.0939
    171  N        -23.5480   17.4400  -28.6520 N.am  165  LEU165     -0.1978
    172  CA       -22.8250   17.7310  -27.4400 C.3   165  LEU165      0.1596
    173  C        -23.1170   16.7400  -26.3270 C.2   165  LEU165      0.2287
    174  O        -24.1390   16.0760  -26.3260 O.2   165  LEU165     -0.2864
    175  CB       -23.0620   19.1820  -26.9980 C.3   165  LEU165      0.0297
    176  CG       -22.5960   20.3290  -27.9150 C.3   165  LEU165      0.0022
    177  CD1      -22.2600   21.4830  -27.0000 C.3   165  LEU165      0.0001
    178  CD2      -21.2960   20.0050  -28.6330 C.3   165  LEU165      0.0001
    179  N        -17.8280   33.0510  -29.3890 N.3   190  GLU190     -0.1231
    180  CA       -18.5220   33.3890  -30.6440 C.3   190  GLU190      0.1699
    181  C        -19.4100   32.2400  -31.2270 C.2   190  GLU190      0.2592
    182  O        -20.4390   32.4890  -31.8960 O.2   190  GLU190     -0.2718
    183  CB       -17.4800   33.8130  -31.6950 C.3   190  GLU190      0.0402
    184  CG       -16.8390   32.6750  -32.5030 C.3   190  GLU190      0.1161
    185  CD       -15.9920   31.6790  -31.7000 C.2   190  GLU190      0.3649
    186  OE1      -16.1400   31.6020  -30.4440 O.co2 190  GLU190     -0.2457
    187  OE2      -15.1800   30.9490  -32.3390 O.co2 190  GLU190     -0.2457
    188  N        -18.9890   31.0000  -30.9730 N.am  191  VAL191     -0.1966
    189  CA       -19.6850   29.8250  -31.4580 C.3   191  VAL191      0.1727
    190  C        -20.8900   29.4990  -30.5840 C.2   191  VAL191      0.2616
    191  O        -20.7650   29.3800  -29.3680 O.2   191  VAL191     -0.2715
    192  CB       -18.7160   28.6270  -31.4600 C.3   191  VAL191      0.0290
    193  CG1      -19.4750   27.3010  -31.5660 C.3   191  VAL191      0.0023
    194  CG2      -17.6960   28.8020  -32.6010 C.3   191  VAL191      0.0023
    195  N        -22.0560   29.3370  -31.1930 N.am  192  GLU192     -0.1964
    196  CA       -23.1930   28.8040  -30.4510 C.3   192  GLU192      0.1718
    197  C        -22.9640   27.3250  -30.1310 C.2   192  GLU192      0.2458
    198  O        -22.3040   26.6460  -30.9060 O.2   192  GLU192     -0.2730
    199  CB       -24.4920   28.9530  -31.2380 C.3   192  GLU192      0.0428
    200  CG       -24.9560   30.4010  -31.3470 C.3   192  GLU192      0.1163
    201  CD       -25.3740   31.0260  -30.0230 C.2   192  GLU192      0.3649
    202  OE1      -25.0370   30.5140  -28.9220 O.co2 192  GLU192     -0.2457
    203  OE2      -26.0460   32.0620  -30.0880 O.co2 192  GLU192     -0.2457
    204  N        -23.5320   26.8210  -28.9960 N.am  193  PRO193     -0.2727
    205  CA       -24.3820   27.4960  -28.0170 C.3   193  PRO193      0.1402
    206  C        -23.6180   28.2010  -26.9020 C.2   193  PRO193      0.2269
    207  O        -24.2410   28.7460  -26.0530 O.2   193  PRO193     -0.2865
    208  CB       -25.2010   26.3590  -27.4010 C.3   193  PRO193      0.0296
    209  CG       -24.4160   25.1040  -27.6920 C.3   193  PRO193      0.0237
    210  CD       -23.2310   25.4530  -28.5460 C.3   193  PRO193      0.0939
@<TRIPOS>BOND
     1    40    38   ar
     2    40    41   ar
     3    38    36   ar
     4    31    32    1
     5    42    41    1
     6    41    39   ar
     7    36    35    1
     8    36    37   ar
     9    35    32    1
    10    32    33    1
    11    39    37   ar
    12    86    84   ar
    13    33    34    2
    14    33    43   am
    15    85    84   ar
    16    84    83    1
    17    49    43    1
    18    49    48    1
    19    43    44    1
    20    29    28    1
    21    57    56   ar
    22    48    47    1
    23    83    82    1
    24    44    47    1
    25    44    45    1
    26    50    45   am
    27    50    51    1
    28    56    58   ar
    29    56    55    1
    30    28    30    1
    31    28    27    2
    32    82    79    1
    33    45    46    2
    34    54    51    1
    35    54    55    1
    36    52    51    1
    37    52    53    2
    38    81    80    2
    39    59    60    1
    40    27    26    1
    41    26    25    1
    42    80    79    1
    43    79    78    1
    44    25    24    1
    45    23    22    2
    46    60    63    1
    47    60    61    1
    48    78    69   am
    49    22    21    1
    50    63    64    1
    51    63    65    1
    52    24    21    1
    53    61    67   am
    54    61    62    2
    55    21    20    1
    56   147   149   ar
    57   147   145   ar
    58    67    68    1
    59    69    70    2
    60    69    68    1
    61    64    66    1
    62   149   150   ar
    63   144   145    1
    64   144   141    1
    65   145   146   ar
    66   143   142    2
    67    68    71    1
    68    12    11    2
    69   142   151   am
    70   142   141    1
    71   150   148   ar
    72   152   151    1
    73   152   153    1
    74    20    11   am
    75   138   136   ar
    76   138   139   ar
    77   141   140    1
    78   146   148   ar
    79   136   134   ar
    80    11    10    1
    81    71    72    1
    82   140   131   am
    83   153   154    2
    84   153   155   am
    85     8     6   ar
    86   139   137   ar
    87   134   133    1
    88   134   135   ar
    89     7     6   ar
    90   133   130    1
    91    72    74   ar
    92    72    73   ar
    93    74    76   ar
    94   131   130    1
    95   131   132    2
    96     6     5    1
    97   155   156    1
    98    10    13    1
    99    10     9    1
   100     4     3    2
   101    73    75   ar
   102   130   129    1
   103    76    77   ar
   104   160   161    1
   105   160   159    1
   106   137   135   ar
   107    13    14    1
   108   163   161   ar
   109     3     9   am
   110     3     2    1
   111    75    77   ar
   112   156   159    1
   113   156   157    1
   114   161   162   ar
   115     5     2    1
   116   194   192    1
   117   129   124   am
   118   184   185    1
   119   184   183    1
   120     2     1    1
   121   187   185   ar
   122    14    15   ar
   123    14    16   ar
   124   157   158    2
   125   157   164   am
   126   182   181    2
   127   170   164    1
   128   170   169    1
   129    15    17   ar
   130   185   186   ar
   131   183   180    1
   132   125   124    2
   133   193   192    1
   134    16    18   ar
   135   124   123    1
   136   192   189    1
   137   189   188    1
   138   189   190    1
   139   164   165    1
   140   200   199    1
   141   200   201    1
   142   199   196    1
   143   181   188   am
   144   181   180    1
   145   195   190   am
   146   195   196    1
   147   169   168    1
   148   198   197    2
   149   117   116    2
   150   180   179    1
   151   190   191    2
   152   196   197    1
   153    17    19   ar
   154   165   168    1
   155   165   166    1
   156    18    19   ar
   157   120   118    1
   158   127   126    1
   159   123   122    1
   160   123   126    1
   161   197   204   am
   162   203   201   ar
   163   201   202   ar
   164   116   122   am
   165   116   115    1
   166   118   119    1
   167   118   115    1
   168   126   128    1
   169   103   101    1
   170   166   167    2
   171   166   171   am
   172   204   210    1
   173   204   205    1
   174   119   121    1
   175   113   112   ar
   176   113   111   ar
   177   115   114    1
   178   112   110   ar
   179   171   172    1
   180   178   176    1
   181   210   209    1
   182   111   109   ar
   183   110   109   ar
   184   109   108    1
   185   205   208    1
   186   205   206    1
   187   176   177    1
   188   176   175    1
   189   101   100    1
   190   209   208    1
   191   108   105    1
   192   107   106    2
   193   172   175    1
   194   172   173    1
   195   102   100    1
   196    94    93    2
   197   206   207    2
   198   100    97    1
   199   105   106    1
   200   105   104    1
   201    90    89    2
   202   173   174    2
   203    93    95   am
   204    93    92    1
   205    91    92    1
   206    91    88    1
   207    96    97    1
   208    97    98    1
   209    89    88    1
   210    99    98    2
   211    88    87    1
