@<TRIPOS>MOLECULE
tmp/4c7bA01.pdb
 161 156 0 0 0
SMALL
GASTEIGER

@<TRIPOS>ATOM
      1  N        -31.1470  -15.5420    1.6340 N.3    25  ALA25      -0.1245
      2  CA       -31.2740  -16.5040    0.6200 C.3    25  ALA25       0.1562
      3  C        -30.0400  -17.3260    0.4350 C.2    25  ALA25       0.2260
      4  O        -30.1880  -18.4450   -0.0100 O.2    25  ALA25      -0.2867
      5  CB       -31.6640  -15.8370   -0.7230 C.3    25  ALA25       0.0290
      6  N        -30.2650  -20.7160    1.7200 N.3    28  SER28      -0.1217
      7  CA       -31.2750  -21.6470    1.2140 C.3    28  SER28       0.1889
      8  C        -30.9900  -22.2110   -0.1950 C.2    28  SER28       0.2288
      9  O        -31.4670  -23.2850   -0.5380 O.2    28  SER28      -0.2866
     10  CB       -32.6400  -21.0260    1.3500 C.3    28  SER28       0.2089
     11  OG       -32.9780  -21.1710    2.7310 O.3    28  SER28      -0.2183
     12  N        -33.1280  -24.3950   -3.3200 N.3    33  ILE33      -0.1231
     13  CA       -34.0940  -23.3030   -3.5650 C.3    33  ILE33       0.1678
     14  C        -33.3870  -22.1390   -4.3160 C.2    33  ILE33       0.2434
     15  O        -32.4880  -21.4870   -3.7330 O.2    33  ILE33      -0.2733
     16  CB       -34.7000  -22.7170   -2.2520 C.3    33  ILE33       0.0265
     17  CG1      -35.3710  -23.8160   -1.4300 C.3    33  ILE33       0.0019
     18  CG2      -35.6960  -21.6590   -2.6240 C.3    33  ILE33       0.0020
     19  CD1      -35.8180  -23.4160   -0.0420 C.3    33  ILE33       0.0001
     20  N        -33.8150  -21.8050   -5.5680 N.am   34  PRO34      -0.2718
     21  CA       -33.1560  -20.6660   -6.2990 C.3    34  PRO34       0.1535
     22  C        -33.2060  -19.2880   -5.5650 C.2    34  PRO34       0.2599
     23  O        -33.9260  -19.1700   -4.5870 O.2    34  PRO34      -0.2715
     24  CB       -33.9460  -20.5900   -7.6180 C.3    34  PRO34       0.0310
     25  CG       -34.8260  -21.7960   -7.6960 C.3    34  PRO34       0.0237
     26  CD       -35.0330  -22.2850   -6.2650 C.3    34  PRO34       0.0939
     27  N        -32.5020  -18.2510   -6.0610 N.am   35  ASP35      -0.1958
     28  CA       -32.5330  -16.8610   -5.4540 C.3    35  ASP35       0.1840
     29  C        -33.6040  -15.8500   -6.0690 C.2    35  ASP35       0.2622
     30  O        -34.8020  -16.1670   -6.1540 O.2    35  ASP35      -0.2715
     31  CB       -31.0820  -16.2680   -5.4090 C.3    35  ASP35       0.1450
     32  CG       -30.8910  -15.1570   -4.3380 C.2    35  ASP35       0.3671
     33  OD1      -31.8020  -14.3260   -4.1020 O.co2  35  ASP35      -0.2456
     34  OD2      -29.7990  -15.0900   -3.7390 O.co2  35  ASP35      -0.2456
     35  N        -33.1860  -14.6360   -6.4510 N.am   36  PHE36      -0.1960
     36  CA       -34.1150  -13.5200   -6.7160 C.3    36  PHE36       0.1771
     37  C        -33.3990  -12.4500   -7.5400 C.2    36  PHE36       0.2619
     38  O        -32.7110  -11.5830   -6.9990 O.2    36  PHE36      -0.2715
     39  CB       -34.6200  -12.9080   -5.3870 C.3    36  PHE36       0.0574
     40  CG       -35.9140  -12.0770   -5.4940 C.ar   36  PHE36      -0.0200
     41  CD1      -36.2080  -11.2860   -6.6210 C.ar   36  PHE36      -0.0042
     42  CD2      -36.8290  -12.0440   -4.4150 C.ar   36  PHE36      -0.0042
     43  CE1      -37.3820  -10.5280   -6.6760 C.ar   36  PHE36      -0.0003
     44  CE2      -38.0020  -11.2750   -4.4760 C.ar   36  PHE36      -0.0003
     45  CZ       -38.2770  -10.5260   -5.6060 C.ar   36  PHE36      -0.0000
     46  N        -33.5230  -12.5770   -8.8620 N.am   37  ARG37      -0.1977
     47  CA       -33.4230  -11.4560   -9.8130 C.3    37  ARG37       0.1597
     48  C        -32.3880  -10.3730   -9.4310 C.2    37  ARG37       0.2287
     49  O        -31.2820  -10.3120   -9.9820 O.2    37  ARG37      -0.2864
     50  CB       -34.8260  -10.8140   -9.9830 C.3    37  ARG37       0.0334
     51  CG       -36.0400  -11.7600   -9.8960 C.3    37  ARG37       0.0492
     52  CD       -36.0670  -12.8030  -11.0130 C.3    37  ARG37       0.2205
     53  NE       -37.4080  -13.3350  -11.2620 N.pl3  37  ARG37      -0.0865
     54  CZ       -37.6730  -14.4090  -12.0080 C.cat  37  ARG37       0.5346
     55  NH1      -36.6950  -15.1070  -12.5830 N.pl3  37  ARG37       0.1354
     56  NH2      -38.9270  -14.8040  -12.1790 N.pl3  37  ARG37       0.1354
     57  N        -43.8320  -17.4630  -13.7370 N.3    39  TYR39      -0.1241
     58  CA       -45.0680  -17.4450  -12.9660 C.3    39  TYR39       0.1605
     59  C        -46.2940  -16.6200  -13.4950 C.2    39  TYR39       0.2264
     60  O        -47.3020  -16.6060  -12.8170 O.2    39  TYR39      -0.2867
     61  CB       -44.7510  -16.9640  -11.5220 C.3    39  TYR39       0.0534
     62  CG       -44.1590  -17.9880  -10.5920 C.ar   39  TYR39      -0.0201
     63  CD1      -42.8740  -18.4840  -10.7810 C.ar   39  TYR39      -0.0009
     64  CD2      -44.8860  -18.4480   -9.5290 C.ar   39  TYR39      -0.0009
     65  CE1      -42.3430  -19.4270   -9.9170 C.ar   39  TYR39       0.0417
     66  CE2      -44.3620  -19.3710   -8.6390 C.ar   39  TYR39       0.0417
     67  CZ       -43.0900  -19.8580   -8.8200 C.ar   39  TYR39       0.1957
     68  OH       -42.6110  -20.7720   -7.9130 O.3    39  TYR39      -0.2866
     69  N        -46.4600  -13.2140  -14.2290 N.3    41  LEU41      -0.1245
     70  CA       -46.2920  -12.0690  -13.3820 C.3    41  LEU41       0.1561
     71  C        -45.8780  -10.9630  -14.3130 C.2    41  LEU41       0.2260
     72  O        -45.0320  -11.1740  -15.1470 O.2    41  LEU41      -0.2867
     73  CB       -45.1430  -12.2990  -12.4470 C.3    41  LEU41       0.0270
     74  CG       -45.3900  -13.2690  -11.3120 C.3    41  LEU41       0.0019
     75  CD1      -44.0530  -13.4140  -10.6300 C.3    41  LEU41       0.0001
     76  CD2      -46.4810  -12.7900  -10.3830 C.3    41  LEU41       0.0001
     77  N        -41.3380   -9.2510  -11.1810 N.3    44  PRO44      -0.2116
     78  CA       -41.0850  -10.2100  -10.1300 C.3    44  PRO44       0.1372
     79  C        -41.6980   -9.8660   -8.8230 C.2    44  PRO44       0.2244
     80  O        -42.2480  -10.7250   -8.1620 O.2    44  PRO44      -0.2868
     81  CB       -39.5570  -10.2050  -10.0210 C.3    44  PRO44       0.0268
     82  CG       -39.1290  -10.0210  -11.4650 C.3    44  PRO44       0.0207
     83  CD       -40.0900   -8.9250  -11.9230 C.3    44  PRO44       0.0892
     84  N        -45.3970  -10.7840   -7.1050 N.3    47  ILE47      -0.1231
     85  CA       -45.8650  -11.9420   -6.3480 C.3    47  ILE47       0.1692
     86  C        -46.0810  -11.6810   -4.8760 C.2    47  ILE47       0.2592
     87  O        -46.8050  -12.4640   -4.2190 O.2    47  ILE47      -0.2718
     88  CB       -44.9940  -13.1790   -6.5990 C.3    47  ILE47       0.0266
     89  CG1      -45.7520  -14.4630   -6.2720 C.3    47  ILE47       0.0019
     90  CG2      -43.6160  -13.0970   -5.8680 C.3    47  ILE47       0.0020
     91  CD1      -45.0180  -15.6890   -6.7310 C.3    47  ILE47       0.0001
     92  N        -45.4750  -10.6020   -4.3690 N.am   48  PHE48      -0.1976
     93  CA       -45.6560  -10.1790   -2.9730 C.3    48  PHE48       0.1639
     94  C        -46.2430   -8.7740   -2.8860 C.2    48  PHE48       0.2290
     95  O        -45.9650   -8.0500   -1.8980 O.2    48  PHE48      -0.2864
     96  CB       -44.3610  -10.1910   -2.1740 C.3    48  PHE48       0.0560
     97  CG       -43.6470  -11.4760   -2.2200 C.ar   48  PHE48      -0.0200
     98  CD1      -44.3040  -12.6370   -1.9220 C.ar   48  PHE48      -0.0042
     99  CD2      -42.3240  -11.5150   -2.5940 C.ar   48  PHE48      -0.0042
    100  CE1      -43.6800  -13.8500   -1.9540 C.ar   48  PHE48      -0.0003
    101  CE2      -41.6570  -12.7340   -2.6580 C.ar   48  PHE48      -0.0003
    102  CZ       -42.3560  -13.9220   -2.3410 C.ar   48  PHE48      -0.0000
    103  N        -46.2620  -20.5170   -5.7690 N.3    63  LEU63      -0.1245
    104  CA       -45.0220  -20.4820   -4.9980 C.3    63  LEU63       0.1561
    105  C        -45.2380  -21.2410   -3.6580 C.2    63  LEU63       0.2260
    106  O        -44.3640  -22.0190   -3.1740 O.2    63  LEU63      -0.2867
    107  CB       -44.5930  -19.0580   -4.6820 C.3    63  LEU63       0.0270
    108  CG       -43.3300  -18.9160   -3.8390 C.3    63  LEU63       0.0019
    109  CD1      -42.1520  -19.4860   -4.6620 C.3    63  LEU63       0.0001
    110  CD2      -43.1130  -17.4310   -3.5360 C.3    63  LEU63       0.0001
    111  N        -43.1810  -24.3110   -1.8840 N.3    67  LEU67      -0.1245
    112  CA       -42.4170  -24.1050   -0.6630 C.3    67  LEU67       0.1561
    113  C        -43.0160  -24.7990    0.5730 C.2    67  LEU67       0.2260
    114  O        -42.4040  -24.8490    1.6610 O.2    67  LEU67      -0.2867
    115  CB       -42.2360  -22.6250   -0.3890 C.3    67  LEU67       0.0270
    116  CG       -41.2020  -21.9100   -1.2510 C.3    67  LEU67       0.0019
    117  CD1      -41.1160  -20.4240   -0.9360 C.3    67  LEU67       0.0001
    118  CD2      -39.8140  -22.5280   -1.1970 C.3    67  LEU67       0.0001
    119  N        -34.6920  -13.6000    6.7650 N.3    96  GLN96      -0.1231
    120  CA       -35.4820  -13.0720    5.6800 C.3    96  GLN96       0.1698
    121  C        -36.0990  -14.1460    4.7310 C.2    96  GLN96       0.2592
    122  O        -36.8780  -13.7980    3.8620 O.2    96  GLN96      -0.2718
    123  CB       -34.5980  -12.1760    4.8330 C.3    96  GLN96       0.0381
    124  CG       -34.0080  -11.0270    5.6050 C.3    96  GLN96       0.0905
    125  CD       -32.9270  -10.3070    4.7720 C.2    96  GLN96       0.2608
    126  OE1      -33.1430   -9.1770    4.3530 O.2    96  GLN96      -0.2717
    127  NE2      -31.7740  -10.9930    4.4920 N.am   96  GLN96      -0.0878
    128  N        -35.7930  -15.4260    4.9110 N.am   97  ASN97      -0.1960
    129  CA       -36.2840  -16.4630    3.9890 C.3    97  ASN97       0.1819
    130  C        -37.6860  -16.8310    4.4260 C.2    97  ASN97       0.2621
    131  O        -38.0990  -16.5960    5.5940 O.2    97  ASN97      -0.2715
    132  CB       -35.4170  -17.7050    4.0660 C.3    97  ASN97       0.1195
    133  CG       -33.9840  -17.4310    3.7570 C.2    97  ASN97       0.2630
    134  OD1      -33.0880  -18.1790    4.1240 O.2    97  ASN97      -0.2716
    135  ND2      -33.7600  -16.4320    3.0790 N.am   97  ASN97      -0.0877
    136  N        -38.4000  -17.4610    3.5230 N.am   98  ILE98      -0.1963
    137  CA       -39.7450  -17.8890    3.7600 C.3    98  ILE98       0.1727
    138  C        -39.9240  -19.3930    3.5300 C.2    98  ILE98       0.2616
    139  O        -41.0560  -19.8980    3.4230 O.2    98  ILE98      -0.2715
    140  CB       -40.7590  -17.0410    2.9340 C.3    98  ILE98       0.0290
    141  CG1      -40.5660  -17.1720    1.4460 C.3    98  ILE98       0.0022
    142  CG2      -40.6180  -15.5700    3.3110 C.3    98  ILE98       0.0023
    143  CD1      -41.6970  -16.6230    0.5650 C.3    98  ILE98       0.0001
    144  N        -38.8180  -20.0900    3.4130 N.am   99  ASP99      -0.1971
    145  CA       -38.8400  -21.5420    3.1240 C.3    99  ASP99       0.1709
    146  C        -39.1160  -22.3320    4.3970 C.2    99  ASP99       0.2293
    147  O        -39.4370  -23.4990    4.3710 O.2    99  ASP99      -0.2864
    148  CB       -37.5430  -21.9650    2.4500 C.3    99  ASP99       0.1436
    149  CG       -36.3340  -21.5120    3.1920 C.2    99  ASP99       0.3671
    150  OD1      -36.2950  -21.7200    4.4390 O.co2  99  ASP99      -0.2456
    151  OD2      -35.4890  -20.8270    2.5520 O.co2  99  ASP99      -0.2456
    152  N        -39.8840  -12.0630    7.3020 N.3   116  HIS116     -0.1241
    153  CA       -40.7620  -11.9150    6.1320 C.3   116  HIS116      0.1621
    154  C        -41.9480  -12.8580    6.2360 C.2   116  HIS116      0.2264
    155  O        -42.6490  -13.1030    5.2670 O.2   116  HIS116     -0.2867
    156  CB       -39.9750  -12.1280    4.8540 C.3   116  HIS116      0.0745
    157  CG       -39.1200  -10.9710    4.5010 C.ar  116  HIS116      0.0817
    158  ND1      -38.0420  -11.0710    3.6600 N.ar  116  HIS116     -0.2268
    159  CD2      -39.1790   -9.6720    4.8620 C.ar  116  HIS116      0.1154
    160  CE1      -37.4720   -9.8820    3.5100 C.ar  116  HIS116      0.1986
    161  NE2      -38.1430   -9.0140    4.2310 N.ar  116  HIS116     -0.2212
@<TRIPOS>BOND
     1    72    71    2
     2    71    70    1
     3    69    70    1
     4    57    58    1
     5    59    58    1
     6    59    60    2
     7    70    73    1
     8    58    61    1
     9    55    54    1
    10    73    74    1
    11    56    54    1
    12    54    53    2
    13    83    82    1
    14    83    77    1
    15    61    62    1
    16    82    81    1
    17    74    75    1
    18    74    76    1
    19    53    52    1
    20    77    78    1
    21    52    51    1
    22    63    62   ar
    23    63    65   ar
    24    62    64   ar
    25    78    81    1
    26    78    79    1
    27    50    51    1
    28    50    47    1
    29    49    48    2
    30    65    67   ar
    31    47    48    1
    32    47    46    1
    33    64    66   ar
    34    46    37   am
    35    79    80    2
    36    67    66   ar
    37    67    68    1
    38    25    24    1
    39    25    26    1
    40    24    21    1
    41    37    38    2
    42    37    36    1
    43    84    85    1
    44    91    89    1
    45    36    35    1
    46    36    39    1
    47    43    41   ar
    48    43    45   ar
    49    41    40   ar
    50    88    85    1
    51    88    89    1
    52    88    90    1
    53    35    29   am
    54    85    86    1
    55    21    20    1
    56    21    22    1
    57    26    20    1
    58    30    29    2
    59    29    28    1
    60    27    22   am
    61    27    28    1
    62   103   104    1
    63    45    44   ar
    64    20    14   am
    65    22    23    2
    66    40    39    1
    67    40    42   ar
    68    28    31    1
    69    31    32    1
    70   104   107    1
    71   104   105    1
    72    86    92   am
    73    86    87    2
    74   107   108    1
    75   109   108    1
    76    44    42   ar
    77    92    93    1
    78    32    33   ar
    79    32    34   ar
    80    14    15    2
    81    14    13    1
    82   108   110    1
    83   105   106    2
    84    13    12    1
    85    13    16    1
    86    93    94    1
    87    93    96    1
    88    94    95    2
    89   101    99   ar
    90   101   102   ar
    91    18    16    1
    92    99    97   ar
    93   102   100   ar
    94    16    17    1
    95    97    96    1
    96    97    98   ar
    97   100    98   ar
    98   111   112    1
    99    17    19    1
   100   116   118    1
   101   116   117    1
   102   116   115    1
   103     5     2    1
   104   112   115    1
   105   112   113    1
   106     9     8    2
   107     8     7    1
   108     4     3    2
   109     3     2    1
   110   143   141    1
   111   113   114    2
   112     2     1    1
   113     7    10    1
   114     7     6    1
   115    10    11    1
   116   141   140    1
   117   148   145    1
   118   148   149    1
   119   151   149   ar
   120   140   142    1
   121   140   137    1
   122   135   133   am
   123   145   144    1
   124   145   146    1
   125   149   150   ar
   126   144   138   am
   127   139   138    2
   128   160   158   ar
   129   160   161   ar
   130   136   137    1
   131   136   130   am
   132   138   137    1
   133   158   157   ar
   134   133   132    1
   135   133   134    2
   136   122   121    2
   137   129   132    1
   138   129   130    1
   139   129   128    1
   140   161   159   ar
   141   126   125    2
   142   147   146    2
   143   130   131    2
   144   127   125   am
   145   157   156    1
   146   157   159   ar
   147   121   128   am
   148   121   120    1
   149   125   124    1
   150   123   124    1
   151   123   120    1
   152   156   153    1
   153   155   154    2
   154   120   119    1
   155   153   154    1
   156   153   152    1
