@<TRIPOS>MOLECULE
tmp/4c7fA00.pdb
 153 149 0 0 0
SMALL
GASTEIGER

@<TRIPOS>ATOM
      1  N        -11.9210  -36.9710   41.4750 N.3   150  ARG150     -0.1245
      2  CA       -13.3610  -36.9640   41.7520 C.3   150  ARG150      0.1563
      3  C        -13.9210  -38.3390   42.1160 C.2   150  ARG150      0.2260
      4  O        -14.5750  -38.5000   43.1570 O.2   150  ARG150     -0.2867
      5  CB       -14.1430  -36.3040   40.5760 C.3   150  ARG150      0.0307
      6  CG       -14.1740  -34.7840   40.7410 C.3   150  ARG150      0.0489
      7  CD       -12.8480  -34.1180   41.0250 C.3   150  ARG150      0.2205
      8  NE       -13.0710  -32.6590   41.0380 N.pl3 150  ARG150     -0.0865
      9  CZ       -13.1640  -31.9220   39.9140 C.cat 150  ARG150      0.5346
     10  NH1      -12.9700  -32.4970   38.6870 N.pl3 150  ARG150      0.1354
     11  NH2      -13.4020  -30.6190   40.0170 N.pl3 150  ARG150      0.1354
     12  N         -7.5330  -33.0210   43.7570 N.3   179  ASP179     -0.1239
     13  CA        -8.5650  -32.0110   43.6540 C.3   179  ASP179      0.1674
     14  C         -9.2480  -31.7700   45.0400 C.2   179  ASP179      0.2266
     15  O         -8.6930  -32.1000   46.1150 O.2   179  ASP179     -0.2867
     16  CB        -9.6000  -32.4220   42.5460 C.3   179  ASP179      0.1410
     17  CG       -10.2520  -31.2260   41.8950 C.2   179  ASP179      0.3668
     18  OD1      -11.1210  -30.5350   42.5420 O.co2 179  ASP179     -0.2456
     19  OD2       -9.8790  -30.9420   40.6890 O.co2 179  ASP179     -0.2456
     20  N         -8.7780  -25.7940   43.8220 N.3   238  HIS238     -0.1241
     21  CA        -9.0610  -27.2460   43.7740 C.3   238  HIS238      0.1621
     22  C         -8.1160  -28.0090   44.7610 C.2   238  HIS238      0.2264
     23  O         -7.5960  -29.0880   44.4770 O.2   238  HIS238     -0.2867
     24  CB        -8.9010  -27.7450   42.3220 C.3   238  HIS238      0.0745
     25  CG       -10.0870  -27.3890   41.4720 C.ar  238  HIS238      0.0817
     26  ND1      -11.2650  -28.1000   41.5170 N.ar  238  HIS238     -0.2268
     27  CD2      -10.2870  -26.3780   40.5930 C.ar  238  HIS238      0.1154
     28  CE1      -12.1500  -27.5550   40.6990 C.ar  238  HIS238      0.1986
     29  NE2      -11.5810  -26.5010   40.1270 N.ar  238  HIS238     -0.2212
     30  N        -19.7560  -31.8670   44.4680 N.3   262  THR262     -0.1218
     31  CA       -19.1750  -31.5560   43.1620 C.3   262  THR262      0.1862
     32  C        -19.0300  -30.0470   42.8440 C.2   262  THR262      0.2287
     33  O        -18.7360  -29.6980   41.6840 O.2   262  THR262     -0.2866
     34  CB       -20.0170  -32.1780   42.0320 C.3   262  THR262      0.1770
     35  OG1      -21.3270  -31.6230   42.1080 O.3   262  THR262     -0.2211
     36  CG2      -20.1530  -33.6860   42.2180 C.3   262  THR262      0.0375
     37  N        -17.1610  -26.2450   42.8520 N.3   264  VAL264     -0.1245
     38  CA       -15.7830  -25.8510   42.4700 C.3   264  VAL264      0.1561
     39  C        -15.6000  -24.4140   42.9180 C.2   264  VAL264      0.2260
     40  O        -16.6170  -23.7360   43.1860 O.2   264  VAL264     -0.2867
     41  CB       -15.6160  -25.9770   40.9300 C.3   264  VAL264      0.0252
     42  CG1      -15.8890  -27.4110   40.4760 C.3   264  VAL264      0.0019
     43  CG2      -16.4590  -24.9330   40.1220 C.3   264  VAL264      0.0019
     44  N         -6.7600  -23.7050   37.4330 N.3   301  ASP301     -0.1225
     45  CA        -8.1540  -23.4350   37.1080 C.3   301  ASP301      0.1805
     46  C         -9.0040  -23.1080   38.3250 C.2   301  ASP301      0.2597
     47  O         -8.7810  -23.6850   39.3960 O.2   301  ASP301     -0.2718
     48  CB        -8.8150  -24.6670   36.4290 C.3   301  ASP301      0.1424
     49  CG        -8.8320  -25.9010   37.3420 C.2   301  ASP301      0.3668
     50  OD1       -7.7480  -26.2480   37.8850 O.co2 301  ASP301     -0.2456
     51  OD2       -9.9230  -26.5080   37.5160 O.co2 301  ASP301     -0.2456
     52  N         -9.9970  -22.2260   38.1250 N.am  302  GLU302     -0.1979
     53  CA       -11.0770  -21.9970   39.0980 C.3   302  GLU302      0.1602
     54  C        -10.5620  -21.6060   40.5040 C.2   302  GLU302      0.2287
     55  O        -11.1460  -22.0160   41.5160 O.2   302  GLU302     -0.2864
     56  CB       -11.9780  -23.2260   39.1340 C.3   302  GLU302      0.0415
     57  CG       -12.7470  -23.3950   37.8250 C.3   302  GLU302      0.1163
     58  CD       -13.7450  -24.5380   37.8930 C.2   302  GLU302      0.3649
     59  OE1      -13.5250  -25.5810   38.6260 O.co2 302  GLU302     -0.2457
     60  OE2      -14.7820  -24.4450   37.2040 O.co2 302  GLU302     -0.2457
     61  N         -3.3280  -24.9280   33.4630 N.3   332  TRP332     -0.1241
     62  CA        -4.5660  -24.5470   32.7170 C.3   332  TRP332      0.1605
     63  C         -4.4360  -23.0800   32.2530 C.2   332  TRP332      0.2264
     64  O         -3.5620  -22.3840   32.7560 O.2   332  TRP332     -0.2867
     65  CB        -5.7790  -24.7460   33.5540 C.3   332  TRP332      0.0550
     66  CG        -5.9740  -26.1800   33.9750 C.ar  332  TRP332      0.0003
     67  CD1       -5.7670  -26.7170   35.2540 C.ar  332  TRP332      0.0946
     68  CD2       -6.4250  -27.2560   33.1470 C.ar  332  TRP332      0.0152
     69  NE1       -6.1280  -28.0510   35.2410 N.ar  332  TRP332     -0.2442
     70  CE2       -6.4810  -28.4170   33.9550 C.ar  332  TRP332      0.0810
     71  CE3       -6.8600  -27.3390   31.8110 C.ar  332  TRP332      0.0012
     72  CZ2       -6.9030  -29.6480   33.4640 C.ar  332  TRP332      0.0191
     73  CZ3       -7.2500  -28.6160   31.3050 C.ar  332  TRP332      0.0001
     74  CH2       -7.3070  -29.7270   32.1600 C.ar  332  TRP332      0.0015
     75  N         -8.9100  -24.5340   28.0400 N.3   349  TRP349     -0.1241
     76  CA       -10.0830  -25.3760   28.2250 C.3   349  TRP349      0.1605
     77  C        -11.3680  -24.5870   28.0230 C.2   349  TRP349      0.2264
     78  O        -12.4250  -25.0120   28.4770 O.2   349  TRP349     -0.2867
     79  CB       -10.0960  -26.0450   29.6300 C.3   349  TRP349      0.0550
     80  CG       -10.0630  -25.0960   30.7980 C.ar  349  TRP349      0.0003
     81  CD1       -8.9390  -24.4720   31.3020 C.ar  349  TRP349      0.0946
     82  CD2      -11.1370  -24.7060   31.6430 C.ar  349  TRP349      0.0152
     83  NE1       -9.2630  -23.6660   32.4100 N.ar  349  TRP349     -0.2442
     84  CE2      -10.6060  -23.7940   32.6340 C.ar  349  TRP349      0.0810
     85  CE3      -12.5130  -25.0280   31.6920 C.ar  349  TRP349      0.0012
     86  CZ2      -11.4250  -23.2130   33.6720 C.ar  349  TRP349      0.0191
     87  CZ3      -13.3340  -24.3970   32.6750 C.ar  349  TRP349      0.0001
     88  CH2      -12.7860  -23.5470   33.6780 C.ar  349  TRP349      0.0015
     89  N        -13.9070  -32.2510   25.8730 N.3   381  TYR381     -0.1241
     90  CA       -14.2170  -32.7780   27.2060 C.3   381  TYR381      0.1605
     91  C        -15.0680  -34.0100   27.0630 C.2   381  TYR381      0.2264
     92  O        -16.2600  -33.8870   26.7620 O.2   381  TYR381     -0.2867
     93  CB       -14.9790  -31.7200   28.0940 C.3   381  TYR381      0.0534
     94  CG       -13.9980  -30.8470   28.8720 C.ar  381  TYR381     -0.0201
     95  CD1      -12.7560  -30.5150   28.3160 C.ar  381  TYR381     -0.0009
     96  CD2      -14.3220  -30.3610   30.1450 C.ar  381  TYR381     -0.0009
     97  CE1      -11.8340  -29.7310   29.0460 C.ar  381  TYR381      0.0417
     98  CE2      -13.4130  -29.6330   30.8830 C.ar  381  TYR381      0.0417
     99  CZ       -12.1530  -29.3370   30.3480 C.ar  381  TYR381      0.1957
    100  OH       -11.2690  -28.5510   31.0580 O.3   381  TYR381     -0.2866
    101  N        -16.3100  -35.9190   29.3880 N.3   383  ASP383     -0.1239
    102  CA       -17.4210  -36.0430   30.3220 C.3   383  ASP383      0.1674
    103  C        -18.6350  -35.2050   29.9000 C.2   383  ASP383      0.2266
    104  O        -19.6630  -35.2680   30.5770 O.2   383  ASP383     -0.2867
    105  CB       -17.0270  -35.5590   31.7020 C.3   383  ASP383      0.1410
    106  CG       -16.4590  -34.0950   31.6860 C.2   383  ASP383      0.3668
    107  OD1      -15.5630  -33.7810   30.8710 O.co2 383  ASP383     -0.2456
    108  OD2      -16.8700  -33.2850   32.5020 O.co2 383  ASP383     -0.2456
    109  N        -21.7600  -34.1150   32.2350 N.3   394  LEU394     -0.1245
    110  CA       -22.2060  -32.7680   32.6560 C.3   394  LEU394      0.1561
    111  C        -22.6130  -32.0260   31.3830 C.2   394  LEU394      0.2260
    112  O        -22.3700  -32.5270   30.2470 O.2   394  LEU394     -0.2867
    113  CB       -21.0580  -31.9660   33.3670 C.3   394  LEU394      0.0270
    114  CG       -20.5320  -32.6260   34.6580 C.3   394  LEU394      0.0019
    115  CD1      -19.3650  -31.8160   35.3010 C.3   394  LEU394      0.0001
    116  CD2      -21.7040  -32.6850   35.5940 C.3   394  LEU394      0.0001
    117  N        -22.3690  -28.2980   31.3920 N.3   396  TRP396     -0.1241
    118  CA       -22.1360  -26.8850   31.6330 C.3   396  TRP396      0.1605
    119  C        -21.5590  -26.2550   30.3600 C.2   396  TRP396      0.2264
    120  O        -21.6480  -25.0290   30.1940 O.2   396  TRP396     -0.2867
    121  CB       -21.1800  -26.6980   32.8050 C.3   396  TRP396      0.0550
    122  CG       -19.8340  -27.3610   32.6330 C.ar  396  TRP396      0.0003
    123  CD1      -19.4620  -28.6170   33.0700 C.ar  396  TRP396      0.0946
    124  CD2      -18.6390  -26.7770   32.0790 C.ar  396  TRP396      0.0152
    125  NE1      -18.1310  -28.8420   32.7920 N.ar  396  TRP396     -0.2442
    126  CE2      -17.5970  -27.7350   32.2050 C.ar  396  TRP396      0.0810
    127  CE3      -18.3410  -25.5310   31.5250 C.ar  396  TRP396      0.0012
    128  CZ2      -16.2890  -27.5120   31.7600 C.ar  396  TRP396      0.0191
    129  CZ3      -17.0070  -25.2950   31.0920 C.ar  396  TRP396      0.0001
    130  CH2      -16.0070  -26.3050   31.2160 C.ar  396  TRP396      0.0015
    131  N        -13.2820  -35.8940   32.8530 N.3   430  TRP430     -0.1241
    132  CA       -13.5460  -35.6000   34.2770 C.3   430  TRP430      0.1605
    133  C        -14.5050  -36.5970   34.9110 C.2   430  TRP430      0.2264
    134  O        -15.3600  -37.1580   34.1970 O.2   430  TRP430     -0.2867
    135  CB       -14.0910  -34.2020   34.4420 C.3   430  TRP430      0.0550
    136  CG       -13.1450  -33.2180   33.8670 C.ar  430  TRP430      0.0003
    137  CD1      -13.1680  -32.6870   32.5940 C.ar  430  TRP430      0.0946
    138  CD2      -12.0300  -32.6500   34.5410 C.ar  430  TRP430      0.0152
    139  NE1      -12.1120  -31.7840   32.4500 N.ar  430  TRP430     -0.2442
    140  CE2      -11.3880  -31.7710   33.6250 C.ar  430  TRP430      0.0810
    141  CE3      -11.5010  -32.8040   35.8530 C.ar  430  TRP430      0.0012
    142  CZ2      -10.2860  -30.9920   33.9800 C.ar  430  TRP430      0.0191
    143  CZ3      -10.3830  -32.0480   36.2130 C.ar  430  TRP430      0.0001
    144  CH2       -9.7880  -31.1330   35.2750 C.ar  430  TRP430      0.0015
    145  N        -16.6220  -36.3670   37.9680 N.3   432  GLU432     -0.1245
    146  CA       -17.7290  -36.0280   38.9260 C.3   432  GLU432      0.1567
    147  C        -18.8770  -37.1020   38.8640 C.2   432  GLU432      0.2260
    148  O        -19.4260  -37.5040   39.8830 O.2   432  GLU432     -0.2867
    149  CB       -18.3600  -34.6570   38.6190 C.3   432  GLU432      0.0388
    150  CG       -17.6460  -33.4130   39.1240 C.3   432  GLU432      0.1160
    151  CD       -16.5510  -32.9170   38.1750 C.2   432  GLU432      0.3649
    152  OE1      -16.1620  -33.6590   37.1940 O.co2 432  GLU432     -0.2457
    153  OE2      -16.0490  -31.7780   38.4340 O.co2 432  GLU432     -0.2457
@<TRIPOS>BOND
     1    89    90    1
     2    92    91    2
     3    91    90    1
     4    90    93    1
     5    77    76    1
     6    77    78    2
     7    75    76    1
     8    93    94    1
     9    76    79    1
    10    95    94   ar
    11    95    97   ar
    12    94    96   ar
    13    97    99   ar
    14   101   102    1
    15    79    80    1
    16   103   102    1
    17   103   104    2
    18    96    98   ar
    19   120   119    2
    20   112   111    2
    21   102   105    1
    22    99    98   ar
    23    99   100    1
    24   119   118    1
    25    80    81   ar
    26    80    82   ar
    27   107   106   ar
    28   129   130   ar
    29   129   127   ar
    30   130   128   ar
    31    81    83   ar
    32    73    71   ar
    33    73    74   ar
    34   111   110    1
    35   117   118    1
    36   127   124   ar
    37   118   121    1
    38    82    85   ar
    39    82    84   ar
    40   106   105    1
    41   106   108   ar
    42    85    87   ar
    43   128   126   ar
    44    71    68   ar
    45   124   126   ar
    46   124   122   ar
    47    74    72   ar
    48   126   125   ar
    49   109   110    1
    50    63    62    1
    51    63    64    2
    52    83    84   ar
    53   139   137   ar
    54   139   140   ar
    55   137   136   ar
    56   122   121    1
    57   122   123   ar
    58    84    86   ar
    59   110   113    1
    60    87    88   ar
    61    62    61    1
    62    62    65    1
    63   125   123   ar
    64   131   132    1
    65    68    70   ar
    66    68    66   ar
    67   113   114    1
    68    72    70   ar
    69    65    66    1
    70   140   142   ar
    71   140   138   ar
    72    86    88   ar
    73   136   135    1
    74   136   138   ar
    75    70    69   ar
    76    66    67   ar
    77   142   144   ar
    78   134   133    2
    79   132   135    1
    80   132   133    1
    81   138   141   ar
    82   114   115    1
    83   114   116    1
    84    69    67   ar
    85   144   143   ar
    86   141   143   ar
    87    48    45    1
    88    48    49    1
    89    45    44    1
    90    45    46    1
    91   152   151   ar
    92    60    58   ar
    93    49    51   ar
    94    49    50   ar
    95    57    58    1
    96    57    56    1
    97    58    59   ar
    98   145   146    1
    99    52    46   am
   100    52    53    1
   101   151   153   ar
   102   151   150    1
   103    46    47    2
   104   149   146    1
   105   149   150    1
   106    10     9    1
   107   147   146    1
   108   147   148    2
   109    53    56    1
   110    53    54    1
   111     9    11    1
   112     9     8    2
   113    43    41    1
   114    29    27   ar
   115    29    28   ar
   116    42    41    1
   117    54    55    2
   118     5     6    1
   119     5     2    1
   120    27    25   ar
   121    19    17   ar
   122    28    26   ar
   123     6     7    1
   124    41    38    1
   125     7     8    1
   126    25    26   ar
   127    25    24    1
   128     1     2    1
   129    33    32    2
   130     2     3    1
   131    17    18   ar
   132    17    16    1
   133    34    35    1
   134    34    36    1
   135    34    31    1
   136     3     4    2
   137    24    21    1
   138    38    37    1
   139    38    39    1
   140    16    13    1
   141    32    31    1
   142    39    40    2
   143    31    30    1
   144    13    12    1
   145    13    14    1
   146    21    20    1
   147    21    22    1
   148    23    22    2
   149    14    15    2
