@<TRIPOS>MOLECULE
tmp/4c7gA00.pdb
 154 151 0 0 0
SMALL
GASTEIGER

@<TRIPOS>ATOM
      1  N        -11.0220   11.6900   12.4150 N.3   150  ARG150     -0.1245
      2  CA       -11.7340   12.8090   13.0320 C.3   150  ARG150      0.1563
      3  C        -10.9510   13.4060   14.2110 C.2   150  ARG150      0.2260
      4  O        -10.7990   14.6200   14.3260 O.2   150  ARG150     -0.2867
      5  CB       -13.1430   12.3510   13.4380 C.3   150  ARG150      0.0307
      6  CG       -14.1400   12.5310   12.2750 C.3   150  ARG150      0.0489
      7  CD       -13.7130   11.8100   10.9800 C.3   150  ARG150      0.2205
      8  NE       -14.7650   11.9710    9.9570 N.pl3 150  ARG150     -0.0865
      9  CZ       -15.8260   11.1710    9.8250 C.cat 150  ARG150      0.5346
     10  NH1      -15.9240   10.0720   10.6430 N.pl3 150  ARG150      0.1354
     11  NH2      -16.7890   11.4290    8.8500 N.pl3 150  ARG150      0.1354
     12  N         -9.9580   10.7950    6.1540 N.3   179  ASP179     -0.1239
     13  CA       -11.3240   11.3950    6.0510 C.3   179  ASP179      0.1674
     14  C        -11.2140   12.8500    5.6410 C.2   179  ASP179      0.2266
     15  O        -10.1640   13.3290    5.1350 O.2   179  ASP179     -0.2867
     16  CB       -12.1440   11.1930    7.3640 C.3   179  ASP179      0.1410
     17  CG       -13.6420   11.0170    7.0550 C.2   179  ASP179      0.3668
     18  OD1      -14.2010   12.0730    6.6860 O.co2 179  ASP179     -0.2456
     19  OD2      -14.1850    9.8560    7.0930 O.co2 179  ASP179     -0.2456
     20  N        -15.4560   11.6920    1.3910 N.3   238  HIS238     -0.1241
     21  CA       -14.6440   11.7310    2.6320 C.3   238  HIS238      0.1621
     22  C        -13.1530   11.9080    2.3380 C.2   238  HIS238      0.2264
     23  O        -12.2840   11.3190    3.0370 O.2   238  HIS238     -0.2867
     24  CB       -14.9470   10.4670    3.5010 C.3   238  HIS238      0.0745
     25  CG       -16.2680   10.5930    4.2000 C.ar  238  HIS238      0.0817
     26  ND1      -16.4240   11.3550    5.3330 N.ar  238  HIS238     -0.2268
     27  CD2      -17.5110   10.1450    3.8640 C.ar  238  HIS238      0.1154
     28  CE1      -17.6990   11.3330    5.7040 C.ar  238  HIS238      0.1986
     29  NE2      -18.3840   10.6090    4.8350 N.ar  238  HIS238     -0.2212
     30  N        -20.7740   15.9780    6.6350 N.3   264  VAL264     -0.1245
     31  CA       -20.3710   14.9420    5.6850 C.3   264  VAL264      0.1561
     32  C        -20.9370   15.1730    4.2720 C.2   264  VAL264      0.2260
     33  O        -21.9520   15.8760    4.1210 O.2   264  VAL264     -0.2867
     34  CB       -20.8390   13.5300    6.1300 C.3   264  VAL264      0.0252
     35  CG1      -20.3080   13.2100    7.5550 C.3   264  VAL264      0.0019
     36  CG2      -22.3720   13.4730    6.1840 C.3   264  VAL264      0.0019
     37  N        -18.6790    5.3390    1.3050 N.3   301  ASP301     -0.1225
     38  CA       -19.8190    5.9400    2.0200 C.3   301  ASP301      0.1805
     39  C        -19.9750    7.4500    1.7560 C.2   301  ASP301      0.2597
     40  O        -18.9840    8.1530    1.5590 O.2   301  ASP301     -0.2718
     41  CB       -19.6520    5.6800    3.5230 C.3   301  ASP301      0.1424
     42  CG       -18.4360    6.4140    4.1070 C.2   301  ASP301      0.3668
     43  OD1      -17.3510    6.2120    3.5460 O.co2 301  ASP301     -0.2456
     44  OD2      -18.5810    7.2380    5.0730 O.co2 301  ASP301     -0.2456
     45  N        -21.2350    7.9280    1.6900 N.am  302  GLN302     -0.1979
     46  CA       -21.5420    9.3650    1.6950 C.3   302  GLN302      0.1601
     47  C        -20.7880   10.1530    0.5960 C.2   302  GLN302      0.2287
     48  O        -20.3170   11.2710    0.8190 O.2   302  GLN302     -0.2864
     49  CB       -21.2550    9.9470    3.0920 C.3   302  GLN302      0.0394
     50  CG       -22.2880    9.4460    4.1050 C.3   302  GLN302      0.0908
     51  CD       -21.9700    9.8380    5.5370 C.2   302  GLN302      0.2608
     52  OE1      -20.8060   10.2030    5.9090 O.2   302  GLN302     -0.2717
     53  NE2      -23.0100    9.8770    6.3380 N.am  302  GLN302     -0.0878
     54  N        -17.9900    0.1170    2.0870 N.3   332  TRP332     -0.1241
     55  CA       -19.3030    0.3470    2.7310 C.3   332  TRP332      0.1605
     56  C        -20.3850   -0.0260    1.7110 C.2   332  TRP332      0.2264
     57  O        -20.0680   -0.1340    0.4940 O.2   332  TRP332     -0.2867
     58  CB       -19.4900    1.7850    3.1880 C.3   332  TRP332      0.0550
     59  CG       -18.4460    2.1860    4.1770 C.ar  332  TRP332      0.0003
     60  CD1      -17.3520    2.9720    3.9300 C.ar  332  TRP332      0.0946
     61  CD2      -18.3860    1.8290    5.5680 C.ar  332  TRP332      0.0152
     62  NE1      -16.6130    3.1730    5.1030 N.ar  332  TRP332     -0.2442
     63  CE2      -17.2190    2.4580    6.1140 C.ar  332  TRP332      0.0810
     64  CE3      -19.1770    1.0020    6.4050 C.ar  332  TRP332      0.0012
     65  CZ2      -16.8210    2.2870    7.4400 C.ar  332  TRP332      0.0191
     66  CZ3      -18.8360    0.9230    7.7700 C.ar  332  TRP332      0.0001
     67  CH2      -17.6450    1.5430    8.2760 C.ar  332  TRP332      0.0015
     68  N        -24.0370   -0.6480    6.9130 N.3   349  TRP349     -0.1241
     69  CA       -24.1120    0.2530    8.0430 C.3   349  TRP349      0.1605
     70  C        -25.4660    0.9020    8.1290 C.2   349  TRP349      0.2264
     71  O        -25.6470    1.9100    8.8220 O.2   349  TRP349     -0.2867
     72  CB       -23.0120    1.3240    7.9720 C.3   349  TRP349      0.0550
     73  CG       -23.0580    2.1970    6.6810 C.ar  349  TRP349      0.0003
     74  CD1      -22.5820    1.8560    5.4250 C.ar  349  TRP349      0.0946
     75  CD2      -23.4930    3.5390    6.6020 C.ar  349  TRP349      0.0152
     76  NE1      -22.7380    2.9670    4.5660 N.ar  349  TRP349     -0.2442
     77  CE2      -23.2850    3.9910    5.2710 C.ar  349  TRP349      0.0810
     78  CE3      -24.0060    4.4540    7.5570 C.ar  349  TRP349      0.0012
     79  CZ2      -23.6220    5.3030    4.8490 C.ar  349  TRP349      0.0191
     80  CZ3      -24.3730    5.7330    7.1410 C.ar  349  TRP349      0.0001
     81  CH2      -24.1820    6.1660    5.7990 C.ar  349  TRP349      0.0015
     82  N        -22.7390    0.6450   16.2370 N.3   381  TYR381     -0.1241
     83  CA       -21.9550    1.9200   16.2230 C.3   381  TYR381      0.1605
     84  C        -21.7720    2.3330   17.6660 C.2   381  TYR381      0.2264
     85  O        -22.7220    2.7860   18.3810 O.2   381  TYR381     -0.2867
     86  CB       -22.6670    3.0490   15.4460 C.3   381  TYR381      0.0534
     87  CG       -22.3550    3.1240   13.9740 C.ar  381  TYR381     -0.0201
     88  CD1      -22.2020    1.9720   13.2140 C.ar  381  TYR381     -0.0009
     89  CD2      -22.2510    4.3640   13.3340 C.ar  381  TYR381     -0.0009
     90  CE1      -21.9320    2.0500   11.8430 C.ar  381  TYR381      0.0417
     91  CE2      -21.9850    4.4380   11.9690 C.ar  381  TYR381      0.0417
     92  CZ       -21.8420    3.2880   11.2470 C.ar  381  TYR381      0.1957
     93  OH       -21.4940    3.3480    9.8920 O.3   381  TYR381     -0.2866
     94  N        -20.1940    4.9230   18.6610 N.3   383  ASP383     -0.1225
     95  CA       -20.2920    6.3870   18.8890 C.3   383  ASP383      0.1805
     96  C        -21.7310    6.8490   19.0630 C.2   383  ASP383      0.2597
     97  O        -21.9240    8.0410   19.3450 O.2   383  ASP383     -0.2718
     98  CB       -19.7070    7.2100   17.7020 C.3   383  ASP383      0.1424
     99  CG       -20.3940    6.8670   16.3750 C.2   383  ASP383      0.3668
    100  OD1      -20.5510    5.6510   16.0880 O.co2 383  ASP383     -0.2456
    101  OD2      -20.6960    7.8080   15.6150 O.co2 383  ASP383     -0.2456
    102  N        -22.6840    5.9190   18.9130 N.am  384  MET384     -0.1979
    103  CA       -24.1130    6.2430   19.0580 C.3   384  MET384      0.1605
    104  C        -24.4630    6.3750   20.5560 C.2   384  MET384      0.2287
    105  O        -24.0970    5.4990   21.3500 O.2   384  MET384     -0.2864
    106  CB       -25.0420    5.2660   18.3340 C.3   384  MET384      0.0413
    107  CG       -26.3040    5.9560   17.7610 C.3   384  MET384      0.0598
    108  SD       -25.8460    7.1480   16.4190 S.3   384  MET384     -0.1393
    109  CE       -24.8690    6.1230   15.3180 C.3   384  MET384      0.0692
    110  N        -23.1490   10.5180   19.0050 N.3   394  LEU394     -0.1245
    111  CA       -24.1320   11.0990   18.0990 C.3   394  LEU394      0.1561
    112  C        -25.4920   10.3980   18.3010 C.2   394  LEU394      0.2260
    113  O        -25.5580    9.3540   18.9700 O.2   394  LEU394     -0.2867
    114  CB       -23.6790   10.9020   16.6350 C.3   394  LEU394      0.0270
    115  CG       -22.3830   11.6530   16.2830 C.3   394  LEU394      0.0019
    116  CD1      -21.9940   11.3020   14.8230 C.3   394  LEU394      0.0001
    117  CD2      -22.4340   13.1720   16.5570 C.3   394  LEU394      0.0001
    118  N        -27.7660   10.3630   15.3470 N.3   396  TRP396     -0.1241
    119  CA       -28.3850   10.3490   14.0190 C.3   396  TRP396      0.1605
    120  C        -29.0890    9.0500   13.7190 C.2   396  TRP396      0.2264
    121  O        -30.0730    9.0450   12.9380 O.2   396  TRP396     -0.2867
    122  CB       -27.3570   10.6580   12.9050 C.3   396  TRP396      0.0550
    123  CG       -26.3240    9.5640   12.6260 C.ar  396  TRP396      0.0003
    124  CD1      -25.0280    9.4960   13.1180 C.ar  396  TRP396      0.0946
    125  CD2      -26.4680    8.4750   11.7350 C.ar  396  TRP396      0.0152
    126  NE1      -24.3980    8.3930   12.6090 N.ar  396  TRP396     -0.2442
    127  CE2      -25.2610    7.7390   11.7670 C.ar  396  TRP396      0.0810
    128  CE3      -27.5290    8.0130   10.9330 C.ar  396  TRP396      0.0012
    129  CZ2      -25.0790    6.5930   11.0120 C.ar  396  TRP396      0.0191
    130  CZ3      -27.3650    6.8840   10.1950 C.ar  396  TRP396      0.0001
    131  CH2      -26.1430    6.1710   10.2140 C.ar  396  TRP396      0.0015
    132  N        -16.6040    5.7400   15.7000 N.3   430  TRP430     -0.1241
    133  CA       -16.3130    6.9890   14.9850 C.3   430  TRP430      0.1605
    134  C        -15.9670    8.0640   15.9910 C.2   430  TRP430      0.2264
    135  O        -16.3940    7.9970   17.1480 O.2   430  TRP430     -0.2867
    136  CB       -17.5390    7.4380   14.1820 C.3   430  TRP430      0.0550
    137  CG       -17.9200    6.4370   13.1780 C.ar  430  TRP430      0.0003
    138  CD1      -18.9030    5.4890   13.2930 C.ar  430  TRP430      0.0946
    139  CD2      -17.3630    6.2890   11.8840 C.ar  430  TRP430      0.0152
    140  NE1      -18.9440    4.7170   12.1280 N.ar  430  TRP430     -0.2442
    141  CE2      -17.9970    5.1980   11.2650 C.ar  430  TRP430      0.0810
    142  CE3      -16.2890    6.9260   11.2110 C.ar  430  TRP430      0.0012
    143  CZ2      -17.6830    4.7950    9.9430 C.ar  430  TRP430      0.0191
    144  CZ3      -15.9870    6.5510    9.9360 C.ar  430  TRP430      0.0001
    145  CH2      -16.6370    5.4700    9.3230 C.ar  430  TRP430      0.0015
    146  N        -15.9170   11.8290   15.7080 N.3   432  GLU432     -0.1245
    147  CA       -16.2960   13.2550   15.6770 C.3   432  GLU432      0.1567
    148  C        -16.2830   13.8800   17.1020 C.2   432  GLU432      0.2260
    149  O        -15.9010   15.0530   17.2880 O.2   432  GLU432     -0.2867
    150  CB       -17.7450   13.4250   15.1160 C.3   432  GLU432      0.0388
    151  CG       -17.8890   13.3400   13.6010 C.3   432  GLU432      0.1160
    152  CD       -18.1510   11.9290   13.1090 C.2   432  GLU432      0.3649
    153  OE1      -17.7680   10.9240   13.8020 O.co2 432  GLU432     -0.2457
    154  OE2      -18.7640   11.8070   12.0260 O.co2 432  GLU432     -0.2457
@<TRIPOS>BOND
     1    57    56    2
     2    47    48    2
     3    47    46    1
     4    37    38    1
     5    20    21    1
     6    40    39    2
     7    45    46    1
     8    45    39   am
     9    46    49    1
    10    56    55    1
    11    39    38    1
    12    38    41    1
    13    54    55    1
    14    22    21    1
    15    22    23    2
    16    21    24    1
    17    55    58    1
    18    49    50    1
    19    58    59    1
    20    24    25    1
    21    41    42    1
    22    43    42   ar
    23    27    25   ar
    24    27    29   ar
    25    60    59   ar
    26    60    62   ar
    27    50    51    1
    28    42    44   ar
    29    33    32    2
    30    59    61   ar
    31    25    26   ar
    32    32    31    1
    33    76    77   ar
    34    76    74   ar
    35    29    28   ar
    36    79    77   ar
    37    79    81   ar
    38    62    63   ar
    39    15    14    2
    40    77    75   ar
    41    26    28   ar
    42    74    73   ar
    43    51    52    2
    44    51    53   am
    45    61    63   ar
    46    61    64   ar
    47    14    13    1
    48    31    34    1
    49    31    30    1
    50    81    80   ar
    51    13    12    1
    52    13    16    1
    53    63    65   ar
    54    34    36    1
    55    34    35    1
    56    64    66   ar
    57    75    73   ar
    58    75    78   ar
    59    73    72    1
    60    18    17   ar
    61    68    69    1
    62    17    19   ar
    63    17    16    1
    64    80    78   ar
    65    65    67   ar
    66    66    67   ar
    67    72    69    1
    68    69    70    1
    69    70    71    2
    70    11     9    1
    71   145   144   ar
    72   145   143   ar
    73     9     8    2
    74     9    10    1
    75    93    92    1
    76   144   142   ar
    77   143   141   ar
    78     8     7    1
    79   130   131   ar
    80   130   128   ar
    81   131   129   ar
    82   128   125   ar
    83     7     6    1
    84   129   127   ar
    85   142   139   ar
    86    92    90   ar
    87    92    91   ar
    88   141   139   ar
    89   141   140   ar
    90   125   127   ar
    91   125   123   ar
    92   127   126   ar
    93    90    88   ar
    94   139   137   ar
    95    91    89   ar
    96   154   152   ar
    97   140   138   ar
    98     6     5    1
    99     1     2    1
   100   126   124   ar
   101   123   122    1
   102   123   124   ar
   103   122   119    1
   104   121   120    2
   105     2     5    1
   106     2     3    1
   107   152   151    1
   108   152   153   ar
   109   137   138   ar
   110   137   136    1
   111    88    87   ar
   112    89    87   ar
   113   151   150    1
   114   120   119    1
   115    87    86    1
   116   119   118    1
   117   136   133    1
   118     3     4    2
   119   116   115    1
   120   133   132    1
   121   133   134    1
   122   150   147    1
   123   109   108    1
   124    86    83    1
   125   101    99   ar
   126   147   146    1
   127   147   148    1
   128   134   135    2
   129   100    99   ar
   130    83    82    1
   131    83    84    1
   132   115   117    1
   133   115   114    1
   134    99    98    1
   135   108   107    1
   136   114   111    1
   137   148   149    2
   138    84    85    2
   139    98    95    1
   140   107   106    1
   141   111   112    1
   142   111   110    1
   143   112   113    2
   144   106   103    1
   145    94    95    1
   146    95    96    1
   147   102   103    1
   148   102    96   am
   149   103   104    1
   150    96    97    2
   151   104   105    2
