@<TRIPOS>MOLECULE
tmp/4c7hA01.pdb
 222 222 0 0 0
SMALL
GASTEIGER

@<TRIPOS>ATOM
      1  N         20.4300   35.7220   43.8450 N.3     1  ALA1       -0.1231
      2  CA        20.1260   36.4510   45.1190 C.3     1  ALA1        0.1694
      3  C         18.8600   35.9990   45.9130 C.2     1  ALA1        0.2592
      4  O         18.8810   36.1020   47.1480 O.2     1  ALA1       -0.2718
      5  CB        20.1070   37.9600   44.8930 C.3     1  ALA1        0.0304
      6  N         17.7870   35.5370   45.2360 N.am    2  HIS2       -0.1962
      7  CA        16.5230   35.1310   45.9690 C.3     2  HIS2        0.1787
      8  C         16.1680   33.6830   45.6860 C.2     2  HIS2        0.2620
      9  O         15.3300   33.4150   44.7600 O.2     2  HIS2       -0.2715
     10  CB        15.3130   36.0370   45.5940 C.3     2  HIS2        0.0785
     11  CG        15.4380   37.4520   46.0720 C.ar    2  HIS2        0.0821
     12  ND1       15.3390   37.7840   47.4160 N.ar    2  HIS2       -0.2267
     13  CD2       15.6540   38.6220   45.4010 C.ar    2  HIS2        0.1154
     14  CE1       15.5020   39.0980   47.5520 C.ar    2  HIS2        0.1986
     15  NE2       15.6640   39.6310   46.3490 N.ar    2  HIS2       -0.2212
     16  N         16.7420   32.7630   46.4690 N.am    3  ALA3       -0.1963
     17  CA        16.5520   31.3380   46.1970 C.3     3  ALA3        0.1728
     18  C         15.0720   30.9710   46.2330 C.2     3  ALA3        0.2616
     19  O         14.6880   30.0880   45.5240 O.2     3  ALA3       -0.2715
     20  CB        17.3420   30.4120   47.1090 C.3     3  ALA3        0.0334
     21  N         14.2620   31.6040   47.1160 N.am    4  PHE4       -0.1960
     22  CA        12.8380   31.2450   47.0860 C.3     4  PHE4        0.1771
     23  C         12.0550   32.1750   46.1670 C.2     4  PHE4        0.2619
     24  O         11.3950   31.6880   45.2560 O.2     4  PHE4       -0.2715
     25  CB        12.2850   31.3870   48.5230 C.3     4  PHE4        0.0574
     26  CG        10.7540   31.3770   48.5160 C.ar    4  PHE4       -0.0200
     27  CD1       10.1080   30.1720   48.2380 C.ar    4  PHE4       -0.0042
     28  CD2        9.9820   32.5060   48.8810 C.ar    4  PHE4       -0.0042
     29  CE1        8.7170   30.0410   48.2820 C.ar    4  PHE4       -0.0003
     30  CE2        8.5660   32.4030   48.9200 C.ar    4  PHE4       -0.0003
     31  CZ         7.9510   31.1860   48.6120 C.ar    4  PHE4       -0.0000
     32  N         12.2040   33.4890   46.2930 N.am    5  TRP5       -0.1974
     33  CA        11.3350   34.3420   45.4450 C.3     5  TRP5        0.1640
     34  C         11.5540   34.2430   43.9240 C.2     5  TRP5        0.2290
     35  O         10.6450   34.5430   43.1320 O.2     5  TRP5       -0.2864
     36  CB        11.3800   35.8150   46.0050 C.3     5  TRP5        0.0576
     37  CG        10.5360   35.9540   47.2050 C.ar    5  TRP5        0.0006
     38  CD1       10.9560   36.1680   48.5060 C.ar    5  TRP5        0.0946
     39  CD2        9.0810   35.8990   47.1940 C.ar    5  TRP5        0.0152
     40  NE1        9.7950   36.2220   49.3420 N.ar    5  TRP5       -0.2442
     41  CE2        8.6610   36.0250   48.5470 C.ar    5  TRP5        0.0810
     42  CE3        8.1220   35.6200   46.2170 C.ar    5  TRP5        0.0012
     43  CZ2        7.2960   35.9540   48.9030 C.ar    5  TRP5        0.0191
     44  CZ3        6.7710   35.5230   46.5900 C.ar    5  TRP5        0.0001
     45  CH2        6.3890   35.7340   47.9000 C.ar    5  TRP5        0.0015
     46  N          7.5600   37.7020   68.9880 N.3    69  ASN69      -0.1225
     47  CA         8.3570   37.4760   67.7520 C.3    69  ASN69       0.1785
     48  C          7.9280   38.2510   66.4800 C.2    69  ASN69       0.2597
     49  O          8.5020   38.0150   65.4410 O.2    69  ASN69      -0.2718
     50  CB         8.3710   35.9530   67.3940 C.3    69  ASN69       0.1169
     51  CG         8.7440   35.0310   68.5810 C.2    69  ASN69       0.2627
     52  OD1        9.9640   34.8450   68.7970 O.2    69  ASN69      -0.2716
     53  ND2        7.8020   34.6400   69.3890 N.am   69  ASN69      -0.0877
     54  N          6.8790   39.0450   66.5790 N.am   70  TYR70      -0.1962
     55  CA         6.4240   39.7320   65.3700 C.3    70  TYR70       0.1771
     56  C          7.2110   41.0320   65.0850 C.2    70  TYR70       0.2619
     57  O          8.3400   41.2450   65.5510 O.2    70  TYR70      -0.2715
     58  CB         4.9060   39.9770   65.4090 C.3    70  TYR70       0.0574
     59  CG         4.1880   40.1520   64.0640 C.ar   70  TYR70      -0.0198
     60  CD1        4.4670   39.3710   62.9360 C.ar   70  TYR70      -0.0009
     61  CD2        3.2570   41.2210   64.0080 C.ar   70  TYR70      -0.0009
     62  CE1        3.7750   39.6420   61.7500 C.ar   70  TYR70       0.0417
     63  CE2        2.5620   41.5220   62.8010 C.ar   70  TYR70       0.0417
     64  CZ         2.8120   40.6860   61.7030 C.ar   70  TYR70       0.1957
     65  OH         2.1200   40.9230   60.5060 O.3    70  TYR70      -0.2866
     66  N          6.6600   41.8780   64.2130 N.am   71  VAL71      -0.1977
     67  CA         7.4760   42.9060   63.6150 C.3    71  VAL71       0.1596
     68  C          7.8620   43.9850   64.6780 C.2    71  VAL71       0.2287
     69  O          7.0650   44.4790   65.4970 O.2    71  VAL71      -0.2864
     70  CB         6.6330   43.6530   62.4890 C.3    71  VAL71       0.0276
     71  CG1        7.4390   44.8140   61.8660 C.3    71  VAL71       0.0022
     72  CG2        6.1360   42.6960   61.3680 C.3    71  VAL71       0.0022
     73  N         -1.4450   37.8920   55.9370 N.3   157  ASN157     -0.1225
     74  CA        -0.9500   38.7820   57.0180 C.3   157  ASN157      0.1785
     75  C         -0.4320   37.8800   58.0830 C.2   157  ASN157      0.2597
     76  O         -0.5880   36.6690   58.1140 O.2   157  ASN157     -0.2718
     77  CB        -2.1330   39.6560   57.4960 C.3   157  ASN157      0.1169
     78  CG        -1.7180   40.9560   58.1680 C.2   157  ASN157      0.2627
     79  OD1       -0.5480   41.2480   58.3310 O.2   157  ASN157     -0.2716
     80  ND2       -2.7110   41.7900   58.4430 N.am  157  ASN157     -0.0877
     81  N          0.3390   38.5140   59.0230 N.am  158  PHE158     -0.1962
     82  CA         0.7310   37.9410   60.2610 C.3   158  PHE158      0.1771
     83  C          1.7780   36.8000   60.0570 C.2   158  PHE158      0.2619
     84  O          1.8450   35.8600   60.8690 O.2   158  PHE158     -0.2715
     85  CB        -0.4390   37.4280   61.1420 C.3   158  PHE158      0.0574
     86  CG        -1.3810   38.4760   61.5260 C.ar  158  PHE158     -0.0200
     87  CD1       -0.9690   39.5090   62.3910 C.ar  158  PHE158     -0.0042
     88  CD2       -2.7010   38.5170   60.9980 C.ar  158  PHE158     -0.0042
     89  CE1       -1.8520   40.5420   62.7600 C.ar  158  PHE158     -0.0003
     90  CE2       -3.6030   39.5870   61.4030 C.ar  158  PHE158     -0.0003
     91  CZ        -3.1230   40.5780   62.2340 C.ar  158  PHE158     -0.0000
     92  N          2.5600   36.8510   58.9790 N.am  159  LEU159     -0.1963
     93  CA         3.6580   35.8610   58.8480 C.3   159  LEU159      0.1728
     94  C          4.6740   36.0420   59.9790 C.2   159  LEU159      0.2616
     95  O          5.1560   37.1730   60.2120 O.2   159  LEU159     -0.2715
     96  CB         4.3540   36.1170   57.4770 C.3   159  LEU159      0.0311
     97  CG         5.6780   35.2920   57.2880 C.3   159  LEU159      0.0022
     98  CD1        5.4390   33.7650   57.3530 C.3   159  LEU159      0.0001
     99  CD2        6.3350   35.7120   55.9550 C.3   159  LEU159      0.0001
    100  N          4.9820   34.9410   60.6300 N.am  160  CYS160     -0.1954
    101  CA         5.9190   35.1160   61.7920 C.3   160  CYS160      0.1843
    102  C          6.5990   33.8000   62.0410 C.2   160  CYS160      0.2625
    103  O          5.9680   32.7640   62.1600 O.2   160  CYS160     -0.2714
    104  CB         5.1080   35.5240   63.0220 C.3   160  CYS160      0.0997
    105  SG         6.1240   35.7780   64.4970 S.3   160  CYS160     -0.0797
    106  N          7.9170   33.8500   62.1790 N.am  161  VAL161     -0.1977
    107  CA         8.7230   32.6480   62.5430 C.3   161  VAL161      0.1596
    108  C          9.3610   33.0410   63.9040 C.2   161  VAL161      0.2287
    109  O          9.8700   34.1460   64.1120 O.2   161  VAL161     -0.2864
    110  CB         9.7900   32.3780   61.5240 C.3   161  VAL161      0.0276
    111  CG1       10.8310   31.3400   62.0920 C.3   161  VAL161      0.0022
    112  CG2        9.1130   31.7940   60.2680 C.3   161  VAL161      0.0022
    113  N         14.1140   30.2170   65.5070 N.3   165  LEU165     -0.1231
    114  CA        14.0710   29.4540   64.2310 C.3   165  LEU165      0.1693
    115  C         14.3760   30.3050   63.0190 C.2   165  LEU165      0.2592
    116  O         14.2300   29.8530   61.9340 O.2   165  LEU165     -0.2718
    117  CB        12.7270   28.7840   64.1020 C.3   165  LEU165      0.0284
    118  CG        12.7660   27.6290   65.1220 C.3   165  LEU165      0.0019
    119  CD1       11.4130   27.2300   65.6380 C.3   165  LEU165      0.0001
    120  CD2       13.4670   26.4440   64.4730 C.3   165  LEU165      0.0001
    121  N         14.8760   31.5050   63.2430 N.am  166  ARG166     -0.1966
    122  CA        15.1440   32.4270   62.1350 C.3   166  ARG166      0.1729
    123  C         16.2260   31.9040   61.2190 C.2   166  ARG166      0.2616
    124  O         17.2110   31.2450   61.6710 O.2   166  ARG166     -0.2715
    125  CB        15.5430   33.8340   62.6940 C.3   166  ARG166      0.0348
    126  CG        14.4150   34.5790   63.3960 C.3   166  ARG166      0.0492
    127  CD        13.3810   35.0730   62.4150 C.3   166  ARG166      0.2205
    128  NE        12.2290   35.5790   63.1900 N.pl3 166  ARG166     -0.0865
    129  CZ        12.0890   36.7590   63.7810 C.cat 166  ARG166      0.5346
    130  NH1       13.0650   37.6850   63.7000 N.pl3 166  ARG166      0.1354
    131  NH2       10.9760   37.0430   64.5210 N.pl3 166  ARG166      0.1354
    132  N         16.1580   32.2400   59.9350 N.am  167  GLU167     -0.1977
    133  CA        17.1520   32.0160   58.8900 C.3   167  GLU167      0.1602
    134  C         17.4040   30.5290   58.7430 C.2   167  GLU167      0.2287
    135  O         18.5640   30.1050   58.4410 O.2   167  GLU167     -0.2864
    136  CB        18.4820   32.7250   59.3030 C.3   167  GLU167      0.0415
    137  CG        18.1820   34.1000   59.9070 C.3   167  GLU167      0.1163
    138  CD        19.3230   35.0720   59.8140 C.2   167  GLU167      0.3649
    139  OE1       20.1830   34.9700   60.6920 O.co2 167  GLU167     -0.2457
    140  OE2       19.3280   35.9280   58.9040 O.co2 167  GLU167     -0.2457
    141  N         15.1190   28.8800   56.6810 N.3   169  ARG169     -0.1231
    142  CA        14.2720   28.6230   55.5320 C.3   169  ARG169      0.1694
    143  C         12.9070   28.0270   55.9330 C.2   169  ARG169      0.2592
    144  O         12.2740   27.3890   55.0520 O.2   169  ARG169     -0.2718
    145  CB        15.0070   27.7290   54.4890 C.3   169  ARG169      0.0321
    146  CG        16.4640   28.1440   54.2740 C.3   169  ARG169      0.0489
    147  CD        16.5590   29.5790   53.7930 C.3   169  ARG169      0.2205
    148  NE        15.9590   29.8010   52.4370 N.pl3 169  ARG169     -0.0865
    149  CZ        16.0680   30.9390   51.7540 C.cat 169  ARG169      0.5346
    150  NH1       16.7420   31.9700   52.3320 N.pl3 169  ARG169      0.1354
    151  NH2       15.5000   31.0640   50.5370 N.pl3 169  ARG169      0.1354
    152  N         12.3950   28.3140   57.1570 N.am  170  LEU170     -0.1966
    153  CA        11.0590   27.9250   57.5280 C.3   170  LEU170      0.1728
    154  C          9.9440   28.8050   56.8140 C.2   170  LEU170      0.2616
    155  O          8.8530   28.2790   56.4250 O.2   170  LEU170     -0.2715
    156  CB        10.8640   27.8350   59.0530 C.3   170  LEU170      0.0311
    157  CG         9.5560   27.3770   59.5800 C.3   170  LEU170      0.0022
    158  CD1        9.1610   26.0050   58.9170 C.3   170  LEU170      0.0001
    159  CD2        9.7030   27.2280   61.1060 C.3   170  LEU170      0.0001
    160  N         10.2430   30.0800   56.5910 N.am  171  ALA171     -0.1964
    161  CA         9.2110   31.0050   55.9720 C.3   171  ALA171      0.1713
    162  C          8.8520   30.4770   54.6000 C.2   171  ALA171      0.2458
    163  O          7.6240   30.4220   54.3000 O.2   171  ALA171     -0.2730
    164  CB         9.7260   32.4700   55.9070 C.3   171  ALA171      0.0333
    165  N          9.7410   30.0880   53.7240 N.am  172  PRO172     -0.2727
    166  CA         9.2990   29.5980   52.4050 C.3   172  PRO172      0.1402
    167  C          8.3920   28.3270   52.5460 C.2   172  PRO172      0.2269
    168  O          7.4520   28.2220   51.7020 O.2   172  PRO172     -0.2865
    169  CB        10.6280   29.1980   51.7180 C.3   172  PRO172      0.0296
    170  CG        11.6380   30.2330   52.3450 C.3   172  PRO172      0.0237
    171  CD        11.2190   30.3450   53.7480 C.3   172  PRO172      0.0939
    172  N          4.9580   29.5850   53.4300 N.3   175  ILE175     -0.1245
    173  CA         4.3780   30.2700   52.2620 C.3   175  ILE175      0.1561
    174  C          3.8800   29.2300   51.2190 C.2   175  ILE175      0.2260
    175  O          2.7570   29.3580   50.6580 O.2   175  ILE175     -0.2867
    176  CB         5.2750   31.3340   51.6700 C.3   175  ILE175      0.0252
    177  CG1        5.4970   32.4720   52.7450 C.3   175  ILE175      0.0019
    178  CG2        4.7320   31.8060   50.3340 C.3   175  ILE175      0.0019
    179  CD1        6.7810   33.2930   52.4950 C.3   175  ILE175      0.0001
    180  N         -0.6680   41.2490   49.7130 N.3   192  TYR192     -0.1227
    181  CA         0.0160   41.3520   51.0560 C.3   192  TYR192      0.1736
    182  C          0.7940   42.6170   51.0220 C.2   192  TYR192      0.2596
    183  O          1.0910   43.2290   50.0320 O.2   192  TYR192     -0.2718
    184  CB         0.8640   40.0930   51.2830 C.3   192  TYR192      0.0548
    185  CG         1.8610   39.7220   50.2000 C.ar  192  TYR192     -0.0200
    186  CD1        1.4810   39.1010   48.9790 C.ar  192  TYR192     -0.0009
    187  CD2        3.2350   40.0610   50.2870 C.ar  192  TYR192     -0.0009
    188  CE1        2.4280   38.8360   47.9160 C.ar  192  TYR192      0.0417
    189  CE2        4.1810   39.7120   49.2340 C.ar  192  TYR192      0.0417
    190  CZ         3.7520   39.1220   48.0400 C.ar  192  TYR192      0.1957
    191  OH         4.6600   38.8050   47.0350 O.3   192  TYR192     -0.2866
    192  N          1.0870   43.0330   52.2640 N.am  193  THR193     -0.1939
    193  CA         1.9880   44.1870   52.4750 C.3   193  THR193      0.2028
    194  C          3.2040   43.7870   53.3390 C.2   193  THR193      0.2642
    195  O          3.0940   42.7950   54.1030 O.2   193  THR193     -0.2714
    196  CB         1.2790   45.3490   53.1560 C.3   193  THR193      0.1808
    197  OG1        0.6680   44.9120   54.4000 O.3   193  THR193     -0.2208
    198  CG2        0.1240   45.9280   52.2690 C.3   193  THR193      0.0379
    199  N          4.2570   44.5900   53.2140 N.am  194  ALA194     -0.1963
    200  CA         5.4350   44.3760   54.1040 C.3   194  ALA194      0.1728
    201  C          6.0830   45.7110   54.2490 C.2   194  ALA194      0.2617
    202  O          5.9900   46.6100   53.4210 O.2   194  ALA194     -0.2715
    203  CB         6.4260   43.3770   53.5140 C.3   194  ALA194      0.0334
    204  N          6.8450   45.8480   55.3730 N.am  195  GLY195     -0.1940
    205  CA         7.6850   47.0250   55.5700 C.3   195  GLY195      0.2014
    206  C          8.9880   46.8910   54.8140 C.2   195  GLY195      0.2638
    207  O          9.6170   47.9110   54.4350 O.2   195  GLY195     -0.2714
    208  N          9.3910   45.6830   54.4640 N.am  196  VAL196     -0.1977
    209  CA        10.6620   45.4270   53.8090 C.3   196  VAL196      0.1596
    210  C         10.3980   45.3410   52.3190 C.2   196  VAL196      0.2287
    211  O          9.2300   45.1790   51.8350 O.2   196  VAL196     -0.2864
    212  CB        11.3020   44.1020   54.2670 C.3   196  VAL196      0.0276
    213  CG1       11.6270   44.2600   55.7910 C.3   196  VAL196      0.0022
    214  CG2       10.4040   42.9190   54.0410 C.3   196  VAL196      0.0022
    215  N         10.7050   43.4270   48.8830 N.3   198  LEU198     -0.1245
    216  CA        10.7810   42.0680   48.3440 C.3   198  LEU198      0.1561
    217  C         10.4590   42.2370   46.8450 C.2   198  LEU198      0.2260
    218  O          9.9900   43.3340   46.3990 O.2   198  LEU198     -0.2867
    219  CB         9.6270   41.2360   48.9510 C.3   198  LEU198      0.0270
    220  CG         9.6380   41.2190   50.4940 C.3   198  LEU198      0.0019
    221  CD1        8.2690   40.7460   50.9730 C.3   198  LEU198      0.0001
    222  CD2       10.7510   40.2760   50.9420 C.3   198  LEU198      0.0001
@<TRIPOS>BOND
     1    35    34    2
     2     1     2    1
     3    34    33    1
     4     9     8    2
     5     5     2    1
     6     2     3    1
     7     6     3   am
     8     6     7    1
     9    24    23    2
    10    13    11   ar
    11    13    15   ar
    12    33    36    1
    13    33    32    1
    14    19    18    2
    15    10     7    1
    16    10    11    1
    17     8     7    1
    18     8    16   am
    19     3     4    2
    20    36    37    1
    21    11    12   ar
    22    23    32   am
    23    23    22    1
    24    17    18    1
    25    17    16    1
    26    17    20    1
    27    42    44   ar
    28    42    39   ar
    29    18    21   am
    30    15    14   ar
    31   218   217    2
    32    44    45   ar
    33   217   216    1
    34   191   190    1
    35    22    21    1
    36    22    25    1
    37    39    37   ar
    38    39    41   ar
    39    37    38   ar
    40    12    14   ar
    41    45    43   ar
    42   188   190   ar
    43   188   186   ar
    44   190   189   ar
    45    27    29   ar
    46    27    26   ar
    47    29    31   ar
    48   216   215    1
    49   216   219    1
    50    38    40   ar
    51    26    25    1
    52    26    28   ar
    53    41    43   ar
    54    41    40   ar
    55    31    30   ar
    56    28    30   ar
    57   219   220    1
    58   186   185   ar
    59   189   187   ar
    60   180   181    1
    61   183   182    2
    62   185   187   ar
    63   185   184    1
    64   178   176    1
    65   220   222    1
    66   220   221    1
    67   151   149    1
    68   175   174    2
    69   182   181    1
    70   182   192   am
    71   181   184    1
    72   174   173    1
    73   176   173    1
    74   176   177    1
    75   168   167    2
    76   169   170    1
    77   169   166    1
    78   149   150    1
    79   149   148    2
    80   211   210    2
    81   173   172    1
    82   192   193    1
    83   198   196    1
    84   210   209    1
    85   170   171    1
    86   166   167    1
    87   166   165    1
    88   148   147    1
    89   193   196    1
    90   193   194    1
    91   179   177    1
    92   196   197    1
    93   199   194   am
    94   199   200    1
    95   194   195    2
    96   202   201    2
    97   203   200    1
    98   165   171    1
    99   165   162   am
   100   147   146    1
   101   209   212    1
   102   209   208    1
   103   214   212    1
   104   200   201    1
   105   201   204   am
   106   212   213    1
   107   146   145    1
   108   163   162    2
   109   207   206    2
   110   208   206   am
   111   145   142    1
   112   162   161    1
   113   206   205    1
   114   144   143    2
   115   204   205    1
   116   142   143    1
   117   142   141    1
   118   164   161    1
   119   143   152   am
   120    73    74    1
   121    99    97    1
   122   161   160    1
   123   155   154    2
   124   160   154   am
   125   154   153    1
   126    74    77    1
   127    74    75    1
   128   152   153    1
   129    97    98    1
   130    97    96    1
   131    96    93    1
   132    77    78    1
   133   153   156    1
   134    75    76    2
   135    75    81   am
   136    78    79    2
   137    78    80   am
   138   135   134    2
   139   134   133    1
   140    93    92    1
   141    93    94    1
   142   133   136    1
   143   133   132    1
   144   140   138   ar
   145   158   157    1
   146    92    83   am
   147    81    82    1
   148   156   157    1
   149   136   137    1
   150   157   159    1
   151   138   137    1
   152   138   139   ar
   153   132   123   am
   154    94    95    2
   155    94   100   am
   156    83    82    1
   157    83    84    2
   158    82    85    1
   159   112   110    1
   160    65    64    1
   161   100   101    1
   162    88    90   ar
   163    88    86   ar
   164    85    86    1
   165   123   124    2
   166   123   122    1
   167    72    70    1
   168    90    91   ar
   169   110   111    1
   170   110   107    1
   171    86    87   ar
   172    64    62   ar
   173    64    63   ar
   174    62    60   ar
   175   101   102    1
   176   101   104    1
   177    71    70    1
   178   116   115    2
   179   102   103    2
   180   102   106   am
   181   122   125    1
   182   122   121    1
   183   106   107    1
   184    91    89   ar
   185    87    89   ar
   186   127   128    1
   187   127   126    1
   188    70    67    1
   189   107   108    1
   190   125   126    1
   191    63    61   ar
   192    60    59   ar
   193   115   121   am
   194   115   114    1
   195   104   105    1
   196   128   129    2
   197    67    66    1
   198    67    68    1
   199   130   129    1
   200   129   131    1
   201   108   109    2
   202    61    59   ar
   203    59    58    1
   204   117   114    1
   205   117   118    1
   206    66    56   am
   207   114   113    1
   208   120   118    1
   209    68    69    2
   210    56    55    1
   211    56    57    2
   212   118   119    1
   213    55    58    1
   214    55    54    1
   215    49    48    2
   216    48    54   am
   217    48    47    1
   218    50    47    1
   219    50    51    1
   220    47    46    1
   221    51    52    2
   222    51    53   am
