@<TRIPOS>MOLECULE
tmp/4c7jA01.pdb
 182 171 0 0 0
SMALL
GASTEIGER

@<TRIPOS>ATOM
      1  N        -49.3200    2.9320   29.7620 N.3    96  ILE96      -0.1245
      2  CA       -48.7590    2.0390   28.6880 C.3    96  ILE96       0.1561
      3  C        -49.4580    2.2980   27.3560 C.2    96  ILE96       0.2260
      4  O        -50.5310    2.9450   27.3160 O.2    96  ILE96      -0.2867
      5  CB       -48.8380    0.5130   28.9890 C.3    96  ILE96       0.0252
      6  CG1      -50.2960    0.0690   29.2220 C.3    96  ILE96       0.0019
      7  CG2      -47.8690    0.1070   30.1330 C.3    96  ILE96       0.0019
      8  CD1      -50.5020   -1.4630   29.1690 C.3    96  ILE96       0.0001
      9  N        -52.3870   -2.5480   23.9420 N.3    99  THR99      -0.1203
     10  CA       -51.8880   -3.8900   23.6440 C.3    99  THR99       0.1994
     11  C        -52.9280   -4.9970   23.8170 C.2    99  THR99       0.2619
     12  O        -53.8070   -4.9030   24.6770 O.2    99  THR99      -0.2717
     13  CB       -50.7510   -4.3520   24.6160 C.3    99  THR99       0.1784
     14  OG1      -50.0400   -3.2220   25.0910 O.3    99  THR99      -0.2211
     15  CG2      -49.8280   -5.3020   23.9120 C.3    99  THR99       0.0376
     16  N        -52.7250   -6.0720   23.0650 N.am  100  SER100     -0.1937
     17  CA       -53.5700   -7.2580   23.0600 C.3   100  SER100      0.2055
     18  C        -52.6960   -8.5120   23.2770 C.2   100  SER100      0.2642
     19  O        -51.4770   -8.4440   23.1290 O.2   100  SER100     -0.2714
     20  CB       -54.2610   -7.3460   21.7130 C.3   100  SER100      0.2130
     21  OG       -53.2780   -7.5380   20.7130 O.3   100  SER100     -0.2179
     22  N        -53.3190   -9.6280   23.6510 N.am  101  LEU101     -0.1977
     23  CA       -52.6630  -10.9320   23.7040 C.3   101  LEU101      0.1596
     24  C        -52.6590  -11.5050   22.3080 C.2   101  LEU101      0.2287
     25  O        -53.7150  -11.8690   21.7760 O.2   101  LEU101     -0.2864
     26  CB       -53.3980  -11.8810   24.6280 C.3   101  LEU101      0.0297
     27  CG       -53.5190  -11.4440   26.0930 C.3   101  LEU101      0.0022
     28  CD1      -54.4400  -12.4200   26.8040 C.3   101  LEU101      0.0001
     29  CD2      -52.1700  -11.3690   26.7880 C.3   101  LEU101      0.0001
     30  N        -45.1480   -5.2860   35.9680 N.3   145  SER145     -0.1202
     31  CA       -46.0000   -6.4480   35.8200 C.3   145  SER145      0.2020
     32  C        -45.1600   -7.6800   36.1610 C.2   145  SER145      0.2619
     33  O        -43.9170   -7.6250   36.1380 O.2   145  SER145     -0.2717
     34  CB       -46.4350   -6.5690   34.3580 C.3   145  SER145      0.2103
     35  OG       -46.9620   -7.8620   34.0630 O.3   145  SER145     -0.2182
     36  N        -45.8370   -8.7980   36.3680 N.am  146  LEU146     -0.1965
     37  CA       -45.2220  -10.0760   36.5310 C.3   146  LEU146      0.1728
     38  C        -44.5620  -10.4800   35.2060 C.2   146  LEU146      0.2616
     39  O        -43.5530  -11.1880   35.2150 O.2   146  LEU146     -0.2715
     40  CB       -46.2840  -11.0900   36.9610 C.3   146  LEU146      0.0311
     41  CG       -45.9490  -12.0700   38.0800 C.3   146  LEU146      0.0022
     42  CD1      -45.6430  -11.3540   39.3980 C.3   146  LEU146      0.0001
     43  CD2      -47.0970  -13.0190   38.2870 C.3   146  LEU146      0.0001
     44  N        -45.1320  -10.0080   34.0770 N.am  147  ALA147     -0.1977
     45  CA       -44.5310  -10.1940   32.7590 C.3   147  ALA147      0.1597
     46  C        -43.2590   -9.3490   32.5940 C.2   147  ALA147      0.2287
     47  O        -42.5630   -9.4590   31.5740 O.2   147  ALA147     -0.2864
     48  CB       -45.5160   -9.8740   31.6840 C.3   147  ALA147      0.0319
     49  N        -43.9390  -14.8500   29.6500 N.3   152  TYR152     -0.1228
     50  CA       -45.2790  -15.3850   29.2730 C.3   152  TYR152      0.1721
     51  C        -45.4710  -15.2040   27.7830 C.2   152  TYR152      0.2437
     52  O        -45.1170  -14.1530   27.2690 O.2   152  TYR152     -0.2733
     53  CB       -46.4120  -14.5390   29.8960 C.3   152  TYR152      0.0547
     54  CG       -46.5410  -14.5500   31.3840 C.ar  152  TYR152     -0.0200
     55  CD1      -47.1360  -15.6290   32.0520 C.ar  152  TYR152     -0.0009
     56  CD2      -46.1050  -13.4730   32.1310 C.ar  152  TYR152     -0.0009
     57  CE1      -47.2690  -15.6200   33.4630 C.ar  152  TYR152      0.0417
     58  CE2      -46.2470  -13.4430   33.5110 C.ar  152  TYR152      0.0417
     59  CZ       -46.8160  -14.5200   34.1830 C.ar  152  TYR152      0.1957
     60  OH       -46.9270  -14.4690   35.5600 O.3   152  TYR152     -0.2866
     61  N        -46.1560  -16.1530   27.0970 N.am  153  PRO153     -0.2729
     62  CA       -46.4270  -15.8990   25.6750 C.3   153  PRO153      0.1401
     63  C        -47.4990  -14.8140   25.4950 C.2   153  PRO153      0.2269
     64  O        -48.2390  -14.5070   26.4540 O.2   153  PRO153     -0.2865
     65  CB       -46.9410  -17.2560   25.1500 C.3   153  PRO153      0.0296
     66  CG       -47.4810  -17.9840   26.3840 C.3   153  PRO153      0.0237
     67  CD       -46.6960  -17.4490   27.5700 C.3   153  PRO153      0.0939
     68  N        -47.2540  -11.4990   24.9070 N.3   155  VAL155     -0.1245
     69  CA       -46.9570  -10.1750   25.4410 C.3   155  VAL155      0.1561
     70  C        -45.4610   -9.8300   25.3080 C.2   155  VAL155      0.2260
     71  O        -44.8820   -9.1590   26.1500 O.2   155  VAL155     -0.2867
     72  CB       -47.4040  -10.0340   26.9230 C.3   155  VAL155      0.0252
     73  CG1      -48.9330  -10.0050   27.0210 C.3   155  VAL155      0.0019
     74  CG2      -46.7610  -11.1150   27.8000 C.3   155  VAL155      0.0019
     75  N        -44.4890   -6.0300   25.0890 N.3   158  TYR158     -0.1241
     76  CA       -44.9140   -5.5390   26.3970 C.3   158  TYR158      0.1605
     77  C        -43.8780   -5.9720   27.4390 C.2   158  TYR158      0.2264
     78  O        -43.3880   -5.1470   28.2070 O.2   158  TYR158     -0.2867
     79  CB       -46.2910   -6.1300   26.7180 C.3   158  TYR158      0.0534
     80  CG       -46.8630   -5.8170   28.0920 C.ar  158  TYR158     -0.0201
     81  CD1      -47.4340   -4.5670   28.3760 C.ar  158  TYR158     -0.0009
     82  CD2      -46.8250   -6.7790   29.1210 C.ar  158  TYR158     -0.0009
     83  CE1      -47.9630   -4.2850   29.6420 C.ar  158  TYR158      0.0417
     84  CE2      -47.3710   -6.5270   30.3670 C.ar  158  TYR158      0.0417
     85  CZ       -47.9420   -5.2700   30.6330 C.ar  158  TYR158      0.1957
     86  OH       -48.4870   -5.0300   31.8760 O.3   158  TYR158     -0.2866
     87  N        -46.9800   -6.4390   39.3780 N.3   190  LEU190     -0.1231
     88  CA       -48.4190   -6.7500   39.4220 C.3   190  LEU190      0.1693
     89  C        -48.8100   -7.9640   38.6010 C.2   190  LEU190      0.2593
     90  O        -48.3750   -8.1200   37.4690 O.2   190  LEU190     -0.2718
     91  CB       -49.2450   -5.5620   38.9330 C.3   190  LEU190      0.0284
     92  CG       -48.9330   -4.1670   39.5070 C.3   190  LEU190      0.0019
     93  CD1      -49.9560   -3.1060   38.9580 C.3   190  LEU190      0.0001
     94  CD2      -49.0190   -4.1520   41.0030 C.3   190  LEU190      0.0001
     95  N        -49.6550   -8.8100   39.1920 N.am  191  GLY191     -0.1942
     96  CA       -50.3070   -9.8990   38.4800 C.3   191  GLY191      0.2014
     97  C        -51.5100   -9.3390   37.7410 C.2   191  GLY191      0.2638
     98  O        -51.6430   -8.1160   37.6230 O.2   191  GLY191     -0.2714
     99  N        -52.3990  -10.2100   37.2390 N.am  192  LEU192     -0.1977
    100  CA       -53.5490   -9.7200   36.5100 C.3   192  LEU192      0.1596
    101  C        -54.4890   -8.9080   37.4170 C.2   192  LEU192      0.2287
    102  O        -54.8950   -9.3590   38.5090 O.2   192  LEU192     -0.2864
    103  CB       -54.2720  -10.8590   35.7810 C.3   192  LEU192      0.0297
    104  CG       -55.4180  -10.4560   34.8740 C.3   192  LEU192      0.0022
    105  CD1      -54.9190   -9.9100   33.4980 C.3   192  LEU192      0.0001
    106  CD2      -56.2900  -11.6900   34.6680 C.3   192  LEU192      0.0001
    107  N        -58.9400   -4.3970   35.6470 N.3   195  THR195     -0.1218
    108  CA       -59.3450   -3.2250   34.8500 C.3   195  THR195      0.1862
    109  C        -60.1020   -3.6390   33.6020 C.2   195  THR195      0.2287
    110  O        -59.9240   -4.7840   33.1230 O.2   195  THR195     -0.2866
    111  CB       -58.1430   -2.3100   34.4350 C.3   195  THR195      0.1770
    112  OG1      -57.3010   -3.0040   33.5060 O.3   195  THR195     -0.2211
    113  CG2      -57.3140   -1.8810   35.6830 C.3   195  THR195      0.0375
    114  N        -59.7490   -2.6730   30.4760 N.3   197  THR197     -0.1203
    115  CA       -58.8070   -2.9600   29.4090 C.3   197  THR197      0.1994
    116  C        -58.2920   -4.3820   29.5170 C.2   197  THR197      0.2617
    117  O        -58.3070   -5.1260   28.5570 O.2   197  THR197     -0.2717
    118  CB       -57.5830   -2.0070   29.4650 C.3   197  THR197      0.1784
    119  OG1      -58.0290   -0.6420   29.4470 O.3   197  THR197     -0.2211
    120  CG2      -56.6590   -2.2630   28.2610 C.3   197  THR197      0.0376
    121  N        -57.8200   -4.7480   30.7000 N.am  198  ALA198     -0.1979
    122  CA       -57.3170   -6.0930   30.9390 C.3   198  ALA198      0.1597
    123  C        -58.4150   -7.1590   30.7570 C.2   198  ALA198      0.2287
    124  O        -58.1910   -8.1470   30.0690 O.2   198  ALA198     -0.2864
    125  CB       -56.7140   -6.1900   32.3130 C.3   198  ALA198      0.0319
    126  N        -59.2210   -7.7390   27.0840 N.3   201  ALA201     -0.1231
    127  CA       -58.0750   -8.3250   26.3790 C.3   201  ALA201      0.1694
    128  C        -57.8910   -9.7970   26.7110 C.2   201  ALA201      0.2591
    129  O        -57.4340  -10.5830   25.8870 O.2   201  ALA201     -0.2718
    130  CB       -56.8210   -7.5760   26.7620 C.3   201  ALA201      0.0304
    131  N        -58.2660  -10.1480   27.9310 N.am  202  VAL202     -0.1980
    132  CA       -58.0670  -11.4680   28.4920 C.3   202  VAL202      0.1595
    133  C        -59.2310  -12.4750   28.2520 C.2   202  VAL202      0.2287
    134  O        -58.9780  -13.6720   28.1750 O.2   202  VAL202     -0.2864
    135  CB       -57.6680  -11.2890   29.9980 C.3   202  VAL202      0.0276
    136  CG1      -58.5270  -12.1110   30.9620 C.3   202  VAL202      0.0022
    137  CG2      -56.1880  -11.4760   30.1920 C.3   202  VAL202      0.0022
    138  N        -57.3970  -16.0750   28.7790 N.3   206  VAL206     -0.1245
    139  CA       -56.6950  -16.3930   30.0110 C.3   206  VAL206      0.1561
    140  C        -57.6630  -16.8310   31.0970 C.2   206  VAL206      0.2260
    141  O        -58.7780  -16.3530   31.1490 O.2   206  VAL206     -0.2867
    142  CB       -55.6980  -15.2630   30.4050 C.3   206  VAL206      0.0252
    143  CG1      -55.3630  -15.2830   31.8760 C.3   206  VAL206      0.0019
    144  CG2      -54.4310  -15.4120   29.6050 C.3   206  VAL206      0.0019
    145  N        -56.7820  -16.9980   34.5040 N.3   208  MET208     -0.1230
    146  CA       -56.2210  -16.6350   35.7850 C.3   208  MET208      0.1702
    147  C        -57.2590  -15.6970   36.4200 C.2   208  MET208      0.2592
    148  O        -58.0060  -15.0180   35.7200 O.2   208  MET208     -0.2718
    149  CB       -54.8780  -15.9200   35.5890 C.3   208  MET208      0.0401
    150  CG       -53.7580  -16.7800   34.9570 C.3   208  MET208      0.0596
    151  SD       -52.4720  -15.7450   34.2020 S.3   208  MET208     -0.1393
    152  CE       -52.0540  -16.5780   32.6480 C.3   208  MET208      0.0692
    153  N        -57.3180  -15.6780   37.7400 N.am  209  GLN209     -0.1979
    154  CA       -58.2260  -14.7880   38.4430 C.3   209  GLN209      0.1601
    155  C        -57.5670  -13.3870   38.5500 C.2   209  GLN209      0.2287
    156  O        -56.3820  -13.2910   38.8450 O.2   209  GLN209     -0.2864
    157  CB       -58.4960  -15.3900   39.8140 C.3   209  GLN209      0.0394
    158  CG       -59.6470  -14.7890   40.5610 C.3   209  GLN209      0.0908
    159  CD       -59.5610  -15.1000   42.0540 C.2   209  GLN209      0.2608
    160  OE1      -60.2070  -16.0400   42.5360 O.2   209  GLN209     -0.2717
    161  NE2      -58.7440  -14.3310   42.7850 N.am  209  GLN209     -0.0878
    162  N        -50.6660   -9.6590   43.7070 N.3   234  ASP234     -0.1225
    163  CA       -51.3880  -10.6400   42.8700 C.3   234  ASP234      0.1805
    164  C        -52.5850  -11.1900   43.6460 C.2   234  ASP234      0.2598
    165  O        -52.6100  -11.1500   44.8730 O.2   234  ASP234     -0.2718
    166  CB       -50.4480  -11.8090   42.5210 C.3   234  ASP234      0.1424
    167  CG       -50.9780  -12.6990   41.3990 C.2   234  ASP234      0.3668
    168  OD1      -50.7360  -12.3830   40.2290 O.co2 234  ASP234     -0.2456
    169  OD2      -51.6170  -13.7270   41.6780 O.co2 234  ASP234     -0.2456
    170  N        -53.5640  -11.7140   42.9320 N.am  235  SER235     -0.1952
    171  CA       -54.6960  -12.3840   43.5770 C.3   235  SER235      0.1924
    172  C        -54.3020  -13.7230   44.2130 C.2   235  SER235      0.2314
    173  O        -55.0480  -14.2600   45.0180 O.2   235  SER235     -0.2863
    174  CB       -55.8080  -12.6100   42.5810 C.3   235  SER235      0.2116
    175  OG       -55.3180  -13.3830   41.5200 O.3   235  SER235     -0.2180
    176  N        -48.1690  -16.9490   44.1670 N.3   239  THR239     -0.1218
    177  CA       -47.2770  -16.2720   43.2120 C.3   239  THR239      0.1862
    178  C        -46.5120  -15.1310   43.8780 C.2   239  THR239      0.2287
    179  O        -45.3240  -14.9090   43.6030 O.2   239  THR239     -0.2866
    180  CB       -48.0220  -15.8620   41.9400 C.3   239  THR239      0.1770
    181  OG1      -48.5330  -14.5360   42.0750 O.3   239  THR239     -0.2211
    182  CG2      -49.1520  -16.8190   41.6880 C.3   239  THR239      0.0375
@<TRIPOS>BOND
     1    21    20    1
     2    20    17    1
     3    25    24    2
     4    24    23    1
     5    17    16    1
     6    17    18    1
     7    16    11   am
     8    19    18    2
     9    18    22   am
    10    10    11    1
    11    10     9    1
    12    10    13    1
    13    22    23    1
    14    23    26    1
    15    11    12    2
    16    15    13    1
    17    13    14    1
    18    26    27    1
    19    68    69    1
    20    75    76    1
    21    65    62    1
    22    65    66    1
    23    70    69    1
    24    70    71    2
    25    69    72    1
    26    63    62    1
    27    63    64    2
    28    62    61    1
    29   129   128    2
    30    27    29    1
    31    27    28    1
    32   127   128    1
    33   127   130    1
    34   127   126    1
    35    66    67    1
    36    76    79    1
    37    76    77    1
    38   128   131   am
    39    79    80    1
    40    72    73    1
    41    72    74    1
    42    61    67    1
    43    61    51   am
    44    52    51    2
    45     4     3    2
    46     3     2    1
    47    77    78    2
    48    51    50    1
    49   131   132    1
    50    80    81   ar
    51    80    82   ar
    52   134   133    2
    53   133   132    1
    54   120   118    1
    55    81    83   ar
    56   132   135    1
    57   117   116    2
    58     2     5    1
    59     2     1    1
    60   138   139    1
    61     5     6    1
    62     5     7    1
    63    82    84   ar
    64     8     6    1
    65    50    49    1
    66    50    53    1
    67   115   118    1
    68   115   116    1
    69   115   114    1
    70   119   118    1
    71   116   121   am
    72   144   142    1
    73    83    85   ar
    74    53    54    1
    75   135   137    1
    76   135   136    1
    77   139   142    1
    78   139   140    1
    79   124   123    2
    80    84    85   ar
    81   142   143    1
    82    85    86    1
    83   121   122    1
    84   123   122    1
    85   122   125    1
    86   140   141    2
    87    54    55   ar
    88    54    56   ar
    89    47    46    2
    90    48    45    1
    91    55    57   ar
    92    56    58   ar
    93    46    45    1
    94   152   151    1
    95    45    44    1
    96   110   109    2
    97    57    59   ar
    98   105   104    1
    99   112   111    1
   100    58    59   ar
   101   109   108    1
   102    35    34    1
   103    44    38   am
   104    59    60    1
   105   151   150    1
   106    34    31    1
   107   111   108    1
   108   111   113    1
   109   145   146    1
   110   106   104    1
   111   108   107    1
   112   104   103    1
   113   150   149    1
   114    38    39    2
   115    38    37    1
   116   149   146    1
   117   148   147    2
   118   103   100    1
   119   146   147    1
   120    31    30    1
   121    31    32    1
   122    33    32    2
   123    32    36   am
   124    36    37    1
   125   147   153   am
   126   100    99    1
   127   100   101    1
   128    37    40    1
   129    40    41    1
   130    99    97   am
   131   101   102    2
   132    90    89    2
   133    98    97    2
   134   153   154    1
   135    97    96    1
   136    41    43    1
   137    41    42    1
   138   154   155    1
   139   154   157    1
   140    96    95    1
   141   155   156    2
   142    89    95   am
   143    89    88    1
   144    91    88    1
   145    91    92    1
   146    93    92    1
   147    87    88    1
   148    92    94    1
   149   157   158    1
   150   168   167   ar
   151   158   159    1
   152   167   169   ar
   153   167   166    1
   154   175   174    1
   155   182   180    1
   156   180   181    1
   157   180   177    1
   158   159   160    2
   159   159   161   am
   160   166   163    1
   161   174   171    1
   162   163   164    1
   163   163   162    1
   164   170   171    1
   165   170   164   am
   166   177   178    1
   167   177   176    1
   168   171   172    1
   169   179   178    2
   170   164   165    2
   171   172   173    2
