@<TRIPOS>MOLECULE
tmp/4c7kA01.pdb
 176 167 0 0 0
SMALL
GASTEIGER

@<TRIPOS>ATOM
      1  N        -23.2360   -4.9320   22.3250 N.3    96  ILE96      -0.1245
      2  CA       -23.8000   -3.9560   23.2690 C.3    96  ILE96       0.1561
      3  C        -23.0810   -2.6480   22.9930 C.2    96  ILE96       0.2260
      4  O        -21.9980   -2.6560   22.3990 O.2    96  ILE96      -0.2867
      5  CB       -23.7070   -4.3140   24.7910 C.3    96  ILE96       0.0252
      6  CG1      -22.2430   -4.5890   25.2380 C.3    96  ILE96       0.0019
      7  CG2      -24.6780   -5.4470   25.1800 C.3    96  ILE96       0.0019
      8  CD1      -21.9870   -4.4130   26.7620 C.3    96  ILE96       0.0001
      9  N        -20.3440    0.7090   27.8830 N.3    99  THR99      -0.1203
     10  CA       -20.8700    1.1130   29.1870 C.3    99  THR99       0.1994
     11  C        -19.8090    0.9920   30.2810 C.2    99  THR99       0.2619
     12  O        -18.8570    0.2440   30.1130 O.2    99  THR99      -0.2717
     13  CB       -22.1840    0.3730   29.5200 C.3    99  THR99       0.1784
     14  OG1      -22.8240    1.0440   30.6090 O.3    99  THR99      -0.2211
     15  CG2      -21.9710   -1.0830   29.8680 C.3    99  THR99       0.0376
     16  N        -20.0120    1.6810   31.4170 N.am  100  SER100     -0.1937
     17  CA       -19.1020    1.6720   32.5780 C.3   100  SER100      0.2055
     18  C        -19.8620    1.4800   33.8920 C.2   100  SER100      0.2642
     19  O        -21.0780    1.6290   33.9180 O.2   100  SER100     -0.2714
     20  CB       -18.2930    2.9730   32.6330 C.3   100  SER100      0.2130
     21  OG       -19.1130    4.0920   32.9290 O.3   100  SER100     -0.2179
     22  N        -19.1520    1.1860   34.9880 N.am  101  LEU101     -0.1977
     23  CA       -19.7640    1.0600   36.3130 C.3   101  LEU101      0.1596
     24  C        -19.7930    2.4400   36.9390 C.2   101  LEU101      0.2287
     25  O        -18.7440    2.9980   37.2790 O.2   101  LEU101     -0.2864
     26  CB       -19.0030    0.0370   37.1880 C.3   101  LEU101      0.0297
     27  CG       -18.9270   -1.3710   36.6130 C.3   101  LEU101      0.0022
     28  CD1      -18.0840   -2.2640   37.4640 C.3   101  LEU101      0.0001
     29  CD2      -20.3150   -1.9630   36.3930 C.3   101  LEU101      0.0001
     30  N        -27.3390  -11.3290   30.5930 N.3   145  SER145     -0.1202
     31  CA       -26.4920  -11.2190   31.7680 C.3   145  SER145      0.2020
     32  C        -27.3070  -11.5190   33.0080 C.2   145  SER145      0.2619
     33  O        -28.5350  -11.3980   32.9850 O.2   145  SER145     -0.2717
     34  CB       -25.9710   -9.7770   31.8730 C.3   145  SER145      0.2103
     35  OG       -25.4300   -9.4670   33.1520 O.3   145  SER145     -0.2182
     36  N        -26.6110  -11.8340   34.1200 N.am  146  LEU146     -0.1965
     37  CA       -27.2240  -11.9960   35.4360 C.3   146  LEU146      0.1728
     38  C        -27.9180  -10.6750   35.8130 C.2   146  LEU146      0.2616
     39  O        -28.9730  -10.6810   36.4600 O.2   146  LEU146     -0.2715
     40  CB       -26.1310  -12.3000   36.4690 C.3   146  LEU146      0.0311
     41  CG       -26.2460  -13.6040   37.2210 C.3   146  LEU146      0.0022
     42  CD1      -24.9840  -13.8520   38.0280 C.3   146  LEU146      0.0001
     43  CD2      -27.4490  -13.6120   38.1280 C.3   146  LEU146      0.0001
     44  N        -27.3610   -9.5460   35.3260 N.am  147  ALA147     -0.1977
     45  CA       -27.9170   -8.2080   35.5270 C.3   147  ALA147      0.1597
     46  C        -29.1820   -7.9800   34.6870 C.2   147  ALA147      0.2287
     47  O        -29.8190   -6.9360   34.8160 O.2   147  ALA147     -0.2864
     48  CB       -26.8570   -7.1520   35.2380 C.3   147  ALA147      0.0319
     49  N        -28.6120   -5.0830   40.3130 N.3   152  TYR152     -0.1228
     50  CA       -27.2910   -4.6700   40.8000 C.3   152  TYR152      0.1721
     51  C        -27.1430   -3.1660   40.6140 C.2   152  TYR152      0.2437
     52  O        -27.5920   -2.6250   39.5910 O.2   152  TYR152     -0.2733
     53  CB       -26.1530   -5.3730   40.0200 C.3   152  TYR152      0.0547
     54  CG       -26.1870   -6.8780   40.0940 C.ar  152  TYR152     -0.0200
     55  CD1      -25.5790   -7.5570   41.1430 C.ar  152  TYR152     -0.0009
     56  CD2      -26.8140   -7.6290   39.1040 C.ar  152  TYR152     -0.0009
     57  CE1      -25.5880   -8.9490   41.2050 C.ar  152  TYR152      0.0417
     58  CE2      -26.7820   -9.0180   39.1250 C.ar  152  TYR152      0.0417
     59  CZ       -26.1920   -9.6760   40.1910 C.ar  152  TYR152      0.1957
     60  OH       -26.2210  -11.0450   40.2430 O.3   152  TYR152     -0.2866
     61  N        -26.4760   -2.4590   41.5510 N.am  153  PRO153     -0.2718
     62  CA       -26.2710   -1.0130   41.3580 C.3   153  PRO153      0.1535
     63  C        -25.1510   -0.7850   40.3420 C.2   153  PRO153      0.2598
     64  O        -24.3840   -1.7160   40.0970 O.2   153  PRO153     -0.2715
     65  CB       -25.8550   -0.5360   42.7630 C.3   153  PRO153      0.0310
     66  CG       -25.1470   -1.7170   43.3570 C.3   153  PRO153      0.0237
     67  CD       -25.9050   -2.9230   42.8370 C.3   153  PRO153      0.0939
     68  N        -25.0550    0.4410   39.7540 N.am  154  LEU154     -0.1964
     69  CA       -24.0280    0.9020   38.7910 C.3   154  LEU154      0.1728
     70  C        -24.2180    0.4430   37.3270 C.2   154  LEU154      0.2616
     71  O        -23.3760    0.7600   36.4820 O.2   154  LEU154     -0.2715
     72  CB       -22.5770    0.5680   39.2370 C.3   154  LEU154      0.0311
     73  CG       -22.1690    0.8810   40.6640 C.3   154  LEU154      0.0022
     74  CD1      -20.8330    0.2240   40.9780 C.3   154  LEU154      0.0001
     75  CD2      -22.0570    2.3820   40.8960 C.3   154  LEU154      0.0001
     76  N        -25.3200   -0.2810   37.0180 N.am  155  VAL155     -0.1977
     77  CA       -25.5810   -0.7870   35.6620 C.3   155  VAL155      0.1596
     78  C        -27.0540   -0.5830   35.3280 C.2   155  VAL155      0.2287
     79  O        -27.6290   -1.4540   34.6780 O.2   155  VAL155     -0.2864
     80  CB       -25.1960   -2.2930   35.5230 C.3   155  VAL155      0.0276
     81  CG1      -23.7000   -2.4960   35.3450 C.3   155  VAL155      0.0022
     82  CG2      -25.7330   -3.1340   36.6790 C.3   155  VAL155      0.0022
     83  N        -27.9690   -0.4120   31.4420 N.3   158  TYR158     -0.1241
     84  CA       -27.5960   -1.7450   30.9430 C.3   158  TYR158      0.1605
     85  C        -28.6250   -2.7930   31.3720 C.2   158  TYR158      0.2264
     86  O        -29.0770   -3.5810   30.5380 O.2   158  TYR158     -0.2867
     87  CB       -26.1920   -2.1150   31.4430 C.3   158  TYR158      0.0534
     88  CG       -25.6850   -3.5100   31.1190 C.ar  158  TYR158     -0.0201
     89  CD1      -25.0690   -3.7860   29.8930 C.ar  158  TYR158     -0.0009
     90  CD2      -25.6510   -4.5030   32.0960 C.ar  158  TYR158     -0.0009
     91  CE1      -24.5070   -5.0450   29.6270 C.ar  158  TYR158      0.0417
     92  CE2      -25.0870   -5.7550   31.8460 C.ar  158  TYR158      0.0417
     93  CZ       -24.4670   -6.0040   30.6320 C.ar  158  TYR158      0.1957
     94  OH       -23.8740   -7.2310   30.4310 O.3   158  TYR158     -0.2866
     95  N        -25.4130  -14.6720   31.6680 N.3   190  LEU190     -0.1231
     96  CA       -24.0030  -14.7320   31.9860 C.3   190  LEU190      0.1693
     97  C        -23.6220  -13.9280   33.1900 C.2   190  LEU190      0.2593
     98  O        -24.0340  -12.7750   33.3410 O.2   190  LEU190     -0.2718
     99  CB       -23.1290  -14.2730   30.7810 C.3   190  LEU190      0.0284
    100  CG       -23.4130  -14.8050   29.3540 C.3   190  LEU190      0.0019
    101  CD1      -22.4470  -14.1700   28.3760 C.3   190  LEU190      0.0001
    102  CD2      -23.3260  -16.3400   29.2660 C.3   190  LEU190      0.0001
    103  N        -22.7460  -14.5130   33.9920 N.am  191  GLY191     -0.1942
    104  CA       -22.1340  -13.8270   35.1120 C.3   191  GLY191      0.2014
    105  C        -20.9880  -13.0010   34.5610 C.2   191  GLY191      0.2639
    106  O        -20.8900  -12.8160   33.3450 O.2   191  GLY191     -0.2714
    107  N        -20.1270  -12.4700   35.4420 N.am  192  LEU192     -0.1963
    108  CA       -18.9760  -11.6720   35.0370 C.3   192  LEU192      0.1728
    109  C        -17.9810  -12.5650   34.2880 C.2   192  LEU192      0.2616
    110  O        -17.6660  -13.6470   34.7710 O.2   192  LEU192     -0.2715
    111  CB       -18.3430  -11.0260   36.2780 C.3   192  LEU192      0.0311
    112  CG       -17.2500   -9.9600   36.0820 C.3   192  LEU192      0.0022
    113  CD1      -17.7920   -8.6970   35.3770 C.3   192  LEU192      0.0001
    114  CD2      -16.6680   -9.5630   37.4360 C.3   192  LEU192      0.0001
    115  N        -17.5530  -12.1410   33.0710 N.am  193  ILE193     -0.1977
    116  CA       -16.6500  -12.9000   32.1700 C.3   193  ILE193      0.1596
    117  C        -15.3530  -12.1150   31.9890 C.2   193  ILE193      0.2287
    118  O        -15.3840  -10.8860   31.9070 O.2   193  ILE193     -0.2864
    119  CB       -17.3360  -13.2400   30.7910 C.3   193  ILE193      0.0276
    120  CG1      -18.8140  -13.7700   30.9360 C.3   193  ILE193      0.0022
    121  CG2      -16.4960  -14.1690   29.9040 C.3   193  ILE193      0.0022
    122  CD1      -19.0980  -15.1110   31.6410 C.3   193  ILE193      0.0001
    123  N        -13.3710  -10.7380   29.8550 N.3   195  THR195     -0.1218
    124  CA       -13.0350  -10.0080   28.6200 C.3   195  THR195      0.1862
    125  C        -12.2360   -8.7620   29.0190 C.2   195  THR195      0.2287
    126  O        -12.3590   -8.2930   30.1540 O.2   195  THR195     -0.2866
    127  CB       -14.2950   -9.6320   27.8110 C.3   195  THR195      0.1770
    128  OG1      -15.1530   -8.8530   28.6400 O.3   195  THR195     -0.2211
    129  CG2      -15.0420  -10.8500   27.2820 C.3   195  THR195      0.0375
    130  N        -12.7530   -5.7290   28.2170 N.3   197  THR197     -0.1203
    131  CA       -13.7500   -4.7150   28.5800 C.3   197  THR197      0.1994
    132  C        -14.2020   -4.8440   30.0280 C.2   197  THR197      0.2617
    133  O        -14.1310   -3.8650   30.7750 O.2   197  THR197     -0.2717
    134  CB       -14.9400   -4.7430   27.6120 C.3   197  THR197      0.1784
    135  OG1      -14.4400   -4.4980   26.3060 O.3   197  THR197     -0.2211
    136  CG2      -15.9850   -3.6960   27.9510 C.3   197  THR197      0.0376
    137  N        -14.6980   -6.0290   30.4060 N.am  198  ALA198     -0.1979
    138  CA       -15.1770   -6.2910   31.7500 C.3   198  ALA198      0.1597
    139  C        -14.0730   -6.1090   32.7900 C.2   198  ALA198      0.2287
    140  O        -14.3010   -5.3910   33.7520 O.2   198  ALA198     -0.2864
    141  CB       -15.7820   -7.6730   31.8400 C.3   198  ALA198      0.0319
    142  N        -13.4120   -2.3690   33.1930 N.3   201  ALA201     -0.1231
    143  CA       -14.5740   -1.7470   33.8220 C.3   201  ALA201      0.1694
    144  C        -14.7210   -2.0390   35.2930 C.2   201  ALA201      0.2591
    145  O        -15.1840   -1.1750   36.0360 O.2   201  ALA201     -0.2718
    146  CB       -15.8430   -2.1610   33.0930 C.3   201  ALA201      0.0304
    147  N        -14.3560   -3.2580   35.7040 N.am  202  VAL202     -0.1980
    148  CA       -14.5340   -3.8050   37.0420 C.3   202  VAL202      0.1595
    149  C        -13.3420   -3.5330   38.0040 C.2   202  VAL202      0.2287
    150  O        -13.5170   -3.6930   39.2230 O.2   202  VAL202     -0.2864
    151  CB       -14.8620   -5.3150   36.8550 C.3   202  VAL202      0.0276
    152  CG1      -13.9620   -6.2630   37.6430 C.3   202  VAL202      0.0022
    153  CG2      -16.3380   -5.6150   37.0440 C.3   202  VAL202      0.0022
    154  N        -15.2810   -3.7680   41.6160 N.3   206  VAL206     -0.1245
    155  CA       -15.8860   -5.0790   41.8610 C.3   206  VAL206      0.1561
    156  C        -14.8030   -6.1310   42.1530 C.2   206  VAL206      0.2260
    157  O        -13.7280   -6.1220   41.5440 O.2   206  VAL206     -0.2867
    158  CB       -16.8720   -5.4630   40.7180 C.3   206  VAL206      0.0252
    159  CG1      -17.0510   -6.9680   40.5520 C.3   206  VAL206      0.0019
    160  CG2      -18.2130   -4.7790   40.9210 C.3   206  VAL206      0.0019
    161  N        -15.3360   -9.7530   42.2420 N.3   208  MET208     -0.1245
    162  CA       -15.9600  -11.0250   41.8790 C.3   208  MET208      0.1570
    163  C        -15.0430  -11.8160   40.9860 C.2   208  MET208      0.2261
    164  O        -14.2300  -11.2250   40.2760 O.2   208  MET208     -0.2867
    165  CB       -17.2610  -10.7760   41.1160 C.3   208  MET208      0.0387
    166  CG       -18.4730  -11.1570   41.8860 C.3   208  MET208      0.0595
    167  SD       -19.8560  -10.0220   41.5780 S.3   208  MET208     -0.1393
    168  CE       -19.4150   -8.6400   42.6420 C.3   208  MET208      0.0692
    169  N        -21.9100  -18.9160   34.9280 N.3   234  ASP234     -0.1239
    170  CA       -21.2840  -18.0780   35.9540 C.3   234  ASP234      0.1674
    171  C        -20.1130  -18.8510   36.5900 C.2   234  ASP234      0.2266
    172  O        -20.1120  -20.0740   36.5550 O.2   234  ASP234     -0.2867
    173  CB       -22.3310  -17.6820   37.0090 C.3   234  ASP234      0.1410
    174  CG       -21.8300  -16.7180   38.0700 C.2   234  ASP234      0.3668
    175  OD1      -21.9300  -15.5020   37.8580 O.co2 234  ASP234     -0.2456
    176  OD2      -21.3450  -17.1860   39.1100 O.co2 234  ASP234     -0.2456
@<TRIPOS>BOND
     1     1     2    1
     2     4     3    2
     3     3     2    1
     4     2     5    1
     5     5     7    1
     6     5     6    1
     7     6     8    1
     8   135   134    1
     9   129   127    1
    10   134   136    1
    11   134   131    1
    12   127   124    1
    13   127   128    1
    14     9    10    1
    15   130   131    1
    16   101   100    1
    17   131   132    1
    18   124   125    1
    19   124   123    1
    20   125   126    2
    21    10    13    1
    22    10    11    1
    23   102   100    1
    24   100    99    1
    25    13    15    1
    26    13    14    1
    27    91    89   ar
    28    91    93   ar
    29    89    88   ar
    30   121   119    1
    31   132   137   am
    32   132   133    2
    33    12    11    2
    34    11    16   am
    35   137   138    1
    36    94    93    1
    37    86    85    2
    38    30    31    1
    39    93    92   ar
    40    99    96    1
    41   119   120    1
    42   119   116    1
    43   120   122    1
    44    84    85    1
    45    84    83    1
    46    84    87    1
    47    88    87    1
    48    88    90   ar
    49    16    17    1
    50    95    96    1
    51   138   141    1
    52   138   139    1
    53    31    34    1
    54    31    32    1
    55    92    90   ar
    56    34    35    1
    57   118   117    2
    58    96    97    1
    59   117   116    1
    60   116   115    1
    61    17    20    1
    62    17    18    1
    63    20    21    1
    64   139   140    2
    65    33    32    2
    66    32    36   am
    67   115   109   am
    68   146   143    1
    69    97    98    2
    70    97   103   am
    71   142   143    1
    72   106   105    2
    73   143   144    1
    74    18    19    2
    75    18    22   am
    76   103   104    1
    77    36    37    1
    78   109   110    2
    79   109   108    1
    80   105   104    1
    81   105   107   am
    82    79    78    2
    83    46    47    2
    84    46    45    1
    85   169   170    1
    86    22    23    1
    87   108   107    1
    88   108   111    1
    89    48    45    1
    90   144   147   am
    91   144   145    2
    92    44    45    1
    93    44    38   am
    94    78    77    1
    95    81    80    1
    96   113   112    1
    97    37    38    1
    98    37    40    1
    99    80    77    1
   100    80    82    1
   101    77    76    1
   102   147   148    1
   103    38    39    2
   104   170   171    1
   105   170   173    1
   106   112   111    1
   107   112   114    1
   108    23    24    1
   109    23    26    1
   110    29    27    1
   111    40    41    1
   112    71    70    2
   113   172   171    2
   114    27    26    1
   115    27    28    1
   116   151   148    1
   117   151   153    1
   118   151   152    1
   119    24    25    2
   120   173   174    1
   121    76    70   am
   122   148   149    1
   123    41    42    1
   124    41    43    1
   125    70    69    1
   126   175   174   ar
   127   149   150    2
   128   174   176   ar
   129    69    72    1
   130    69    68    1
   131    56    58   ar
   132    56    54   ar
   133    58    59   ar
   134    72    73    1
   135    52    51    2
   136    68    63   am
   137    53    54    1
   138    53    50    1
   139    54    55   ar
   140    64    63    2
   141    59    60    1
   142    59    57   ar
   143   164   163    2
   144    49    50    1
   145    63    62    1
   146   159   158    1
   147    51    50    1
   148    51    61   am
   149    73    75    1
   150    73    74    1
   151   158   160    1
   152   158   155    1
   153   163   162    1
   154   165   162    1
   155   165   166    1
   156    55    57   ar
   157    62    61    1
   158    62    65    1
   159   157   156    2
   160    61    67    1
   161   167   166    1
   162   167   168    1
   163   154   155    1
   164   155   156    1
   165   162   161    1
   166    65    66    1
   167    67    66    1
