@<TRIPOS>MOLECULE
tmp/4c7oC00.pdb
 140 129 0 0 0
SMALL
GASTEIGER

@<TRIPOS>ATOM
      1  N        -11.2920   15.5170   -1.4870 N.3   108  GLN108     -0.1231
      2  CA       -10.6880   16.7680   -1.9030 C.3   108  GLN108      0.1698
      3  C        -11.0760   17.1400   -3.3270 C.2   108  GLN108      0.2593
      4  O        -10.9310   16.3370   -4.2320 O.2   108  GLN108     -0.2718
      5  CB        -9.1610   16.7230   -1.7280 C.3   108  GLN108      0.0381
      6  CG        -8.7130   16.7840   -0.2530 C.3   108  GLN108      0.0905
      7  CD        -8.4880   15.3990    0.3670 C.2   108  GLN108      0.2608
      8  OE1       -8.9390   14.3720   -0.1680 O.2   108  GLN108     -0.2717
      9  NE2       -7.7910   15.3710    1.5010 N.am  108  GLN108     -0.0878
     10  N        -11.5320   18.3730   -3.5240 N.am  109  GLY109     -0.1942
     11  CA       -11.8200   18.8810   -4.8540 C.3   109  GLY109      0.2014
     12  C        -13.0420   18.3230   -5.5680 C.2   109  GLY109      0.2639
     13  O        -13.1540   18.4470   -6.7930 O.2   109  GLY109     -0.2714
     14  N        -13.9450   17.7020   -4.8070 N.am  110  ALA110     -0.1963
     15  CA       -15.1680   17.0950   -5.3360 C.3   110  ALA110      0.1728
     16  C        -16.1390   18.1580   -5.8830 C.2   110  ALA110      0.2617
     17  O        -16.8540   17.9410   -6.8810 O.2   110  ALA110     -0.2715
     18  CB       -15.8280   16.2820   -4.2720 C.3   110  ALA110      0.0334
     19  N        -16.1540   19.3040   -5.2100 N.am  111  GLY111     -0.1940
     20  CA       -16.9280   20.4410   -5.6480 C.3   111  GLY111      0.2014
     21  C        -17.8230   20.9690   -4.5390 C.2   111  GLY111      0.2639
     22  O        -18.8630   21.5750   -4.7930 O.2   111  GLY111     -0.2714
     23  N        -17.3960   20.7770   -3.3000 N.am  112  LYS112     -0.1963
     24  CA       -18.2340   21.1240   -2.1800 C.3   112  LYS112      0.1728
     25  C        -18.4600   22.6070   -2.0730 C.2   112  LYS112      0.2617
     26  O        -19.6010   23.0370   -1.9350 O.2   112  LYS112     -0.2715
     27  CB       -17.6610   20.5660   -0.8750 C.3   112  LYS112      0.0311
     28  CG       -17.5320   19.0530   -0.8990 C.3   112  LYS112      0.0038
     29  CD       -16.9110   18.5170    0.3810 C.3   112  LYS112      0.0206
     30  CE       -15.4770   19.0460    0.5860 C.3   112  LYS112      0.1093
     31  NZ       -14.5260   18.7390   -0.5550 N.3   112  LYS112     -0.1314
     32  N        -17.3860   23.3870   -2.1740 N.am  113  THR113     -0.1937
     33  CA       -17.4640   24.8270   -1.9570 C.3   113  THR113      0.2028
     34  C        -18.3230   25.4430   -3.0390 C.2   113  THR113      0.2643
     35  O        -19.2440   26.2110   -2.7670 O.2   113  THR113     -0.2714
     36  CB       -16.0400   25.4550   -1.9240 C.3   113  THR113      0.1808
     37  OG1      -15.3740   25.0080   -0.7420 O.3   113  THR113     -0.2208
     38  CG2      -16.0980   26.9910   -1.8840 C.3   113  THR113      0.0379
     39  N        -18.0550   25.0290   -4.2670 N.am  114  THR114     -0.1936
     40  CA       -18.8430   25.4510   -5.4050 C.3   114  THR114      0.2028
     41  C        -20.3260   25.1150   -5.2110 C.2   114  THR114      0.2642
     42  O        -21.2090   25.9400   -5.5200 O.2   114  THR114     -0.2714
     43  CB       -18.3270   24.7790   -6.6700 C.3   114  THR114      0.1808
     44  OG1      -16.9160   25.0510   -6.7990 O.3   114  THR114     -0.2208
     45  CG2      -19.0810   25.3050   -7.8870 C.3   114  THR114      0.0379
     46  N        -20.5790   23.9290   -4.6520 N.am  115  SER115     -0.1949
     47  CA       -21.9300   23.4350   -4.4100 C.3   115  SER115      0.1924
     48  C        -22.6570   24.2550   -3.3420 C.2   115  SER115      0.2314
     49  O        -23.8510   24.5470   -3.4830 O.2   115  SER115     -0.2863
     50  CB       -21.8970   21.9630   -4.0280 C.3   115  SER115      0.2116
     51  OG       -21.6970   21.1970   -5.1980 O.3   115  SER115     -0.2180
     52  N        -23.8570   27.2340   -5.1630 N.3   118  LYS118     -0.1245
     53  CA       -25.0280   26.9140   -5.9900 C.3   118  LYS118      0.1561
     54  C        -26.3190   26.7480   -5.1550 C.2   118  LYS118      0.2260
     55  O        -27.3920   27.1510   -5.5800 O.2   118  LYS118     -0.2867
     56  CB       -24.7680   25.6410   -6.7920 C.3   118  LYS118      0.0271
     57  CG       -23.7310   25.7820   -7.8940 C.3   118  LYS118      0.0035
     58  CD       -23.5130   24.4430   -8.5910 C.3   118  LYS118      0.0206
     59  CE       -22.3020   24.4400   -9.5180 C.3   118  LYS118      0.1093
     60  NZ       -21.9950   23.0650  -10.0400 N.3   118  LYS118     -0.1314
     61  N        -13.2890   24.9480    6.4350 N.3   137  ASP137     -0.1239
     62  CA       -12.0420   24.5610    5.7910 C.3   137  ASP137      0.1674
     63  C        -10.9110   25.4270    6.2370 C.2   137  ASP137      0.2266
     64  O        -10.6810   26.4870    5.6660 O.2   137  ASP137     -0.2867
     65  CB       -12.1040   24.6330    4.2790 C.3   137  ASP137      0.1410
     66  CG       -10.9630   23.8700    3.6350 C.2   137  ASP137      0.3668
     67  OD1       -9.9500   23.5970    4.3430 O.co2 137  ASP137     -0.2456
     68  OD2      -11.0550   23.5510    2.4270 O.co2 137  ASP137     -0.2456
     69  N         -7.1870   23.9360    3.2990 N.3   140  ARG140     -0.1245
     70  CA        -6.8240   24.3770    1.9510 C.3   140  ARG140      0.1563
     71  C         -6.6100   25.8950    1.8940 C.2   140  ARG140      0.2260
     72  O         -7.4120   26.6460    2.4400 O.2   140  ARG140     -0.2867
     73  CB        -7.8990   23.9660    0.9710 C.3   140  ARG140      0.0307
     74  CG        -7.4500   24.0610   -0.4570 C.3   140  ARG140      0.0489
     75  CD        -8.2250   25.1340   -1.1780 C.3   140  ARG140      0.2205
     76  NE        -8.8930   24.5710   -2.3340 N.pl3 140  ARG140     -0.0865
     77  CZ        -9.4790   25.2880   -3.2820 C.cat 140  ARG140      0.5346
     78  NH1       -9.4950   26.6110   -3.1910 N.pl3 140  ARG140      0.1354
     79  NH2      -10.0390   24.6670   -4.3250 N.pl3 140  ARG140      0.1354
     80  N        -12.5880   31.7710   -0.9090 N.3   146  GLN146     -0.1245
     81  CA       -13.3550   31.2380   -2.0330 C.3   146  GLN146      0.1566
     82  C        -14.8580   31.2470   -1.7020 C.2   146  GLN146      0.2260
     83  O        -15.7010   31.6860   -2.5040 O.2   146  GLN146     -0.2867
     84  CB       -12.8760   29.8060   -2.3710 C.3   146  GLN146      0.0367
     85  CG       -13.4250   29.2020   -3.6590 C.3   146  GLN146      0.0905
     86  CD       -12.9710   27.7520   -3.8770 C.2   146  GLN146      0.2608
     87  OE1      -12.2120   27.2190   -3.0810 O.2   146  GLN146     -0.2717
     88  NE2      -13.4640   27.1040   -4.9490 N.am  146  GLN146     -0.0878
     89  N        -17.1340   22.2590    4.5140 N.3   190  THR190     -0.1218
     90  CA       -16.0180   21.6070    5.1900 C.3   190  THR190      0.1862
     91  C        -14.8770   21.2530    4.2150 C.2   190  THR190      0.2287
     92  O        -15.0710   21.2280    2.9750 O.2   190  THR190     -0.2866
     93  CB       -16.4730   20.3230    5.8640 C.3   190  THR190      0.1770
     94  OG1      -16.8750   19.3830    4.8570 O.3   190  THR190     -0.2211
     95  CG2      -17.6170   20.5960    6.8060 C.3   190  THR190      0.0375
     96  N        -12.3740   18.9760    2.1130 N.3   192  GLY192     -0.1225
     97  CA       -12.3250   17.6160    1.5990 C.3   192  GLY192      0.1811
     98  C        -11.4350   16.7860    2.5090 C.2   192  GLY192      0.2280
     99  O        -10.4830   17.2990    3.0860 O.2   192  GLY192     -0.2866
    100  N        -21.2820   15.9140   -8.7920 N.3   247  THR247     -0.1203
    101  CA       -20.7800   17.0740   -9.5250 C.3   247  THR247      0.1994
    102  C        -20.0450   16.7410  -10.8340 C.2   247  THR247      0.2617
    103  O        -19.6310   15.5960  -11.0550 O.2   247  THR247     -0.2717
    104  CB       -19.8170   17.8890   -8.6620 C.3   247  THR247      0.1784
    105  OG1      -18.6240   17.1310   -8.4340 O.3   247  THR247     -0.2211
    106  CG2      -20.4600   18.2820   -7.3340 C.3   247  THR247      0.0376
    107  N        -19.8950   17.7610  -11.6870 N.am  248  LYS248     -0.1979
    108  CA       -19.1400   17.6730  -12.9360 C.3   248  LYS248      0.1596
    109  C        -19.7830   16.7150  -13.9380 C.2   248  LYS248      0.2287
    110  O        -19.1030   16.0700  -14.7590 O.2   248  LYS248     -0.2864
    111  CB       -17.6670   17.3270  -12.6730 C.3   248  LYS248      0.0298
    112  CG       -16.9630   18.2940  -11.7140 C.3   248  LYS248      0.0038
    113  CD       -15.6200   17.7520  -11.2240 C.3   248  LYS248      0.0206
    114  CE       -15.1960   18.4980   -9.9770 C.3   248  LYS248      0.1093
    115  NZ       -14.0970   17.8720   -9.2390 N.3   248  LYS248     -0.1314
    116  N        -21.4970   17.7410  -16.3230 N.3   250  ASP250     -0.1239
    117  CA       -21.3590   18.3810  -17.6100 C.3   250  ASP250      0.1674
    118  C        -20.1710   17.8520  -18.3670 C.2   250  ASP250      0.2266
    119  O        -19.9900   18.1640  -19.5480 O.2   250  ASP250     -0.2867
    120  CB       -21.2660   19.8970  -17.4700 C.3   250  ASP250      0.1410
    121  CG       -20.1940   20.3730  -16.4490 C.2   250  ASP250      0.3668
    122  OD1      -20.0970   19.8920  -15.2930 O.co2 250  ASP250     -0.2456
    123  OD2      -19.4300   21.2800  -16.8200 O.co2 250  ASP250     -0.2456
    124  N        -24.4180   18.7060  -10.1600 N.3   273  GLY273     -0.1225
    125  CA       -23.6370   19.8660  -10.5560 C.3   273  GLY273      0.1811
    126  C        -23.3570   19.7640  -12.0350 C.2   273  GLY273      0.2280
    127  O        -22.9100   18.7190  -12.4950 O.2   273  GLY273     -0.2866
    128  N        -21.8490   22.4490  -14.0880 N.3   275  GLY275     -0.1210
    129  CA       -20.9950   23.5100  -14.5790 C.3   275  GLY275      0.1956
    130  C        -20.3270   24.1690  -13.4040 C.2   275  GLY275      0.2611
    131  O        -20.5820   23.8010  -12.2590 O.2   275  GLY275     -0.2717
    132  N        -19.4930   25.1580  -13.6780 N.am  276  GLU276     -0.1979
    133  CA       -18.6700   25.7700  -12.6260 C.3   276  GLU276      0.1602
    134  C        -19.3710   26.9800  -12.0850 C.2   276  GLU276      0.2287
    135  O        -19.1460   27.3550  -10.9400 O.2   276  GLU276     -0.2864
    136  CB       -17.2930   26.1940  -13.1600 C.3   276  GLU276      0.0415
    137  CG       -16.3500   25.0420  -13.4870 C.3   276  GLU276      0.1163
    138  CD       -14.8990   25.4910  -13.7100 C.2   276  GLU276      0.3649
    139  OE1      -14.2380   25.9470  -12.7340 O.co2 276  GLU276     -0.2457
    140  OE2      -14.4190   25.3600  -14.8690 O.co2 276  GLU276     -0.2457
@<TRIPOS>BOND
     1   119   118    2
     2   118   117    1
     3   117   120    1
     4   117   116    1
     5   120   121    1
     6   123   121   ar
     7   121   122   ar
     8   140   138   ar
     9   110   109    2
    10   129   128    1
    11   129   130    1
    12   109   108    1
    13   138   137    1
    14   138   139   ar
    15   132   130   am
    16   132   133    1
    17   137   136    1
    18   130   131    2
    19   136   133    1
    20   108   111    1
    21   108   107    1
    22   111   112    1
    23   133   134    1
    24   127   126    2
    25   134   135    2
    26   126   125    1
    27   112   113    1
    28   107   102   am
    29   113   114    1
    30   103   102    2
    31   102   101    1
    32   125   124    1
    33    60    59    1
    34   114   115    1
    35   101   100    1
    36   101   104    1
    37    59    58    1
    38   104   105    1
    39   104   106    1
    40    58    57    1
    41    57    56    1
    42    45    43    1
    43    17    16    2
    44    44    43    1
    45    13    12    2
    46    56    53    1
    47    43    40    1
    48    53    52    1
    49    53    54    1
    50    16    15    1
    51    16    19   am
    52    20    19    1
    53    20    21    1
    54    55    54    2
    55    12    11    1
    56    12    14   am
    57    42    41    2
    58    40    41    1
    59    40    39    1
    60    15    14    1
    61    15    18    1
    62    41    46   am
    63    51    50    1
    64    88    86   am
    65    11    10    1
    66    22    21    2
    67    46    47    1
    68    21    23   am
    69    47    50    1
    70    47    48    1
    71    79    77    1
    72    39    34   am
    73     4     3    2
    74    86    85    1
    75    86    87    2
    76    85    84    1
    77    10     3   am
    78    49    48    2
    79     3     2    1
    80    23    24    1
    81    77    78    1
    82    77    76    2
    83    34    35    2
    84    34    33    1
    85    83    82    2
    86    84    81    1
    87    76    75    1
    88    24    25    1
    89    24    27    1
    90    32    25   am
    91    32    33    1
    92    25    26    2
    93    81    82    1
    94    81    80    1
    95    33    36    1
    96    36    38    1
    97    36    37    1
    98     2     5    1
    99     2     1    1
   100     5     6    1
   101    75    74    1
   102    28    27    1
   103    28    29    1
   104    31    30    1
   105    74    73    1
   106     6     7    1
   107     8     7    2
   108     7     9   am
   109    29    30    1
   110    73    70    1
   111    97    96    1
   112    97    98    1
   113    71    70    1
   114    71    72    2
   115    70    69    1
   116    68    66   ar
   117    98    99    2
   118    92    91    2
   119    66    65    1
   120    66    67   ar
   121    91    90    1
   122    65    62    1
   123    89    90    1
   124    94    93    1
   125    90    93    1
   126    64    63    2
   127    62    63    1
   128    62    61    1
   129    93    95    1
