@<TRIPOS>MOLECULE
tmp/4c7oD01.pdb
 150 139 0 0 0
SMALL
GASTEIGER

@<TRIPOS>ATOM
      1  N        -11.0920   19.8900  -13.4390 N.3    83  ASN83      -0.1225
      2  CA       -11.3240   20.6160  -12.2150 C.3    83  ASN83       0.1785
      3  C        -11.0280   19.8510  -10.9400 C.2    83  ASN83       0.2598
      4  O        -11.4230   18.7050  -10.7850 O.2    83  ASN83      -0.2718
      5  CB       -12.7580   21.1710  -12.1920 C.3    83  ASN83       0.1169
      6  CG       -13.0800   21.9590  -13.4460 C.2    83  ASN83       0.2627
      7  OD1      -13.4450   21.3870  -14.4550 O.2    83  ASN83      -0.2716
      8  ND2      -12.9000   23.2600  -13.4000 N.am   83  ASN83      -0.0877
      9  N        -10.3050   20.5100  -10.0420 N.am   84  GLY84      -0.1942
     10  CA       -10.0740   20.0220   -8.6980 C.3    84  GLY84       0.2014
     11  C         -9.1940   18.7870   -8.5910 C.2    84  GLY84       0.2639
     12  O         -9.2070   18.1170   -7.5690 O.2    84  GLY84      -0.2714
     13  N         -8.4130   18.4870   -9.6230 N.am   85  VAL85      -0.1963
     14  CA        -7.5470   17.3110   -9.5640 C.3    85  VAL85       0.1727
     15  C         -6.2480   17.5570   -8.8020 C.2    85  VAL85       0.2617
     16  O         -5.5300   16.6160   -8.5080 O.2    85  VAL85      -0.2715
     17  CB        -7.2120   16.7240  -10.9500 C.3    85  VAL85       0.0290
     18  CG1       -8.4820   16.3060  -11.6580 C.3    85  VAL85       0.0023
     19  CG2       -6.4020   17.7230  -11.7940 C.3    85  VAL85       0.0023
     20  N         -5.9070   18.8190   -8.5520 N.am   86  GLY86      -0.1940
     21  CA        -4.7470   19.1180   -7.7330 C.3    86  GLY86       0.2014
     22  C         -3.6210   19.8340   -8.4640 C.2    86  GLY86       0.2639
     23  O         -2.4940   19.7680   -8.0280 O.2    86  GLY86      -0.2714
     24  N         -3.9230   20.5210   -9.5620 N.am   87  LYS87      -0.1963
     25  CA        -2.8980   21.2060  -10.3260 C.3    87  LYS87       0.1728
     26  C         -2.1490   22.2510   -9.4840 C.2    87  LYS87       0.2617
     27  O         -0.9160   22.2290   -9.4030 O.2    87  LYS87      -0.2715
     28  CB        -3.4950   21.8580  -11.5690 C.3    87  LYS87       0.0311
     29  CG        -4.2460   20.8850  -12.4590 C.3    87  LYS87       0.0038
     30  CD        -4.7770   21.5280  -13.7570 C.3    87  LYS87       0.0206
     31  CE        -5.8900   22.4970  -13.4610 C.3    87  LYS87       0.1093
     32  NZ        -6.9960   21.8790  -12.6340 N.3    87  LYS87      -0.1314
     33  N         -2.8890   23.1390   -8.8290 N.am   88  THR88      -0.1937
     34  CA        -2.2730   24.2190   -8.0610 C.3    88  THR88       0.2028
     35  C         -1.4280   23.7050   -6.8750 C.2    88  THR88       0.2643
     36  O         -0.2730   24.1500   -6.6410 O.2    88  THR88      -0.2714
     37  CB        -3.3560   25.2230   -7.6250 C.3    88  THR88       0.1808
     38  OG1       -3.8280   25.9100   -8.7830 O.3    88  THR88      -0.2208
     39  CG2       -2.8270   26.2290   -6.6450 C.3    88  THR88       0.0379
     40  N         -1.9810   22.7350   -6.1620 N.am   89  THR89      -0.1936
     41  CA        -1.2900   22.1380   -5.0190 C.3    89  THR89       0.2028
     42  C          0.0280   21.5130   -5.4750 C.2    89  THR89       0.2642
     43  O          1.0700   21.5750   -4.8090 O.2    89  THR89      -0.2714
     44  CB        -2.1910   21.0880   -4.3630 C.3    89  THR89       0.1808
     45  OG1       -3.4750   21.6770   -4.1460 O.3    89  THR89      -0.2208
     46  CG2       -1.6340   20.6670   -3.0270 C.3    89  THR89       0.0379
     47  N         -0.0500   20.9100   -6.6370 N.am   90  THR90      -0.1950
     48  CA         1.0600   20.2670   -7.2530 C.3    90  THR90       0.1897
     49  C          2.1150   21.3180   -7.6200 C.2    90  THR90       0.2313
     50  O          3.3070   21.1030   -7.3930 O.2    90  THR90      -0.2863
     51  CB         0.5470   19.4310   -8.4270 C.3    90  THR90       0.1794
     52  OG1       -0.1830   18.3390   -7.8730 O.3    90  THR90      -0.2208
     53  CG2        1.6510   18.8650   -9.2650 C.3    90  THR90       0.0378
     54  N          4.0840   22.0260   -4.6650 N.3    93  LYS93      -0.1245
     55  CA         5.0480   20.9550   -4.3690 C.3    93  LYS93       0.1561
     56  C          6.2770   21.0090   -5.3080 C.2    93  LYS93       0.2260
     57  O          7.4290   20.8840   -4.8770 O.2    93  LYS93      -0.2867
     58  CB         4.3490   19.5980   -4.4570 C.3    93  LYS93       0.0271
     59  CG         3.2830   19.3930   -3.4060 C.3    93  LYS93       0.0035
     60  CD         2.4030   18.2420   -3.8260 C.3    93  LYS93       0.0206
     61  CE         1.3610   17.9030   -2.8010 C.3    93  LYS93       0.1093
     62  NZ         0.6120   16.6840   -3.2170 N.3    93  LYS93      -0.1314
     63  N         -4.9370   30.7450  -13.8650 N.3   111  ASP111     -0.1239
     64  CA        -6.3290   30.4910  -13.5520 C.3   111  ASP111      0.1674
     65  C         -6.9220   31.8460  -13.2120 C.2   111  ASP111      0.2266
     66  O         -6.8430   32.3150  -12.0740 O.2   111  ASP111     -0.2867
     67  CB        -6.5340   29.5360  -12.3770 C.3   111  ASP111      0.1410
     68  CG        -8.0460   29.2010  -12.1450 C.2   111  ASP111      0.3668
     69  OD1       -8.9420   29.8350  -12.7720 O.co2 111  ASP111     -0.2456
     70  OD2       -8.3540   28.2970  -11.3430 O.co2 111  ASP111     -0.2456
     71  N        -11.7720   30.6730  -11.8780 N.3   114  ARG114     -0.1245
     72  CA       -12.3760   30.2890  -10.6220 C.3   114  ARG114      0.1563
     73  C        -12.0510   31.2150   -9.4400 C.2   114  ARG114      0.2260
     74  O        -10.9380   31.6830   -9.3120 O.2   114  ARG114     -0.2867
     75  CB       -11.9810   28.8860  -10.2530 C.3   114  ARG114      0.0307
     76  CG       -12.6020   28.4960   -8.9300 C.3   114  ARG114      0.0489
     77  CD       -12.0290   27.2480   -8.3800 C.3   114  ARG114      0.2205
     78  NE       -10.6950   27.3720   -7.7630 N.pl3 114  ARG114     -0.0865
     79  CZ       -10.4500   28.0680   -6.6680 C.cat 114  ARG114      0.5346
     80  NH1      -11.4100   28.7680   -6.1010 N.pl3 114  ARG114      0.1354
     81  NH2       -9.2610   28.0440   -6.1310 N.pl3 114  ARG114      0.1354
     82  N         -5.0060   31.5040   -3.8870 N.3   120  GLN120     -0.1245
     83  CA        -4.5250   30.1570   -3.5610 C.3   120  GLN120      0.1566
     84  C         -3.0510   29.9670   -3.9980 C.2   120  GLN120      0.2260
     85  O         -2.1860   29.4890   -3.2240 O.2   120  GLN120     -0.2867
     86  CB        -5.4090   29.0890   -4.2020 C.3   120  GLN120      0.0367
     87  CG        -5.1950   27.6690   -3.6040 C.3   120  GLN120      0.0905
     88  CD        -5.9830   26.5820   -4.3330 C.2   120  GLN120      0.2608
     89  OE1       -6.8040   26.8710   -5.1980 O.2   120  GLN120     -0.2717
     90  NE2       -5.7180   25.3260   -3.9920 N.am  120  GLN120     -0.0878
     91  N          0.1470   28.0520  -14.0050 N.3   163  ASP163     -0.1225
     92  CA        -1.1560   27.4840  -13.6440 C.3   163  ASP163      0.1805
     93  C         -2.2090   27.8120  -14.6980 C.2   163  ASP163      0.2598
     94  O         -2.2610   28.9310  -15.2090 O.2   163  ASP163     -0.2718
     95  CB        -1.6180   28.0530  -12.2960 C.3   163  ASP163      0.1424
     96  CG        -2.4140   27.0520  -11.4970 C.2   163  ASP163      0.3668
     97  OD1       -2.8160   26.0330  -12.0960 O.co2 163  ASP163     -0.2456
     98  OD2       -2.5800   27.2410  -10.2690 O.co2 163  ASP163     -0.2456
     99  N         -3.0810   26.8610  -14.9970 N.am  164  THR164     -0.1953
    100  CA        -4.2640   27.1990  -15.7860 C.3   164  THR164      0.1897
    101  C         -5.5140   26.8670  -15.0100 C.2   164  THR164      0.2313
    102  O         -5.4750   26.1040  -14.0500 O.2   164  THR164     -0.2863
    103  CB        -4.3180   26.4330  -17.1370 C.3   164  THR164      0.1794
    104  OG1       -4.3960   25.0220  -16.9070 O.3   164  THR164     -0.2208
    105  CG2       -3.0950   26.7520  -17.9770 C.3   164  THR164      0.0378
    106  N         -8.7400   24.7930  -14.4050 N.3   166  GLY166     -0.1225
    107  CA        -9.3330   23.5080  -14.7200 C.3   166  GLY166      0.1811
    108  C        -10.5040   23.6460  -15.7030 C.2   166  GLY166      0.2280
    109  O        -11.2680   24.6000  -15.6840 O.2   166  GLY166     -0.2866
    110  N         -2.1550   12.3980   -8.9530 N.3   227  THR227     -0.1203
    111  CA        -2.3220   12.9290   -7.6100 C.3   227  THR227      0.1994
    112  C         -3.2650   12.1030   -6.7580 C.2   227  THR227      0.2617
    113  O         -3.9470   11.1970   -7.2500 O.2   227  THR227     -0.2717
    114  CB        -2.8470   14.3820   -7.6330 C.3   227  THR227      0.1784
    115  OG1       -4.1380   14.4030   -8.2340 O.3   227  THR227     -0.2211
    116  CG2       -1.9350   15.2910   -8.4360 C.3   227  THR227      0.0376
    117  N         -3.2920   12.4480   -5.4730 N.am  228  LYS228     -0.1979
    118  CA        -4.2150   11.8780   -4.4890 C.3   228  LYS228      0.1596
    119  C         -4.1090   10.3720   -4.3850 C.2   228  LYS228      0.2287
    120  O         -5.1280    9.6910   -4.3050 O.2   228  LYS228     -0.2864
    121  CB        -5.6580   12.2560   -4.8170 C.3   228  LYS228      0.0298
    122  CG        -5.9400   13.7480   -4.8420 C.3   228  LYS228      0.0038
    123  CD        -7.3940   14.0150   -5.2020 C.3   228  LYS228      0.0206
    124  CE        -7.6810   15.4720   -5.5270 C.3   228  LYS228      0.1093
    125  NZ        -9.0290   15.5930   -6.1690 N.3   228  LYS228     -0.1314
    126  N         -2.6420    9.0100   -1.8400 N.3   230  ASP230     -0.1239
    127  CA        -2.5340    8.7220   -0.4160 C.3   230  ASP230      0.1674
    128  C         -3.7960    8.1190    0.1810 C.2   230  ASP230      0.2266
    129  O         -3.8900    7.9230    1.3950 O.2   230  ASP230     -0.2867
    130  CB        -2.1250    9.9640    0.3660 C.3   230  ASP230      0.1410
    131  CG        -2.8810   11.2220   -0.0600 C.2   230  ASP230      0.3668
    132  OD1       -3.0710   11.4540   -1.2770 O.co2 230  ASP230     -0.2456
    133  OD2       -3.2460   12.0070    0.8310 O.co2 230  ASP230     -0.2456
    134  N          1.4390   12.6290   -6.5130 N.3   253  GLY253     -0.1225
    135  CA         1.0530   13.4030   -5.3470 C.3   253  GLY253      0.1811
    136  C          0.5740   12.4410   -4.2890 C.2   253  GLY253      0.2280
    137  O         -0.2280   11.5770   -4.5660 O.2   253  GLY253     -0.2866
    138  N         -0.3250   13.5330   -0.9970 N.3   255  GLY255     -0.1210
    139  CA        -0.8500   14.2960    0.1220 C.3   255  GLY255      0.1956
    140  C         -1.0340   15.7820   -0.1410 C.2   255  GLY255      0.2611
    141  O         -0.9440   16.2390   -1.2840 O.2   255  GLY255     -0.2717
    142  N         -1.2940   16.5360    0.9220 N.am  256  GLU256     -0.1979
    143  CA        -1.5750   17.9640    0.7950 C.3   256  GLU256      0.1602
    144  C         -0.4490   18.8510    1.3530 C.2   256  GLU256      0.2287
    145  O         -0.4460   20.0570    1.1370 O.2   256  GLU256     -0.2864
    146  CB        -2.9280   18.3320    1.4410 C.3   256  GLU256      0.0415
    147  CG        -4.1520   17.5670    0.8890 C.3   256  GLU256      0.1163
    148  CD        -5.4810   18.0200    1.5040 C.2   256  GLU256      0.3649
    149  OE1       -5.9900   19.0900    1.1260 O.co2 256  GLU256     -0.2457
    150  OE2       -6.0100   17.3220    2.3900 O.co2 256  GLU256     -0.2457
@<TRIPOS>BOND
     1   105   103    1
     2   103   104    1
     3   103   100    1
     4   100   101    1
     5   100    99    1
     6   108   109    2
     7   108   107    1
     8    94    93    2
     9   101   102    2
    10    99    93   am
    11   107   106    1
    12    93    92    1
    13     7     6    2
    14    91    92    1
    15    63    64    1
    16    30    31    1
    17    30    29    1
    18    92    95    1
    19    64    65    1
    20    64    67    1
    21    31    32    1
    22     6     8   am
    23     6     5    1
    24     1     2    1
    25    65    66    2
    26    69    68   ar
    27    29    28    1
    28    67    68    1
    29    95    96    1
    30     2     5    1
    31     2     3    1
    32    68    70   ar
    33    97    96   ar
    34    71    72    1
    35    19    17    1
    36    18    17    1
    37    28    25    1
    38    96    98   ar
    39    17    14    1
    40     3     4    2
    41     3     9   am
    42    72    75    1
    43    72    73    1
    44    25    24    1
    45    25    26    1
    46    75    76    1
    47     9    10    1
    48    13    14    1
    49    13    11   am
    50    14    15    1
    51    24    22   am
    52    26    27    2
    53    26    33   am
    54    73    74    2
    55    53    51    1
    56   110   111    1
    57    76    77    1
    58    33    34    1
    59    15    20   am
    60    15    16    2
    61    38    37    1
    62    10    11    1
    63    11    12    2
    64    20    21    1
    65    22    23    2
    66    22    21    1
    67   116   114    1
    68    51    52    1
    69    51    48    1
    70    77    78    1
    71   115   114    1
    72    34    37    1
    73    34    35    1
    74    78    79    2
    75   114   111    1
    76    37    39    1
    77    49    50    2
    78    49    48    1
    79   111   112    1
    80    48    47    1
    81   113   112    2
    82    35    36    2
    83    35    40   am
    84   112   117   am
    85    79    81    1
    86    79    80    1
    87    47    42   am
    88   134   135    1
    89   125   124    1
    90    40    41    1
    91   124   123    1
    92    42    41    1
    93    42    43    2
    94   117   118    1
    95   135   136    1
    96    56    57    2
    97    56    55    1
    98   123   122    1
    99    89    88    2
   100    41    44    1
   101   122   121    1
   102   121   118    1
   103    54    55    1
   104   137   136    2
   105   118   119    1
   106    58    55    1
   107    58    59    1
   108   119   120    2
   109    44    45    1
   110    44    46    1
   111    88    90   am
   112    88    87    1
   113    86    87    1
   114    86    83    1
   115    84    83    1
   116    84    85    2
   117    82    83    1
   118    60    59    1
   119    60    61    1
   120    62    61    1
   121   126   127    1
   122   141   140    2
   123   132   131   ar
   124   138   139    1
   125   127   128    1
   126   127   130    1
   127   140   139    1
   128   140   142   am
   129   131   130    1
   130   131   133   ar
   131   128   129    2
   132   143   142    1
   133   143   144    1
   134   143   146    1
   135   147   146    1
   136   147   148    1
   137   149   148   ar
   138   145   144    2
   139   148   150   ar
