@<TRIPOS>MOLECULE
tmp/4c7rC08.pdb
 105 103 0 0 0
SMALL
GASTEIGER

@<TRIPOS>ATOM
      1  N          9.5400    1.4210  -57.7640 N.3   166  PHE166     -0.1241
      2  CA         8.7900    2.1150  -58.8070 C.3   166  PHE166      0.1605
      3  C          8.3760    1.1910  -59.9470 C.2   166  PHE166      0.2264
      4  O          8.0150    1.6510  -61.0300 O.2   166  PHE166     -0.2867
      5  CB         9.5890    3.3100  -59.3390 C.3   166  PHE166      0.0534
      6  CG         9.5070    4.5180  -58.4590 C.ar  166  PHE166     -0.0203
      7  CD1        8.5000    5.4490  -58.6380 C.ar  166  PHE166     -0.0042
      8  CD2       10.4180    4.7080  -57.4310 C.ar  166  PHE166     -0.0042
      9  CE1        8.4070    6.5620  -57.8120 C.ar  166  PHE166     -0.0003
     10  CE2       10.3340    5.8120  -56.6030 C.ar  166  PHE166     -0.0003
     11  CZ         9.3270    6.7410  -56.7930 C.ar  166  PHE166     -0.0000
     12  N          4.6760    1.3920  -61.5310 N.3   169  LEU169     -0.1231
     13  CA         4.3740    2.5370  -62.3810 C.3   169  LEU169      0.1693
     14  C          5.2340    2.5350  -63.6380 C.2   169  LEU169      0.2592
     15  O          4.8190    3.0140  -64.6920 O.2   169  LEU169     -0.2718
     16  CB         4.6050    3.8520  -61.6260 C.3   169  LEU169      0.0284
     17  CG         4.0400    4.0330  -60.2190 C.3   169  LEU169      0.0019
     18  CD1        4.5410    5.3410  -59.6490 C.3   169  LEU169      0.0001
     19  CD2        2.5150    3.9770  -60.2090 C.3   169  LEU169      0.0001
     20  N          6.4380    1.9940  -63.5120 N.am  170  ILE170     -0.1966
     21  CA         7.4540    2.1400  -64.5430 C.3   170  ILE170      0.1727
     22  C          7.6770    0.8380  -65.3170 C.2   170  ILE170      0.2617
     23  O          8.1370    0.8470  -66.4630 O.2   170  ILE170     -0.2715
     24  CB         8.7710    2.6710  -63.9230 C.3   170  ILE170      0.0290
     25  CG1        8.8970    4.1700  -64.1710 C.3   170  ILE170      0.0022
     26  CG2        9.9700    1.9650  -64.4900 C.3   170  ILE170      0.0023
     27  CD1        7.6370    4.9420  -63.8580 C.3   170  ILE170      0.0001
     28  N          7.3230   -0.2780  -64.6910 N.am  171  GLY171     -0.1940
     29  CA         7.4790   -1.5810  -65.3070 C.3   171  GLY171      0.2014
     30  C          8.8820   -2.1240  -65.1290 C.2   171  GLY171      0.2639
     31  O          9.8180   -1.3670  -64.8700 O.2   171  GLY171     -0.2714
     32  N          9.0270   -3.4400  -65.2670 N.am  172  GLU172     -0.1963
     33  CA        10.3320   -4.0820  -65.1640 C.3   172  GLU172      0.1733
     34  C         11.3530   -3.4330  -66.0940 C.2   172  GLU172      0.2616
     35  O         12.4620   -3.0980  -65.6760 O.2   172  GLU172     -0.2715
     36  CB        10.2170   -5.5770  -65.4690 C.3   172  GLU172      0.0429
     37  CG         9.6930   -6.4130  -64.3100 C.3   172  GLU172      0.1163
     38  CD        10.6990   -6.5370  -63.1730 C.2   172  GLU172      0.3649
     39  OE1       11.8240   -6.0080  -63.3070 O.co2 172  GLU172     -0.2457
     40  OE2       10.3630   -7.1660  -62.1440 O.co2 172  GLU172     -0.2457
     41  N         10.9730   -3.2550  -67.3550 N.am  173  LYS173     -0.1963
     42  CA        11.8530   -2.6320  -68.3350 C.3   173  LYS173      0.1728
     43  C         12.3460   -1.2760  -67.8400 C.2   173  LYS173      0.2616
     44  O         13.5490   -1.0130  -67.8120 O.2   173  LYS173     -0.2715
     45  CB        11.1300   -2.4590  -69.6730 C.3   173  LYS173      0.0311
     46  CG        11.9430   -1.7240  -70.7320 C.3   173  LYS173      0.0038
     47  CD        12.8060   -2.6780  -71.5470 C.3   173  LYS173      0.0206
     48  CE        11.9780   -3.4230  -72.5840 C.3   173  LYS173      0.1093
     49  NZ        11.3780   -2.4890  -73.5780 N.3   173  LYS173     -0.1314
     50  N         11.4060   -0.4240  -67.4420 N.am  174  GLY174     -0.1955
     51  CA        11.7210    0.9300  -67.0270 C.3   174  GLY174      0.1869
     52  C         12.6550    1.0230  -65.8370 C.2   174  GLY174      0.2309
     53  O         13.4590    1.9500  -65.7480 O.2   174  GLY174     -0.2863
     54  N         16.7540    4.0320  -68.0650 N.3   178  TRP178     -0.1227
     55  CA        17.3030    5.2990  -67.5890 C.3   178  TRP178      0.1737
     56  C         16.5330    5.8510  -66.3930 C.2   178  TRP178      0.2595
     57  O         17.1260    6.1910  -65.3700 O.2   178  TRP178     -0.2718
     58  CB        17.3280    6.3300  -68.7220 C.3   178  TRP178      0.0564
     59  CG        15.9770    6.6050  -69.3010 C.ar  178  TRP178      0.0003
     60  CD1       15.3080    5.8450  -70.2150 C.ar  178  TRP178      0.0946
     61  CD2       15.1240    7.7180  -69.0030 C.ar  178  TRP178      0.0152
     62  NE1       14.0920    6.4140  -70.5060 N.ar  178  TRP178     -0.2442
     63  CE2       13.9540    7.5650  -69.7740 C.ar  178  TRP178      0.0810
     64  CE3       15.2350    8.8270  -68.1590 C.ar  178  TRP178      0.0012
     65  CZ2       12.9030    8.4790  -69.7280 C.ar  178  TRP178      0.0191
     66  CZ3       14.1900    9.7320  -68.1140 C.ar  178  TRP178      0.0001
     67  CH2       13.0400    9.5530  -68.8940 C.ar  178  TRP178      0.0015
     68  N         15.2140    5.9410  -66.5270 N.am  179  LEU179     -0.1980
     69  CA        14.3700    6.4630  -65.4590 C.3   179  LEU179      0.1596
     70  C         14.6300    5.7090  -64.1590 C.2   179  LEU179      0.2287
     71  O         14.7520    6.3130  -63.0920 O.2   179  LEU179     -0.2864
     72  CB        12.8950    6.3640  -65.8480 C.3   179  LEU179      0.0297
     73  CG        11.8810    6.9600  -64.8720 C.3   179  LEU179      0.0022
     74  CD1       12.2460    8.3870  -64.5030 C.3   179  LEU179      0.0001
     75  CD2       10.4880    6.9050  -65.4700 C.3   179  LEU179      0.0001
     76  N         16.5220    7.4250  -60.7660 N.3   183  ILE183     -0.1245
     77  CA        15.9760    7.2960  -59.4200 C.3   183  ILE183      0.1561
     78  C         17.0270    6.7950  -58.4350 C.2   183  ILE183      0.2260
     79  O         17.0630    7.2230  -57.2790 O.2   183  ILE183     -0.2867
     80  CB        14.7510    6.3590  -59.3870 C.3   183  ILE183      0.0252
     81  CG1       13.6060    6.9460  -60.2170 C.3   183  ILE183      0.0019
     82  CG2       14.2990    6.1230  -57.9520 C.3   183  ILE183      0.0019
     83  CD1       12.3290    6.1230  -60.1870 C.3   183  ILE183      0.0001
     84  N         10.3280   14.9040  -55.1660 N.3   476  PHE476     -0.1227
     85  CA         9.3580   14.4650  -56.1600 C.3   476  PHE476      0.1736
     86  C          9.3440   12.9500  -56.2740 C.2   476  PHE476      0.2595
     87  O          8.3130   12.3550  -56.5870 O.2   476  PHE476     -0.2718
     88  CB         9.6420   15.1190  -57.5150 C.3   476  PHE476      0.0547
     89  CG         9.3720   16.5940  -57.5330 C.ar  476  PHE476     -0.0202
     90  CD1        8.1130   17.0770  -57.8580 C.ar  476  PHE476     -0.0042
     91  CD2       10.3660   17.4990  -57.2020 C.ar  476  PHE476     -0.0042
     92  CE1        7.8550   18.4310  -57.8610 C.ar  476  PHE476     -0.0003
     93  CE2       10.1130   18.8530  -57.2020 C.ar  476  PHE476     -0.0003
     94  CZ         8.8560   19.3200  -57.5330 C.ar  476  PHE476     -0.0000
     95  N         10.4930   12.3320  -56.0150 N.am  477  VAL477     -0.1980
     96  CA        10.5810   10.8770  -55.9660 C.3   477  VAL477      0.1595
     97  C          9.6750   10.3530  -54.8570 C.2   477  VAL477      0.2287
     98  O          8.7840    9.5420  -55.1040 O.2   477  VAL477     -0.2864
     99  CB        12.0290   10.4000  -55.7210 C.3   477  VAL477      0.0276
    100  CG1       12.0740    8.8970  -55.5570 C.3   477  VAL477      0.0022
    101  CG2       12.9410   10.8450  -56.8620 C.3   477  VAL477      0.0022
    102  N          6.0460   10.3980  -55.7700 N.3   480  GLY480     -0.1225
    103  CA         5.6220    9.3430  -56.6740 C.3   480  GLY480      0.1811
    104  C          5.6230    7.9800  -56.0060 C.2   480  GLY480      0.2280
    105  O          4.8490    7.0940  -56.3660 O.2   480  GLY480     -0.2866
@<TRIPOS>BOND
     1    49    48    1
     2    48    47    1
     3    47    46    1
     4    46    45    1
     5    62    60   ar
     6    62    63   ar
     7    60    59   ar
     8    63    65   ar
     9    63    61   ar
    10    65    67   ar
    11    45    42    1
    12    59    61   ar
    13    59    58    1
    14    61    64   ar
    15    67    66   ar
    16    58    55    1
    17    42    43    1
    18    42    41    1
    19    64    66   ar
    20    54    55    1
    21    43    44    2
    22    43    50   am
    23    55    56    1
    24    50    51    1
    25    41    34   am
    26    51    52    1
    27    68    56   am
    28    68    69    1
    29    23    22    2
    30    56    57    2
    31    34    35    2
    32    34    33    1
    33    72    69    1
    34    72    73    1
    35    52    53    2
    36    75    73    1
    37    36    33    1
    38    36    37    1
    39    69    70    1
    40    22    28   am
    41    22    21    1
    42    29    30    1
    43    29    28    1
    44    32    33    1
    45    32    30   am
    46    30    31    2
    47    73    74    1
    48    15    14    2
    49    21    24    1
    50    21    20    1
    51    26    24    1
    52    37    38    1
    53    25    24    1
    54    25    27    1
    55    70    71    2
    56    14    20   am
    57    14    13    1
    58    39    38   ar
    59    38    40   ar
    60    13    16    1
    61    13    12    1
    62    16    17    1
    63     4     3    2
    64    76    77    1
    65    17    19    1
    66    17    18    1
    67    81    83    1
    68    81    80    1
    69     3     2    1
    70    77    80    1
    71    77    78    1
    72    80    82    1
    73     5     2    1
    74     5     6    1
    75     2     1    1
    76     7     6   ar
    77     7     9   ar
    78     6     8   ar
    79    78    79    2
    80    92    90   ar
    81    92    94   ar
    82    90    89   ar
    83     9    11   ar
    84    94    93   ar
    85    89    88    1
    86    89    91   ar
    87    88    85    1
    88     8    10   ar
    89    93    91   ar
    90   101    99    1
    91    11    10   ar
    92   103   104    1
    93   103   102    1
    94    87    86    2
    95   105   104    2
    96    86    85    1
    97    86    95   am
    98    85    84    1
    99    95    96    1
   100    96    99    1
   101    96    97    1
   102    99   100    1
   103    98    97    2
