@<TRIPOS>MOLECULE
tmp/4c7rC06.pdb
 102 98 0 0 0
SMALL
GASTEIGER

@<TRIPOS>ATOM
      1  N         21.9800   13.1420  -21.0560 N.3   262  ALA262     -0.1231
      2  CA        20.5640   13.3450  -20.7870 C.3   262  ALA262      0.1694
      3  C         20.2300   13.2490  -19.3010 C.2   262  ALA262      0.2591
      4  O         19.4670   14.0590  -18.7790 O.2   262  ALA262     -0.2718
      5  CB        19.7220   12.3650  -21.5920 C.3   262  ALA262      0.0304
      6  N         20.7890   12.2570  -18.6200 N.am  263  ILE263     -0.1980
      7  CA        20.4930   12.0770  -17.2010 C.3   263  ILE263      0.1595
      8  C         21.1960   13.1380  -16.3600 C.2   263  ILE263      0.2287
      9  O         20.6290   13.6540  -15.3980 O.2   263  ILE263     -0.2864
     10  CB        20.8500   10.6600  -16.7020 C.3   263  ILE263      0.0276
     11  CG1       19.6990    9.6940  -16.9780 C.3   263  ILE263      0.0022
     12  CG2       21.1220   10.6710  -15.2080 C.3   263  ILE263      0.0022
     13  CD1       19.1640    9.7590  -18.3850 C.3   263  ILE263      0.0001
     14  N         19.2720   16.1680  -16.6900 N.3   266  PHE266     -0.1227
     15  CA        17.9620   15.9300  -16.0890 C.3   266  PHE266      0.1736
     16  C         18.0200   15.9880  -14.5700 C.2   266  PHE266      0.2595
     17  O         17.1010   16.4810  -13.9210 O.2   266  PHE266     -0.2718
     18  CB        17.3640   14.5890  -16.5330 C.3   266  PHE266      0.0547
     19  CG        16.0520   14.2700  -15.8670 C.ar  266  PHE266     -0.0202
     20  CD1       14.8760   14.8670  -16.2970 C.ar  266  PHE266     -0.0042
     21  CD2       15.9970   13.3950  -14.7940 C.ar  266  PHE266     -0.0042
     22  CE1       13.6650   14.5880  -15.6770 C.ar  266  PHE266     -0.0003
     23  CE2       14.7920   13.1100  -14.1690 C.ar  266  PHE266     -0.0003
     24  CZ        13.6250   13.7090  -14.6120 C.ar  266  PHE266     -0.0000
     25  N         19.1090   15.4820  -14.0090 N.am  267  VAL267     -0.1966
     26  CA        19.2500   15.3800  -12.5630 C.3   267  VAL267      0.1727
     27  C         19.8370   16.6570  -11.9650 C.2   267  VAL267      0.2616
     28  O         19.4440   17.0850  -10.8810 O.2   267  VAL267     -0.2715
     29  CB        20.1220   14.1650  -12.1880 C.3   267  VAL267      0.0290
     30  CG1       20.2830   14.0570  -10.6810 C.3   267  VAL267      0.0023
     31  CG2       19.5090   12.9020  -12.7430 C.3   267  VAL267      0.0023
     32  N         20.7710   17.2650  -12.6870 N.am  268  VAL268     -0.1963
     33  CA        21.4720   18.4470  -12.2020 C.3   268  VAL268      0.1727
     34  C         20.7620   19.7340  -12.6200 C.2   268  VAL268      0.2617
     35  O         20.9250   20.7780  -11.9870 O.2   268  VAL268     -0.2715
     36  CB        22.9320   18.4650  -12.6990 C.3   268  VAL268      0.0290
     37  CG1       23.6490   19.7030  -12.2030 C.3   268  VAL268      0.0023
     38  CG2       23.6610   17.2110  -12.2430 C.3   268  VAL268      0.0023
     39  N         19.9710   19.6530  -13.6860 N.am  269  GLY269     -0.1941
     40  CA        19.2020   20.7930  -14.1530 C.3   269  GLY269      0.1998
     41  C         17.8890   20.9400  -13.4080 C.2   269  GLY269      0.2481
     42  O         17.6760   20.2940  -12.3800 O.2   269  GLY269     -0.2729
     43  N         16.9910   21.7900  -13.9280 N.am  270  PRO270     -0.2715
     44  CA        15.6820   22.0300  -13.3060 C.3   270  PRO270      0.1536
     45  C         14.7490   20.8310  -13.4870 C.2   270  PRO270      0.2599
     46  O         13.8010   20.9070  -14.2720 O.2   270  PRO270     -0.2715
     47  CB        15.1510   23.2410  -14.0770 C.3   270  PRO270      0.0310
     48  CG        15.7900   23.1290  -15.4260 C.3   270  PRO270      0.0237
     49  CD        17.1540   22.5280  -15.1930 C.3   270  PRO270      0.0939
     50  N         15.0200   19.7480  -12.7590 N.am  271  THR271     -0.1937
     51  CA        14.3170   18.4740  -12.9350 C.3   271  THR271      0.2028
     52  C         12.8080   18.6200  -13.1380 C.2   271  THR271      0.2642
     53  O         12.2640   18.1590  -14.1430 O.2   271  THR271     -0.2714
     54  CB        14.5850   17.5110  -11.7500 C.3   271  THR271      0.1808
     55  OG1       15.9860   17.2270  -11.6670 O.3   271  THR271     -0.2208
     56  CG2       13.8260   16.2040  -11.9250 C.3   271  THR271      0.0379
     57  N         12.1410   19.2580  -12.1810 N.am  272  VAL272     -0.1977
     58  CA        10.6870   19.4030  -12.2150 C.3   272  VAL272      0.1596
     59  C         10.1940   20.1550  -13.4560 C.2   272  VAL272      0.2287
     60  O          9.1690   19.8050  -14.0360 O.2   272  VAL272     -0.2864
     61  CB        10.1590   20.0930  -10.9380 C.3   272  VAL272      0.0276
     62  CG1        8.8490   20.8080  -11.2140 C.3   272  VAL272      0.0022
     63  CG2        9.9960   19.0780   -9.8130 C.3   272  VAL272      0.0022
     64  N         11.6350   20.2520  -16.3570 N.3   274  ILE274     -0.1231
     65  CA        11.8000   19.3380  -17.4810 C.3   274  ILE274      0.1692
     66  C         10.6320   18.3580  -17.5480 C.2   274  ILE274      0.2591
     67  O         10.0950   18.0890  -18.6230 O.2   274  ILE274     -0.2718
     68  CB        13.1310   18.5700  -17.3880 C.3   274  ILE274      0.0266
     69  CG1       14.3080   19.5290  -17.5920 C.3   274  ILE274      0.0019
     70  CG2       13.1630   17.4370  -18.4040 C.3   274  ILE274      0.0020
     71  CD1       15.6570   18.9610  -17.1830 C.3   274  ILE274      0.0001
     72  N         10.2310   17.8440  -16.3890 N.am  275  LEU275     -0.1980
     73  CA         9.0970   16.9350  -16.3120 C.3   275  LEU275      0.1596
     74  C          7.8050   17.5980  -16.7900 C.2   275  LEU275      0.2287
     75  O          6.9950   16.9750  -17.4780 O.2   275  LEU275     -0.2864
     76  CB         8.9270   16.3970  -14.8870 C.3   275  LEU275      0.0297
     77  CG         9.9840   15.4110  -14.3830 C.3   275  LEU275      0.0022
     78  CD1        9.7060   15.0100  -12.9420 C.3   275  LEU275      0.0001
     79  CD2       10.0380   14.1910  -15.2720 C.3   275  LEU275      0.0001
     80  N          7.0260   17.5430  -20.4910 N.3   278  LEU278     -0.1245
     81  CA         6.5990   16.2960  -21.1160 C.3   278  LEU278      0.1561
     82  C          5.1400   16.3890  -21.5720 C.2   278  LEU278      0.2260
     83  O          4.8670   16.3840  -22.7770 O.2   278  LEU278     -0.2867
     84  CB         6.8470   15.0840  -20.2080 C.3   278  LEU278      0.0270
     85  CG         8.3110   14.6390  -20.0840 C.3   278  LEU278      0.0019
     86  CD1        8.4490   13.4250  -19.1800 C.3   278  LEU278      0.0001
     87  CD2        8.9230   14.3490  -21.4510 C.3   278  LEU278      0.0001
     88  N         11.5000   13.6620  -25.2470 N.3   356  VAL356     -0.1245
     89  CA        12.2350   13.6930  -23.9870 C.3   356  VAL356      0.1561
     90  C         13.5200   14.5080  -24.1060 C.2   356  VAL356      0.2260
     91  O         13.8450   15.2990  -23.2210 O.2   356  VAL356     -0.2867
     92  CB        12.5820   12.2650  -23.4910 C.3   356  VAL356      0.0252
     93  CG1       13.6770   12.3160  -22.4300 C.3   356  VAL356      0.0019
     94  CG2       11.3370   11.5620  -22.9630 C.3   356  VAL356      0.0019
     95  N         14.5600   18.0780  -22.0570 N.3   360  ILE360     -0.1245
     96  CA        15.7090   18.1600  -21.1700 C.3   360  ILE360      0.1561
     97  C         16.6040   19.3370  -21.5380 C.2   360  ILE360      0.2260
     98  O         16.8750   20.1990  -20.7040 O.2   360  ILE360     -0.2867
     99  CB        16.5310   16.8570  -21.1690 C.3   360  ILE360      0.0252
    100  CG1       15.7460   15.7340  -20.4870 C.3   360  ILE360      0.0019
    101  CG2       17.8660   17.0630  -20.4610 C.3   360  ILE360      0.0019
    102  CD1       16.4810   14.3950  -20.4700 C.3   360  ILE360      0.0001
@<TRIPOS>BOND
     1    88    89    1
     2    90    89    1
     3    90    91    2
     4    89    92    1
     5    92    94    1
     6    92    93    1
     7    83    82    2
     8    95    96    1
     9     5     2    1
    10    82    81    1
    11    97    96    1
    12    97    98    2
    13    87    85    1
    14    96    99    1
    15    99   100    1
    16    99   101    1
    17    81    80    1
    18    81    84    1
    19     1     2    1
    20     2     3    1
    21   100   102    1
    22    84    85    1
    23    85    86    1
    24     3     4    2
    25     3     6   am
    26    67    66    2
    27     6     7    1
    28    70    68    1
    29    13    11    1
    30    69    68    1
    31    69    71    1
    32    66    65    1
    33    66    72   am
    34    65    68    1
    35    65    64    1
    36    75    74    2
    37     7    10    1
    38     7     8    1
    39    11    10    1
    40    74    73    1
    41    10    12    1
    42    14    15    1
    43    18    15    1
    44    18    19    1
    45    72    73    1
    46     8     9    2
    47    73    76    1
    48    20    19   ar
    49    20    22   ar
    50    15    16    1
    51    19    21   ar
    52    22    24   ar
    53    48    49    1
    54    48    47    1
    55    79    77    1
    56    49    43    1
    57    76    77    1
    58    21    23   ar
    59    24    23   ar
    60    16    25   am
    61    16    17    2
    62    77    78    1
    63    46    45    2
    64    40    39    1
    65    40    41    1
    66    53    52    2
    67    47    44    1
    68    60    59    2
    69    25    26    1
    70    43    41   am
    71    43    44    1
    72    39    34   am
    73    45    44    1
    74    45    50   am
    75    59    58    1
    76    41    42    2
    77    52    51    1
    78    52    57   am
    79    51    50    1
    80    51    54    1
    81    31    29    1
    82    36    38    1
    83    36    37    1
    84    36    33    1
    85    32    33    1
    86    32    27   am
    87    34    33    1
    88    34    35    2
    89    26    29    1
    90    26    27    1
    91    58    57    1
    92    58    61    1
    93    29    30    1
    94    27    28    2
    95    56    54    1
    96    54    55    1
    97    62    61    1
    98    61    63    1
