@<TRIPOS>MOLECULE
tmp/4c7rA03.pdb
 117 111 0 0 0
SMALL
GASTEIGER

@<TRIPOS>ATOM
      1  N         -4.0170   11.0180  -20.2440 N.3    54  VAL54      -0.1245
      2  CA        -3.7760    9.6180  -20.5900 C.3    54  VAL54       0.1561
      3  C         -5.0180    8.7850  -20.2810 C.2    54  VAL54       0.2260
      4  O         -5.4920    8.0350  -21.1350 O.2    54  VAL54      -0.2867
      5  CB        -2.5330    9.0340  -19.8740 C.3    54  VAL54       0.0252
      6  CG1       -2.5640    7.5280  -19.8990 C.3    54  VAL54       0.0019
      7  CG2       -1.2530    9.5380  -20.5270 C.3    54  VAL54       0.0019
      8  N         -7.5120    9.1050  -23.1660 N.3    57  PHE57      -0.1227
      9  CA        -7.1390    8.3050  -24.3310 C.3    57  PHE57       0.1736
     10  C         -7.3630    6.8230  -24.0540 C.2    57  PHE57       0.2595
     11  O         -8.1000    6.1460  -24.7700 O.2    57  PHE57      -0.2718
     12  CB        -5.6690    8.5320  -24.6980 C.3    57  PHE57       0.0547
     13  CG        -5.4380    9.7010  -25.6150 C.ar   57  PHE57      -0.0202
     14  CD1       -5.5600   11.0040  -25.1510 C.ar   57  PHE57      -0.0042
     15  CD2       -5.0790    9.4980  -26.9380 C.ar   57  PHE57      -0.0042
     16  CE1       -5.3440   12.0820  -25.9940 C.ar   57  PHE57      -0.0003
     17  CE2       -4.8570   10.5740  -27.7860 C.ar   57  PHE57      -0.0003
     18  CZ        -4.9910   11.8670  -27.3100 C.ar   57  PHE57      -0.0000
     19  N         -6.7170    6.3280  -23.0050 N.am   58  PHE58      -0.1976
     20  CA        -6.8240    4.9290  -22.6200 C.3    58  PHE58       0.1639
     21  C         -8.2510    4.3980  -22.7220 C.2    58  PHE58       0.2290
     22  O         -8.5000    3.4050  -23.4080 O.2    58  PHE58      -0.2864
     23  CB        -6.3050    4.7260  -21.1950 C.3    58  PHE58       0.0560
     24  CG        -6.5450    3.3440  -20.6600 C.ar   58  PHE58      -0.0200
     25  CD1       -7.7170    3.0410  -19.9890 C.ar   58  PHE58      -0.0042
     26  CD2       -5.6040    2.3410  -20.8400 C.ar   58  PHE58      -0.0042
     27  CE1       -7.9420    1.7660  -19.5050 C.ar   58  PHE58      -0.0003
     28  CE2       -5.8270    1.0710  -20.3550 C.ar   58  PHE58      -0.0003
     29  CZ        -6.9950    0.7850  -19.6890 C.ar   58  PHE58      -0.0000
     30  N         -9.6730    4.2620  -26.2060 N.3    61  VAL61      -0.1231
     31  CA        -9.0680    3.1660  -26.9560 C.3    61  VAL61       0.1692
     32  C         -9.6610    1.8070  -26.5600 C.2    61  VAL61       0.2591
     33  O         -9.9340    0.9670  -27.4180 O.2    61  VAL61      -0.2718
     34  CB        -7.5330    3.1500  -26.7990 C.3    61  VAL61       0.0266
     35  CG1       -6.9750    1.7580  -27.0500 C.3    61  VAL61       0.0020
     36  CG2       -6.9000    4.1570  -27.7390 C.3    61  VAL61       0.0020
     37  N         -9.8610    1.5940  -25.2630 N.am   62  ILE62      -0.1980
     38  CA       -10.5250    0.3860  -24.7910 C.3    62  ILE62       0.1595
     39  C        -11.8770    0.2230  -25.4770 C.2    62  ILE62       0.2287
     40  O        -12.1760   -0.8210  -26.0520 O.2    62  ILE62      -0.2864
     41  CB       -10.7540    0.4140  -23.2660 C.3    62  ILE62       0.0276
     42  CG1       -9.4200    0.3480  -22.5190 C.3    62  ILE62       0.0022
     43  CG2      -11.6590   -0.7320  -22.8430 C.3    62  ILE62       0.0022
     44  CD1       -8.5220   -0.7830  -22.9690 C.3    62  ILE62       0.0001
     45  N        -11.5930   -0.6610  -29.0800 N.3    65  SER65      -0.1217
     46  CA       -10.9880   -1.9700  -29.2900 C.3    65  SER65       0.1889
     47  C        -12.0240   -3.0870  -29.2270 C.2    65  SER65       0.2288
     48  O        -13.1830   -2.8550  -28.8810 O.2    65  SER65      -0.2866
     49  CB        -9.9100   -2.2200  -28.2360 C.3    65  SER65       0.2089
     50  OG       -10.4870   -2.5620  -26.9860 O.3    65  SER65      -0.2183
     51  N        -12.1120   -5.3580  -27.1110 N.3    67  PHE67      -0.1241
     52  CA       -12.4920   -5.4870  -25.7010 C.3    67  PHE67       0.1605
     53  C        -13.8990   -4.9570  -25.4260 C.2    67  PHE67       0.2264
     54  O        -14.5560   -5.3930  -24.4840 O.2    67  PHE67      -0.2867
     55  CB       -11.5020   -4.7590  -24.7910 C.3    67  PHE67       0.0534
     56  CG       -10.1310   -5.3710  -24.7590 C.ar   67  PHE67      -0.0203
     57  CD1       -9.9630   -6.7420  -24.8630 C.ar   67  PHE67      -0.0042
     58  CD2       -9.0090   -4.5730  -24.6040 C.ar   67  PHE67      -0.0042
     59  CE1       -8.6990   -7.3060  -24.8270 C.ar   67  PHE67      -0.0003
     60  CE2       -7.7430   -5.1310  -24.5680 C.ar   67  PHE67      -0.0003
     61  CZ        -7.5890   -6.5000  -24.6800 C.ar   67  PHE67      -0.0000
     62  N         -5.8700   -4.1470  -18.4210 N.3   486  VAL486     -0.1245
     63  CA        -5.4750   -4.6460  -19.7380 C.3   486  VAL486      0.1561
     64  C         -5.0860   -6.1240  -19.6620 C.2   486  VAL486      0.2260
     65  O         -5.4290   -6.9170  -20.5400 O.2   486  VAL486     -0.2867
     66  CB        -4.3180   -3.8150  -20.3560 C.3   486  VAL486      0.0252
     67  CG1       -3.8840   -4.4010  -21.6870 C.3   486  VAL486      0.0019
     68  CG2       -4.7400   -2.3660  -20.5460 C.3   486  VAL486      0.0019
     69  N         -7.2800   -9.1020  -21.5790 N.3   490  SER490     -0.1217
     70  CA        -6.5120   -9.8760  -22.5470 C.3   490  SER490      0.1889
     71  C         -6.6560  -11.3750  -22.3150 C.2   490  SER490      0.2288
     72  O         -6.4620  -12.1750  -23.2310 O.2   490  SER490     -0.2866
     73  CB        -5.0360   -9.4850  -22.5040 C.3   490  SER490      0.2089
     74  OG        -4.8320   -8.2200  -23.1040 O.3   490  SER490     -0.2183
     75  N        -12.2160  -13.0740  -25.7360 N.3   495  TYR495     -0.1241
     76  CA       -11.1810  -12.3870  -26.5000 C.3   495  TYR495      0.1605
     77  C        -10.0960  -13.3690  -26.9500 C.2   495  TYR495      0.2264
     78  O         -9.5540  -13.2530  -28.0500 O.2   495  TYR495     -0.2867
     79  CB       -10.5700  -11.2380  -25.6870 C.3   495  TYR495      0.0534
     80  CG        -9.4170  -10.5450  -26.3910 C.ar  495  TYR495     -0.0201
     81  CD1       -9.6480   -9.6320  -27.4160 C.ar  495  TYR495     -0.0009
     82  CD2       -8.0990  -10.8080  -26.0370 C.ar  495  TYR495     -0.0009
     83  CE1       -8.6010   -9.0050  -28.0660 C.ar  495  TYR495      0.0417
     84  CE2       -7.0470  -10.1850  -26.6790 C.ar  495  TYR495      0.0417
     85  CZ        -7.3010   -9.2850  -27.6940 C.ar  495  TYR495      0.1957
     86  OH        -6.2500   -8.6650  -28.3410 O.3   495  TYR495     -0.2866
     87  N         -8.8690  -14.0000  -30.8550 N.3   499  ARG499     -0.1245
     88  CA        -7.4900  -13.9130  -31.3230 C.3   499  ARG499      0.1563
     89  C         -7.0150  -15.2760  -31.8030 C.2   499  ARG499      0.2260
     90  O         -6.0460  -15.3850  -32.5490 O.2   499  ARG499     -0.2867
     91  CB        -6.5790  -13.3960  -30.2070 C.3   499  ARG499      0.0307
     92  CG        -6.8910  -11.9780  -29.7640 C.3   499  ARG499      0.0489
     93  CD        -6.2830  -10.9480  -30.7130 C.3   499  ARG499      0.2205
     94  NE        -4.8520  -10.7680  -30.4770 N.pl3 499  ARG499     -0.0865
     95  CZ        -4.0390  -10.0900  -31.2800 C.cat 499  ARG499      0.5346
     96  NH1       -4.5120   -9.5260  -32.3830 N.pl3 499  ARG499      0.1354
     97  NH2       -2.7500   -9.9810  -30.9840 N.pl3 499  ARG499      0.1354
     98  N         -8.3930  -15.7590  -35.3860 N.3   502  GLN502     -0.1231
     99  CA        -7.7050  -14.8910  -36.3280 C.3   502  GLN502      0.1698
    100  C         -6.5080  -15.6430  -36.8780 C.2   502  GLN502      0.2592
    101  O         -6.1990  -15.5630  -38.0660 O.2   502  GLN502     -0.2718
    102  CB        -7.2370  -13.6080  -35.6350 C.3   502  GLN502      0.0381
    103  CG        -7.8210  -12.3230  -36.1920 C.3   502  GLN502      0.0905
    104  CD        -7.1130  -11.0930  -35.6520 C.2   502  GLN502      0.2608
    105  OE1       -7.6080  -10.4320  -34.7390 O.2   502  GLN502     -0.2717
    106  NE2       -5.9400  -10.7890  -36.2050 N.am  502  GLN502     -0.0878
    107  N         -5.8370  -16.3770  -35.9960 N.am  503  ARG503     -0.1980
    108  CA        -4.6640  -17.1420  -36.3770 C.3   503  ARG503      0.1597
    109  C         -5.0550  -18.2540  -37.3340 C.2   503  ARG503      0.2287
    110  O         -4.5330  -18.3440  -38.4480 O.2   503  ARG503     -0.2864
    111  CB        -3.9880  -17.7230  -35.1400 C.3   503  ARG503      0.0334
    112  CG        -3.4020  -16.6850  -34.2270 C.3   503  ARG503      0.0492
    113  CD        -2.4320  -15.8120  -34.9800 C.3   503  ARG503      0.2205
    114  NE        -1.1880  -16.4980  -35.3060 N.pl3 503  ARG503     -0.0865
    115  CZ        -0.6760  -16.5680  -36.5290 C.cat 503  ARG503      0.5346
    116  NH1       -1.3050  -15.9980  -37.5490 N.pl3 503  ARG503      0.1354
    117  NH2        0.4670  -17.2040  -36.7310 N.pl3 503  ARG503      0.1354
@<TRIPOS>BOND
     1   110   109    2
     2   101   100    2
     3   116   115    1
     4   109   108    1
     5   100    99    1
     6   100   107   am
     7   117   115    1
     8   115   114    2
     9   108   107    1
    10   108   111    1
    11    99   102    1
    12    99    98    1
    13   106   104   am
    14   103   104    1
    15   103   102    1
    16   104   105    2
    17   114   113    1
    18   111   112    1
    19   113   112    1
    20    90    89    2
    21    96    95    1
    22    89    88    1
    23    88    87    1
    24    88    91    1
    25    95    97    1
    26    95    94    2
    27    93    94    1
    28    93    92    1
    29    91    92    1
    30    46    47    1
    31    46    45    1
    32    46    49    1
    33    47    48    2
    34    86    85    1
    35    49    50    1
    36    83    85   ar
    37    83    81   ar
    38    78    77    2
    39    17    18   ar
    40    17    15   ar
    41    36    34    1
    42    85    84   ar
    43    33    32    2
    44    81    80   ar
    45    18    16   ar
    46    51    52    1
    47    35    34    1
    48    31    34    1
    49    31    32    1
    50    31    30    1
    51    77    76    1
    52    15    13   ar
    53    84    82   ar
    54    32    37   am
    55    76    75    1
    56    76    79    1
    57    80    82   ar
    58    80    79    1
    59    40    39    2
    60    16    14   ar
    61    52    53    1
    62    52    55    1
    63    13    14   ar
    64    13    12    1
    65    39    38    1
    66    53    54    2
    67    37    38    1
    68    57    59   ar
    69    57    56   ar
    70    59    61   ar
    71    55    56    1
    72    38    41    1
    73    11    10    2
    74    56    58   ar
    75    12     9    1
    76    61    60   ar
    77    58    60   ar
    78     9    10    1
    79     9     8    1
    80    10    19   am
    81    22    21    2
    82    41    43    1
    83    41    42    1
    84    72    71    2
    85    74    73    1
    86    19    20    1
    87    44    42    1
    88    21    20    1
    89    20    23    1
    90    70    73    1
    91    70    71    1
    92    70    69    1
    93    67    66    1
    94    23    24    1
    95     4     3    2
    96    26    24   ar
    97    26    28   ar
    98    24    25   ar
    99     2     3    1
   100     2     1    1
   101     2     5    1
   102    68    66    1
   103    65    64    2
   104     7     5    1
   105    66    63    1
   106    28    29   ar
   107    25    27   ar
   108     6     5    1
   109    63    64    1
   110    63    62    1
   111    29    27   ar
