@<TRIPOS>MOLECULE
tmp/4c7rC07.pdb
 108 104 0 0 0
SMALL
GASTEIGER

@<TRIPOS>ATOM
      1  N          3.0140   18.6920  -49.2090 N.3    51  PHE51      -0.1241
      2  CA         3.2420   17.2460  -49.2050 C.3    51  PHE51       0.1605
      3  C          3.8730   16.7320  -47.9140 C.2    51  PHE51       0.2264
      4  O          3.6480   15.5910  -47.5260 O.2    51  PHE51      -0.2867
      5  CB         4.0370   16.8090  -50.4380 C.3    51  PHE51       0.0534
      6  CG         3.2780   16.9720  -51.7230 C.ar   51  PHE51      -0.0203
      7  CD1        2.2350   16.1180  -52.0320 C.ar   51  PHE51      -0.0042
      8  CD2        3.5910   17.9900  -52.6120 C.ar   51  PHE51      -0.0042
      9  CE1        1.5220   16.2630  -53.2060 C.ar   51  PHE51      -0.0003
     10  CE2        2.8810   18.1400  -53.7890 C.ar   51  PHE51      -0.0003
     11  CZ         1.8440   17.2730  -54.0870 C.ar   51  PHE51      -0.0000
     12  N          0.8540   15.8860  -46.3530 N.3    54  VAL54      -0.1245
     13  CA         0.1820   14.8040  -47.0690 C.3    54  VAL54       0.1561
     14  C          0.8340   13.4580  -46.7240 C.2    54  VAL54       0.2260
     15  O          0.1580   12.4430  -46.6400 O.2    54  VAL54      -0.2867
     16  CB         0.1750   15.0150  -48.6020 C.3    54  VAL54       0.0252
     17  CG1       -0.1640   13.7070  -49.3250 C.3    54  VAL54       0.0019
     18  CG2       -0.8160   16.1090  -48.9860 C.3    54  VAL54       0.0019
     19  N         -1.1390   10.3430  -45.4600 N.3    58  PHE58      -0.1241
     20  CA        -0.9980    9.1320  -46.2570 C.3    58  PHE58       0.1605
     21  C         -0.6140    7.9250  -45.4080 C.2    58  PHE58       0.2264
     22  O         -1.3410    6.9350  -45.3670 O.2    58  PHE58      -0.2867
     23  CB         0.0500    9.3580  -47.3510 C.3    58  PHE58       0.0534
     24  CG         0.4170    8.1140  -48.1220 C.ar   58  PHE58      -0.0203
     25  CD1       -0.3510    7.6920  -49.1950 C.ar   58  PHE58      -0.0042
     26  CD2        1.5490    7.3870  -47.7910 C.ar   58  PHE58      -0.0042
     27  CE1       -0.0060    6.5660  -49.9170 C.ar   58  PHE58      -0.0003
     28  CE2        1.8960    6.2580  -48.5070 C.ar   58  PHE58      -0.0003
     29  CZ         1.1160    5.8470  -49.5730 C.ar   58  PHE58      -0.0000
     30  N          5.6500   -0.8480  -60.1690 N.3   168  PRO168     -0.2102
     31  CA         4.2200   -0.7820  -60.5020 C.3   168  PRO168      0.1504
     32  C          3.8610    0.3450  -61.4800 C.2   168  PRO168      0.2575
     33  O          2.8430    0.2530  -62.1730 O.2   168  PRO168     -0.2718
     34  CB         3.5560   -0.5220  -59.1450 C.3   168  PRO168      0.0282
     35  CG         4.5130   -1.0460  -58.1490 C.3   168  PRO168      0.0208
     36  CD         5.8780   -0.8050  -58.7140 C.3   168  PRO168      0.0893
     37  N          4.6760    1.3920  -61.5310 N.am  169  LEU169     -0.1980
     38  CA         4.3740    2.5370  -62.3810 C.3   169  LEU169      0.1596
     39  C          5.2340    2.5350  -63.6380 C.2   169  LEU169      0.2287
     40  O          4.8190    3.0140  -64.6920 O.2   169  LEU169     -0.2864
     41  CB         4.6050    3.8520  -61.6260 C.3   169  LEU169      0.0297
     42  CG         4.0400    4.0330  -60.2190 C.3   169  LEU169      0.0022
     43  CD1        4.5410    5.3410  -59.6490 C.3   169  LEU169      0.0001
     44  CD2        2.5150    3.9770  -60.2090 C.3   169  LEU169      0.0001
     45  N         10.3280   14.9040  -55.1660 N.3   476  PHE476     -0.1241
     46  CA         9.3580   14.4650  -56.1600 C.3   476  PHE476      0.1605
     47  C          9.3440   12.9500  -56.2740 C.2   476  PHE476      0.2264
     48  O          8.3130   12.3550  -56.5870 O.2   476  PHE476     -0.2867
     49  CB         9.6420   15.1190  -57.5150 C.3   476  PHE476      0.0534
     50  CG         9.3720   16.5940  -57.5330 C.ar  476  PHE476     -0.0203
     51  CD1        8.1130   17.0770  -57.8580 C.ar  476  PHE476     -0.0042
     52  CD2       10.3660   17.4990  -57.2020 C.ar  476  PHE476     -0.0042
     53  CE1        7.8550   18.4310  -57.8610 C.ar  476  PHE476     -0.0003
     54  CE2       10.1130   18.8530  -57.2020 C.ar  476  PHE476     -0.0003
     55  CZ         8.8560   19.3200  -57.5330 C.ar  476  PHE476     -0.0000
     56  N          7.2460   11.6680  -53.5820 N.3   479  ILE479     -0.1231
     57  CA         5.8430   11.9180  -53.8910 C.3   479  ILE479      0.1692
     58  C          5.2830   10.7980  -54.7580 C.2   479  ILE479      0.2592
     59  O          4.1830   10.3040  -54.5090 O.2   479  ILE479     -0.2718
     60  CB         5.6170   13.2900  -54.5750 C.3   479  ILE479      0.0266
     61  CG1        5.8840   14.4310  -53.5860 C.3   479  ILE479      0.0019
     62  CG2        4.1910   13.3880  -55.1190 C.3   479  ILE479      0.0020
     63  CD1        5.7610   15.8310  -54.1780 C.3   479  ILE479      0.0001
     64  N          6.0460   10.3980  -55.7700 N.am  480  GLY480     -0.1957
     65  CA         5.6220    9.3430  -56.6740 C.3   480  GLY480      0.1869
     66  C          5.6230    7.9800  -56.0060 C.2   480  GLY480      0.2309
     67  O          4.8490    7.0940  -56.3660 O.2   480  GLY480     -0.2863
     68  N          4.4710    7.3560  -53.1980 N.3   482  MET482     -0.1230
     69  CA         3.1110    7.2170  -52.6990 C.3   482  MET482      0.1702
     70  C          2.2290    6.5260  -53.7240 C.2   482  MET482      0.2592
     71  O          1.4910    5.6040  -53.3930 O.2   482  MET482     -0.2718
     72  CB         2.5160    8.5900  -52.3660 C.3   482  MET482      0.0401
     73  CG         2.9950    9.2000  -51.0550 C.3   482  MET482      0.0596
     74  SD         1.8940   10.5080  -50.4940 S.3   482  MET482     -0.1393
     75  CE         2.3590   11.8590  -51.5790 C.3   482  MET482      0.0692
     76  N          2.3040    6.9870  -54.9690 N.am  483  PHE483     -0.1976
     77  CA         1.4860    6.4420  -56.0450 C.3   483  PHE483      0.1639
     78  C          1.9350    5.0290  -56.3750 C.2   483  PHE483      0.2290
     79  O          1.1190    4.1490  -56.6550 O.2   483  PHE483     -0.2864
     80  CB         1.5770    7.3240  -57.2930 C.3   483  PHE483      0.0560
     81  CG         0.7440    8.5720  -57.2170 C.ar  483  PHE483     -0.0200
     82  CD1       -0.5700    8.5690  -57.6650 C.ar  483  PHE483     -0.0042
     83  CD2        1.2730    9.7480  -56.7010 C.ar  483  PHE483     -0.0042
     84  CE1       -1.3430    9.7140  -57.5980 C.ar  483  PHE483     -0.0003
     85  CE2        0.5040   10.8930  -56.6280 C.ar  483  PHE483     -0.0003
     86  CZ        -0.8040   10.8770  -57.0770 C.ar  483  PHE483     -0.0000
     87  N          0.9100    2.4950  -53.3790 N.3   486  VAL486     -0.1231
     88  CA        -0.5140    2.1690  -53.3710 C.3   486  VAL486      0.1692
     89  C         -0.8490    1.1820  -54.4800 C.2   486  VAL486      0.2591
     90  O         -1.7080    0.3190  -54.3150 O.2   486  VAL486     -0.2718
     91  CB        -1.4090    3.4310  -53.5180 C.3   486  VAL486      0.0266
     92  CG1       -2.8660    3.0380  -53.6610 C.3   486  VAL486      0.0020
     93  CG2       -1.2430    4.3560  -52.3260 C.3   486  VAL486      0.0020
     94  N         -0.1680    1.3150  -55.6130 N.am  487  LYS487     -0.1980
     95  CA        -0.4040    0.4420  -56.7550 C.3   487  LYS487      0.1596
     96  C          0.0360   -0.9880  -56.4230 C.2   487  LYS487      0.2287
     97  O         -0.6790   -1.9530  -56.7010 O.2   487  LYS487     -0.2864
     98  CB         0.3530    0.9690  -57.9730 C.3   487  LYS487      0.0298
     99  CG        -0.3540    0.7530  -59.2970 C.3   487  LYS487      0.0038
    100  CD        -0.0870   -0.6270  -59.8590 C.3   487  LYS487      0.0206
    101  CE        -1.0470   -0.9350  -60.9920 C.3   487  LYS487      0.1093
    102  NZ        -2.4600   -0.8730  -60.5190 N.3   487  LYS487     -0.1314
    103  N         -2.1860   -2.6340  -53.8280 N.3   490  SER490     -0.1217
    104  CA        -3.4600   -2.9690  -54.4490 C.3   490  SER490      0.1889
    105  C         -3.3600   -4.2750  -55.2220 C.2   490  SER490      0.2288
    106  O         -4.3480   -4.9910  -55.3770 O.2   490  SER490     -0.2866
    107  CB        -3.9270   -1.8440  -55.3680 C.3   490  SER490      0.2089
    108  OG        -4.3120   -0.7110  -54.6120 O.3   490  SER490     -0.2183
@<TRIPOS>BOND
     1    40    39    2
     2    39    38    1
     3    38    41    1
     4    38    37    1
     5    33    32    2
     6    41    42    1
     7    37    32   am
     8    32    31    1
     9   101   102    1
    10   101   100    1
    11    31    30    1
    12    31    34    1
    13    42    44    1
    14    42    43    1
    15    30    36    1
    16   100    99    1
    17    99    98    1
    18    34    35    1
    19    36    35    1
    20    98    95    1
    21    53    51   ar
    22    53    55   ar
    23    51    50   ar
    24    82    84   ar
    25    82    81   ar
    26    84    86   ar
    27    55    54   ar
    28    50    49    1
    29    50    52   ar
    30    49    46    1
    31    80    81    1
    32    80    77    1
    33    81    83   ar
    34    54    52   ar
    35    86    85   ar
    36    95    96    1
    37    95    94    1
    38    97    96    2
    39    83    85   ar
    40    65    66    1
    41    65    64    1
    42    79    78    2
    43    48    47    2
    44    78    77    1
    45    67    66    2
    46    47    46    1
    47    46    45    1
    48    77    76    1
    49    64    58   am
    50    94    89   am
    51   106   105    2
    52   107   108    1
    53   107   104    1
    54   105   104    1
    55    62    60    1
    56    76    70   am
    57    58    59    2
    58    58    57    1
    59    60    57    1
    60    60    61    1
    61    89    90    2
    62    89    88    1
    63   104   103    1
    64    63    61    1
    65    11    10   ar
    66    11     9   ar
    67    57    56    1
    68    10     8   ar
    69    70    71    2
    70    70    69    1
    71    92    91    1
    72    91    88    1
    73    91    93    1
    74    87    88    1
    75     9     7   ar
    76    68    69    1
    77    69    72    1
    78     8     6   ar
    79    72    73    1
    80     7     6   ar
    81     6     5    1
    82    75    74    1
    83    73    74    1
    84     5     2    1
    85    27    29   ar
    86    27    25   ar
    87    29    28   ar
    88    17    16    1
    89     1     2    1
    90     2     3    1
    91    25    24   ar
    92    18    16    1
    93    16    13    1
    94    28    26   ar
    95    24    26   ar
    96    24    23    1
    97     3     4    2
    98    23    20    1
    99    13    14    1
   100    13    12    1
   101    14    15    2
   102    20    19    1
   103    20    21    1
   104    21    22    2
