@<TRIPOS>MOLECULE
tmp/4c7rB04.pdb
 90 83 0 0 0
SMALL
GASTEIGER

@<TRIPOS>ATOM
      1  N        -19.1180   15.5290  -62.5400 N.3    89  MET89      -0.1245
      2  CA       -20.4220   16.1630  -62.3800 C.3    89  MET89       0.1570
      3  C        -20.5580   16.8240  -61.0110 C.2    89  MET89       0.2261
      4  O        -21.3990   17.7020  -60.8190 O.2    89  MET89      -0.2867
      5  CB       -21.5510   15.1570  -62.6170 C.3    89  MET89       0.0387
      6  CG       -21.8080   14.8570  -64.0870 C.3    89  MET89       0.0595
      7  SD       -22.9940   13.5210  -64.3370 S.3    89  MET89      -0.1393
      8  CE       -23.1750   13.5640  -66.1180 C.3    89  MET89       0.0692
      9  N        -19.3370   20.7660  -61.5700 N.3    92  ALA92      -0.1231
     10  CA       -20.3950   21.7020  -61.9240 C.3    92  ALA92       0.1694
     11  C        -21.3230   21.8660  -60.7260 C.2    92  ALA92       0.2591
     12  O        -22.0930   22.8250  -60.6400 O.2    92  ALA92      -0.2718
     13  CB       -21.1620   21.2050  -63.1350 C.3    92  ALA92       0.0304
     14  N        -21.2440   20.9100  -59.8050 N.am   93  ALA93      -0.1980
     15  CA       -21.9560   20.9950  -58.5400 C.3    93  ALA93       0.1597
     16  C        -21.3280   22.0810  -57.6740 C.2    93  ALA93       0.2287
     17  O        -22.0300   22.9160  -57.1110 O.2    93  ALA93      -0.2864
     18  CB       -21.9220   19.6590  -57.8250 C.3    93  ALA93       0.0319
     19  N        -29.1110   21.7220  -71.7360 N.3   247  ILE247     -0.1231
     20  CA       -28.7050   22.1140  -70.3910 C.3   247  ILE247      0.1692
     21  C        -27.3210   21.5830  -70.0160 C.2   247  ILE247      0.2591
     22  O        -26.5990   22.2140  -69.2440 O.2   247  ILE247     -0.2718
     23  CB       -29.7370   21.6530  -69.3380 C.3   247  ILE247      0.0266
     24  CG1      -29.1740   21.8190  -67.9240 C.3   247  ILE247      0.0019
     25  CG2      -30.1420   20.2070  -69.5840 C.3   247  ILE247      0.0020
     26  CD1      -30.0970   21.3210  -66.8360 C.3   247  ILE247      0.0001
     27  N        -26.9470   20.4310  -70.5650 N.am  248  GLN248     -0.1979
     28  CA       -25.6660   19.8260  -70.2130 C.3   248  GLN248      0.1601
     29  C        -24.5220   20.2050  -71.1520 C.2   248  GLN248      0.2287
     30  O        -23.3960   19.7400  -70.9760 O.2   248  GLN248     -0.2864
     31  CB       -25.7680   18.3040  -70.0930 C.3   248  GLN248      0.0394
     32  CG       -24.6530   17.7040  -69.2410 C.3   248  GLN248      0.0908
     33  CD       -24.5430   16.1990  -69.3740 C.2   248  GLN248      0.2608
     34  OE1      -23.6090   15.5870  -68.8530 O.2   248  GLN248     -0.2717
     35  NE2      -25.4920   15.5940  -70.0800 N.am  248  GLN248     -0.0878
     36  N        -23.3060   23.4200  -68.9990 N.3   251  SER251     -0.1217
     37  CA       -22.3820   23.0040  -67.9500 C.3   251  SER251      0.1889
     38  C        -20.9750   22.8890  -68.5180 C.2   251  SER251      0.2288
     39  O        -20.0120   23.3690  -67.9200 O.2   251  SER251     -0.2866
     40  CB       -22.8130   21.6720  -67.3300 C.3   251  SER251      0.2089
     41  OG       -23.9220   21.8430  -66.4640 O.3   251  SER251     -0.2183
     42  N        -33.0190   20.9760  -53.8340 N.3   325  PHE325     -0.1241
     43  CA       -32.4770   21.0270  -55.1860 C.3   325  PHE325      0.1605
     44  C        -31.1800   20.2230  -55.3140 C.2   325  PHE325      0.2264
     45  O        -31.1160   19.2530  -56.0690 O.2   325  PHE325     -0.2867
     46  CB       -32.2770   22.4890  -55.6120 C.3   325  PHE325      0.0534
     47  CG       -31.3780   22.6680  -56.8040 C.ar  325  PHE325     -0.0203
     48  CD1      -31.2680   21.6820  -57.7740 C.ar  325  PHE325     -0.0042
     49  CD2      -30.6530   23.8360  -56.9600 C.ar  325  PHE325     -0.0042
     50  CE1      -30.4380   21.8510  -58.8630 C.ar  325  PHE325     -0.0003
     51  CE2      -29.8260   24.0140  -58.0500 C.ar  325  PHE325     -0.0003
     52  CZ       -29.7180   23.0190  -59.0020 C.ar  325  PHE325     -0.0000
     53  N        -30.5570   16.4480  -56.9420 N.3   329  PHE329     -0.1241
     54  CA       -29.5600   16.3610  -58.0020 C.3   329  PHE329      0.1605
     55  C        -28.4800   15.3380  -57.6680 C.2   329  PHE329      0.2264
     56  O        -28.0290   14.5900  -58.5350 O.2   329  PHE329     -0.2867
     57  CB       -28.9140   17.7210  -58.2640 C.3   329  PHE329      0.0534
     58  CG       -27.6750   17.6430  -59.1130 C.ar  329  PHE329     -0.0203
     59  CD1      -27.7640   17.6690  -60.4960 C.ar  329  PHE329     -0.0042
     60  CD2      -26.4230   17.5290  -58.5260 C.ar  329  PHE329     -0.0042
     61  CE1      -26.6260   17.5890  -61.2800 C.ar  329  PHE329     -0.0003
     62  CE2      -25.2810   17.4480  -59.3040 C.ar  329  PHE329     -0.0003
     63  CZ       -25.3820   17.4780  -60.6820 C.ar  329  PHE329     -0.0000
     64  N        -27.6910   11.1980  -59.6770 N.3   333  ILE333     -0.1245
     65  CA       -26.4370   10.8390  -60.3340 C.3   333  ILE333      0.1561
     66  C        -25.6380    9.8440  -59.5020 C.2   333  ILE333      0.2260
     67  O        -24.5050    9.5060  -59.8460 O.2   333  ILE333     -0.2867
     68  CB       -25.5400   12.0730  -60.5850 C.3   333  ILE333      0.0252
     69  CG1      -24.9810   12.6010  -59.2590 C.3   333  ILE333      0.0019
     70  CG2      -26.3050   13.1580  -61.3370 C.3   333  ILE333      0.0019
     71  CD1      -23.8240   13.5570  -59.4130 C.3   333  ILE333      0.0001
     72  N        -28.2980   28.1130  -66.6010 N.3   412  THR412     -0.1203
     73  CA       -27.9570   26.7470  -66.2260 C.3   412  THR412      0.1994
     74  C        -28.6170   26.3550  -64.9110 C.2   412  THR412      0.2618
     75  O        -29.1680   25.2610  -64.7850 O.2   412  THR412     -0.2717
     76  CB       -26.4330   26.5590  -66.1020 C.3   412  THR412      0.1784
     77  OG1      -25.8900   26.1960  -67.3770 O.3   412  THR412     -0.2211
     78  CG2      -26.1060   25.4670  -65.0970 C.3   412  THR412      0.0376
     79  N        -28.5630   27.2520  -63.9330 N.am  413  SER413     -0.1951
     80  CA       -29.1230   26.9750  -62.6160 C.3   413  SER413      0.1924
     81  C        -30.6310   27.1810  -62.5930 C.2   413  SER413      0.2314
     82  O        -31.3300   26.5990  -61.7640 O.2   413  SER413     -0.2863
     83  CB       -28.4570   27.8450  -61.5490 C.3   413  SER413      0.2116
     84  OG       -28.7650   29.2120  -61.7490 O.3   413  SER413     -0.2180
     85  N        -32.1010   23.5990  -63.7490 N.3   416  SER416     -0.1217
     86  CA       -31.9690   22.5990  -62.6960 C.3   416  SER416      0.1889
     87  C        -32.9570   22.8080  -61.5530 C.2   416  SER416      0.2288
     88  O        -33.6670   21.8840  -61.1600 O.2   416  SER416     -0.2866
     89  CB       -30.5390   22.5930  -62.1570 C.3   416  SER416      0.2089
     90  OG       -29.5960   22.5780  -63.2140 O.3   416  SER416     -0.2183
@<TRIPOS>BOND
     1    19    20    1
     2    29    30    2
     3    29    28    1
     4    27    28    1
     5    27    21   am
     6    20    21    1
     7    20    23    1
     8    28    31    1
     9    31    32    1
    10    35    33   am
    11    21    22    2
    12    25    23    1
    13    33    32    1
    14    33    34    2
    15    23    24    1
    16    36    37    1
    17    38    37    1
    18    38    39    2
    19    37    40    1
    20    24    26    1
    21    77    76    1
    22    40    41    1
    23    72    73    1
    24    73    76    1
    25    73    74    1
    26     8     7    1
    27    76    78    1
    28    74    75    2
    29    74    79   am
    30     7     6    1
    31     6     5    1
    32    79    80    1
    33    85    86    1
    34    90    89    1
    35    13    10    1
    36    86    89    1
    37    86    87    1
    38     5     2    1
    39    80    81    1
    40    80    83    1
    41    81    82    2
    42     1     2    1
    43     2     3    1
    44    10     9    1
    45    10    11    1
    46    84    83    1
    47    87    88    2
    48    70    68    1
    49    61    63   ar
    50    61    59   ar
    51     3     4    2
    52    11    12    2
    53    11    14   am
    54    63    62   ar
    55    68    65    1
    56    68    69    1
    57    59    58   ar
    58    65    64    1
    59    65    66    1
    60    67    66    2
    61    14    15    1
    62    71    69    1
    63    62    60   ar
    64    58    60   ar
    65    58    57    1
    66    52    50   ar
    67    52    51   ar
    68    50    48   ar
    69    15    18    1
    70    15    16    1
    71    56    55    2
    72    57    54    1
    73    51    49   ar
    74    54    55    1
    75    54    53    1
    76    48    47   ar
    77    16    17    2
    78    49    47   ar
    79    47    46    1
    80    45    44    2
    81    46    43    1
    82    44    43    1
    83    43    42    1
