@<TRIPOS>MOLECULE
tmp/4c7rC05.pdb
 148 139 0 0 0
SMALL
GASTEIGER

@<TRIPOS>ATOM
      1  N         10.6690   -5.8250  -28.5070 N.3    84  VAL84      -0.1231
      2  CA        11.5070   -5.0380  -27.6100 C.3    84  VAL84       0.1692
      3  C         12.8660   -4.7070  -28.2380 C.2    84  VAL84       0.2592
      4  O         13.3940   -3.6110  -28.0560 O.2    84  VAL84      -0.2718
      5  CB        11.6840   -5.7370  -26.2360 C.3    84  VAL84       0.0266
      6  CG1       13.1540   -5.8250  -25.8470 C.3    84  VAL84       0.0020
      7  CG2       10.8730   -5.0130  -25.1630 C.3    84  VAL84       0.0020
      8  N         13.4300   -5.6500  -28.9820 N.am   85  SER85      -0.1952
      9  CA        14.7040   -5.4120  -29.6510 C.3    85  SER85       0.1924
     10  C         14.5110   -4.5100  -30.8660 C.2    85  SER85       0.2314
     11  O         15.4310   -3.8300  -31.3090 O.2    85  SER85      -0.2863
     12  CB        15.3510   -6.7370  -30.0670 C.3    85  SER85       0.2116
     13  OG        15.8440   -7.4350  -28.9370 O.3    85  SER85      -0.2180
     14  N         14.1390   -0.9540  -29.3220 N.3    88  SER88      -0.1202
     15  CA        15.4630   -0.4970  -28.9180 C.3    88  SER88       0.2020
     16  C         16.2910    0.0140  -30.0950 C.2    88  SER88       0.2618
     17  O         17.0510    0.9710  -29.9500 O.2    88  SER88      -0.2717
     18  CB        16.2210   -1.5970  -28.1720 C.3    88  SER88       0.2103
     19  OG        15.8000   -1.6720  -26.8200 O.3    88  SER88      -0.2182
     20  N         16.1430   -0.6150  -31.2570 N.am   89  MET89      -0.1979
     21  CA        16.9030   -0.2000  -32.4320 C.3    89  MET89       0.1605
     22  C         16.3300    1.0850  -33.0440 C.2    89  MET89       0.2287
     23  O         17.0320    1.8280  -33.7360 O.2    89  MET89      -0.2864
     24  CB        16.9750   -1.3320  -33.4640 C.3    89  MET89       0.0413
     25  CG        17.6080   -2.6170  -32.9210 C.3    89  MET89       0.0598
     26  SD        17.5520   -4.0510  -34.0310 S.3    89  MET89      -0.1393
     27  CE        18.8570   -3.6340  -35.1880 C.3    89  MET89       0.0692
     28  N         14.7410    3.4220  -31.0190 N.3    91  PHE91      -0.1227
     29  CA        15.1910    4.3850  -30.0230 C.3    91  PHE91       0.1736
     30  C         16.5480    4.9220  -30.4480 C.2    91  PHE91       0.2595
     31  O         16.7310    6.1250  -30.6060 O.2    91  PHE91      -0.2718
     32  CB        15.3280    3.7130  -28.6570 C.3    91  PHE91       0.0547
     33  CG        14.3200    4.1690  -27.6430 C.ar   91  PHE91      -0.0202
     34  CD1       13.0660    3.5810  -27.5760 C.ar   91  PHE91      -0.0042
     35  CD2       14.6330    5.1720  -26.7400 C.ar   91  PHE91      -0.0042
     36  CE1       12.1340    3.9940  -26.6340 C.ar   91  PHE91      -0.0003
     37  CE2       13.7060    5.5930  -25.7960 C.ar   91  PHE91      -0.0003
     38  CZ        12.4550    5.0020  -25.7440 C.ar   91  PHE91      -0.0000
     39  N         17.4970    4.0130  -30.6400 N.am   92  ALA92      -0.1980
     40  CA        18.8690    4.3820  -30.9690 C.3    92  ALA92       0.1597
     41  C         18.9700    5.0520  -32.3310 C.2    92  ALA92       0.2287
     42  O         19.9770    5.6850  -32.6460 O.2    92  ALA92      -0.2864
     43  CB        19.7710    3.1630  -30.9130 C.3    92  ALA92       0.0319
     44  N         18.3290    9.0690  -32.0820 N.3    95  MET95      -0.1245
     45  CA        19.4650    9.8940  -31.6850 C.3    95  MET95       0.1570
     46  C         20.3310   10.2740  -32.8790 C.2    95  MET95       0.2261
     47  O         19.9900    9.9840  -34.0240 O.2    95  MET95      -0.2867
     48  CB        20.3320    9.1610  -30.6710 C.3    95  MET95       0.0387
     49  CG        20.7970   10.0330  -29.5290 C.3    95  MET95       0.0595
     50  SD        19.4990   10.1250  -28.2940 S.3    95  MET95      -0.1393
     51  CE        19.0460    8.3960  -28.2350 C.3    95  MET95       0.0692
     52  N         27.5540   -1.6900  -34.4780 N.3   248  GLN248     -0.1245
     53  CA        26.9190   -2.2580  -33.2940 C.3   248  GLN248      0.1566
     54  C         27.6740   -1.9080  -32.0140 C.2   248  GLN248      0.2260
     55  O         27.0660   -1.7300  -30.9570 O.2   248  GLN248     -0.2867
     56  CB        26.7470   -3.7750  -33.4290 C.3   248  GLN248      0.0367
     57  CG        25.9070   -4.3930  -32.3180 C.3   248  GLN248      0.0905
     58  CD        25.4030   -5.7840  -32.6570 C.2   248  GLN248      0.2608
     59  OE1       25.8030   -6.3800  -33.6590 O.2   248  GLN248     -0.2717
     60  NE2       24.5150   -6.3090  -31.8180 N.am  248  GLN248     -0.0878
     61  N         27.3580    2.1220  -31.4530 N.3   251  SER251     -0.1202
     62  CA        26.0060    2.4030  -30.9890 C.3   251  SER251      0.2020
     63  C         25.9200    2.2270  -29.4770 C.2   251  SER251      0.2618
     64  O         25.2410    2.9920  -28.7920 O.2   251  SER251     -0.2717
     65  CB        24.9880    1.4970  -31.6810 C.3   251  SER251      0.2103
     66  OG        23.6750    1.7580  -31.2110 O.3   251  SER251     -0.2182
     67  N         26.6090    1.2120  -28.9620 N.am  252  ASN252     -0.1974
     68  CA        26.6820    0.9950  -27.5220 C.3   252  ASN252      0.1688
     69  C         27.2720    2.2100  -26.8250 C.2   252  ASN252      0.2292
     70  O         26.7160    2.7100  -25.8470 O.2   252  ASN252     -0.2864
     71  CB        27.5130   -0.2470  -27.1940 C.3   252  ASN252      0.1181
     72  CG        26.7710   -1.5400  -27.4700 C.2   252  ASN252      0.2629
     73  OD1       25.6720   -1.5390  -28.0310 O.2   252  ASN252     -0.2716
     74  ND2       27.3720   -2.6580  -27.0730 N.am  252  ASN252     -0.0877
     75  N         24.7660    5.1350  -27.1550 N.3   255  MET255     -0.1230
     76  CA        23.6360    5.0850  -26.2340 C.3   255  MET255      0.1702
     77  C         24.0660    5.2860  -24.7800 C.2   255  MET255      0.2592
     78  O         23.3230    5.8530  -23.9810 O.2   255  MET255     -0.2718
     79  CB        22.8590    3.7770  -26.3970 C.3   255  MET255      0.0401
     80  CG        22.1940    3.6200  -27.7600 C.3   255  MET255      0.0596
     81  SD        21.0500    4.9590  -28.1600 S.3   255  MET255     -0.1393
     82  CE        22.0380    5.9470  -29.2860 C.3   255  MET255      0.0692
     83  N         25.2650    4.8240  -24.4450 N.am  256  VAL256     -0.1980
     84  CA        25.8050    5.0070  -23.1010 C.3   256  VAL256      0.1595
     85  C         26.1600    6.4690  -22.8540 C.2   256  VAL256      0.2287
     86  O         25.7760    7.0490  -21.8370 O.2   256  VAL256     -0.2864
     87  CB        27.0510    4.1260  -22.8610 C.3   256  VAL256      0.0276
     88  CG1       27.8750    4.6620  -21.7030 C.3   256  VAL256      0.0022
     89  CG2       26.6430    2.6830  -22.6070 C.3   256  VAL256      0.0022
     90  N         25.1670    9.1420  -24.6870 N.3   258  ALA258     -0.1231
     91  CA        23.9480    9.9290  -24.8290 C.3   258  ALA258      0.1694
     92  C         23.1010    9.8840  -23.5640 C.2   258  ALA258      0.2591
     93  O         22.6010   10.9100  -23.1060 O.2   258  ALA258     -0.2718
     94  CB        23.1430    9.4460  -26.0170 C.3   258  ALA258      0.0304
     95  N         22.9370    8.6900  -23.0060 N.am  259  ALA259     -0.1980
     96  CA        22.1570    8.5180  -21.7860 C.3   259  ALA259      0.1597
     97  C         22.7430    9.3240  -20.6280 C.2   259  ALA259      0.2287
     98  O         22.0110    9.8270  -19.7730 O.2   259  ALA259     -0.2864
     99  CB        22.0660    7.0410  -21.4160 C.3   259  ALA259      0.0319
    100  N         21.9800   13.1420  -21.0560 N.3   262  ALA262     -0.1231
    101  CA        20.5640   13.3450  -20.7870 C.3   262  ALA262      0.1694
    102  C         20.2300   13.2490  -19.3010 C.2   262  ALA262      0.2591
    103  O         19.4670   14.0590  -18.7790 O.2   262  ALA262     -0.2718
    104  CB        19.7220   12.3650  -21.5920 C.3   262  ALA262      0.0304
    105  N         20.7890   12.2570  -18.6200 N.am  263  ILE263     -0.1980
    106  CA        20.4930   12.0770  -17.2010 C.3   263  ILE263      0.1595
    107  C         21.1960   13.1380  -16.3600 C.2   263  ILE263      0.2287
    108  O         20.6290   13.6540  -15.3980 O.2   263  ILE263     -0.2864
    109  CB        20.8500   10.6600  -16.7020 C.3   263  ILE263      0.0276
    110  CG1       19.6990    9.6940  -16.9780 C.3   263  ILE263      0.0022
    111  CG2       21.1220   10.6710  -15.2080 C.3   263  ILE263      0.0022
    112  CD1       19.1640    9.7590  -18.3850 C.3   263  ILE263      0.0001
    113  N         11.7260    9.7910  -28.0230 N.3   353  VAL353     -0.1245
    114  CA        13.1150   10.1690  -27.7990 C.3   353  VAL353      0.1561
    115  C         13.2680   11.6790  -27.9360 C.2   353  VAL353      0.2260
    116  O         13.6390   12.3640  -26.9850 O.2   353  VAL353     -0.2867
    117  CB        14.0720    9.4540  -28.7760 C.3   353  VAL353      0.0252
    118  CG1       15.5180    9.8290  -28.4750 C.3   353  VAL353      0.0019
    119  CG2       13.8840    7.9480  -28.6910 C.3   353  VAL353      0.0019
    120  N         11.5000   13.6620  -25.2470 N.3   356  VAL356     -0.1231
    121  CA        12.2350   13.6930  -23.9870 C.3   356  VAL356      0.1692
    122  C         13.5200   14.5080  -24.1060 C.2   356  VAL356      0.2592
    123  O         13.8450   15.2990  -23.2210 O.2   356  VAL356     -0.2718
    124  CB        12.5820   12.2650  -23.4910 C.3   356  VAL356      0.0266
    125  CG1       13.6770   12.3160  -22.4300 C.3   356  VAL356      0.0020
    126  CG2       11.3370   11.5620  -22.9630 C.3   356  VAL356      0.0020
    127  N         14.2450   14.3140  -25.2040 N.am  357  TRP357     -0.1976
    128  CA        15.5440   14.9540  -25.3930 C.3   357  TRP357      0.1640
    129  C         15.4370   16.4790  -25.4330 C.2   357  TRP357      0.2290
    130  O         16.2600   17.1790  -24.8480 O.2   357  TRP357     -0.2864
    131  CB        16.2320   14.4240  -26.6560 C.3   357  TRP357      0.0576
    132  CG        17.5890   15.0260  -26.9050 C.ar  357  TRP357      0.0006
    133  CD1       17.8610   16.1760  -27.5890 C.ar  357  TRP357      0.0946
    134  CD2       18.8580   14.5080  -26.4750 C.ar  357  TRP357      0.0152
    135  NE1       19.2140   16.4090  -27.6090 N.ar  357  TRP357     -0.2442
    136  CE2       19.8500   15.4020  -26.9340 C.ar  357  TRP357      0.0810
    137  CE3       19.2510   13.3810  -25.7460 C.ar  357  TRP357      0.0012
    138  CZ2       21.2100   15.2040  -26.6870 C.ar  357  TRP357      0.0191
    139  CZ3       20.6040   13.1860  -25.5020 C.ar  357  TRP357      0.0001
    140  CH2       21.5650   14.0930  -25.9700 C.ar  357  TRP357      0.0015
    141  N         14.5600   18.0780  -22.0570 N.3   360  ILE360     -0.1245
    142  CA        15.7090   18.1600  -21.1700 C.3   360  ILE360      0.1561
    143  C         16.6040   19.3370  -21.5380 C.2   360  ILE360      0.2260
    144  O         16.8750   20.1990  -20.7040 O.2   360  ILE360     -0.2867
    145  CB        16.5310   16.8570  -21.1690 C.3   360  ILE360      0.0252
    146  CG1       15.7460   15.7340  -20.4870 C.3   360  ILE360      0.0019
    147  CG2       17.8660   17.0630  -20.4610 C.3   360  ILE360      0.0019
    148  CD1       16.4810   14.3950  -20.4700 C.3   360  ILE360      0.0001
@<TRIPOS>BOND
     1    27    26    1
     2    52    53    1
     3    26    25    1
     4    47    46    2
     5    23    22    2
     6    59    58    2
     7    24    25    1
     8    24    21    1
     9    56    53    1
    10    56    57    1
    11    53    54    1
    12    22    21    1
    13    46    45    1
    14    58    57    1
    15    58    60   am
    16    42    41    2
    17    21    20    1
    18    41    40    1
    19    44    45    1
    20    54    55    2
    21    45    48    1
    22    65    66    1
    23    65    62    1
    24    61    62    1
    25    11    10    2
    26    20    16   am
    27    28    29    1
    28    62    63    1
    29    40    43    1
    30    40    39    1
    31    10     9    1
    32    48    49    1
    33    39    30   am
    34    31    30    2
    35    30    29    1
    36    16    17    2
    37    16    15    1
    38    12     9    1
    39    12    13    1
    40    29    32    1
    41     9     8    1
    42    49    50    1
    43    63    67   am
    44    63    64    2
    45    14    15    1
    46    82    81    1
    47     8     3   am
    48    67    68    1
    49    15    18    1
    50   117   119    1
    51   117   118    1
    52   117   114    1
    53    32    33    1
    54     1     2    1
    55    50    51    1
    56     3     4    2
    57     3     2    1
    58    18    19    1
    59    81    80    1
    60    73    72    2
    61   113   114    1
    62   115   114    1
    63   115   116    2
    64    80    79    1
    65    33    34   ar
    66    33    35   ar
    67     2     5    1
    68   135   133   ar
    69   135   136   ar
    70   133   132   ar
    71    34    36   ar
    72    68    71    1
    73    68    69    1
    74    72    71    1
    75    72    74   am
    76    75    76    1
    77   136   138   ar
    78   136   134   ar
    79   132   131    1
    80   132   134   ar
    81    69    70    2
    82    35    37   ar
    83   138   140   ar
    84   131   128    1
    85    36    38   ar
    86   134   137   ar
    87    79    76    1
    88     5     6    1
    89     5     7    1
    90    76    77    1
    91    94    91    1
    92   140   139   ar
    93    37    38   ar
    94   137   139   ar
    95   129   128    1
    96   129   130    2
    97   128   127    1
    98   120   121    1
    99   127   122   am
   100    91    90    1
   101    91    92    1
   102    77    83   am
   103    77    78    2
   104    83    84    1
   105   122   121    1
   106   122   123    2
   107   121   124    1
   108    92    93    2
   109    92    95   am
   110   124   126    1
   111   124   125    1
   112    84    87    1
   113    84    85    1
   114    95    96    1
   115    87    89    1
   116    87    88    1
   117    85    86    2
   118   141   142    1
   119    96    99    1
   120    96    97    1
   121   104   101    1
   122   143   142    1
   123   143   144    2
   124   142   145    1
   125   145   146    1
   126   145   147    1
   127   100   101    1
   128   101   102    1
   129    97    98    2
   130   146   148    1
   131   102   103    2
   132   102   105   am
   133   105   106    1
   134   112   110    1
   135   106   109    1
   136   106   107    1
   137   110   109    1
   138   109   111    1
   139   107   108    2
