@<TRIPOS>MOLECULE
tmp/4c7rA00.pdb
 157 158 0 0 0
SMALL
GASTEIGER

@<TRIPOS>ATOM
      1  N        -26.6140   11.0970  -11.4140 N.3    93  ALA93      -0.1231
      2  CA       -25.2730   10.9230  -10.8790 C.3    93  ALA93       0.1694
      3  C        -24.4440   12.1840  -11.0920 C.2    93  ALA93       0.2593
      4  O        -23.8550   12.7140  -10.1520 O.2    93  ALA93      -0.2718
      5  CB       -24.5940    9.7200  -11.5210 C.3    93  ALA93       0.0304
      6  N        -24.4170   12.6640  -12.3330 N.am   94  GLY94      -0.1942
      7  CA       -23.6120   13.8140  -12.7100 C.3    94  GLY94       0.2014
      8  C        -23.9080   15.0990  -11.9540 C.2    94  GLY94       0.2639
      9  O        -23.0770   16.0090  -11.9210 O.2    94  GLY94      -0.2714
     10  N        -25.0910   15.1820  -11.3540 N.am   95  MET95      -0.1963
     11  CA       -25.4550   16.3390  -10.5480 C.3    95  MET95       0.1736
     12  C        -25.0060   16.1520   -9.1030 C.2    95  MET95       0.2617
     13  O        -25.3230   15.1470   -8.4750 O.2    95  MET95      -0.2715
     14  CB       -26.9660   16.5800  -10.5980 C.3    95  MET95       0.0427
     15  CG       -27.4930   16.9840  -11.9660 C.3    95  MET95       0.0599
     16  SD       -28.6910   18.3340  -11.8750 S.3    95  MET95      -0.1393
     17  CE       -29.1810   18.4900  -13.5920 C.3    95  MET95       0.0692
     18  N        -24.2670   17.1210   -8.5770 N.am   96  GLY96      -0.1940
     19  CA       -23.8130   17.0520   -7.2010 C.3    96  GLY96       0.2014
     20  C        -23.7030   18.4120   -6.5430 C.2    96  GLY96       0.2639
     21  O        -24.1930   19.4110   -7.0730 O.2    96  GLY96      -0.2714
     22  N        -23.0640   18.4510   -5.3790 N.am   97  ILE97      -0.1963
     23  CA       -22.8050   19.7100   -4.6990 C.3    97  ILE97       0.1727
     24  C        -21.7900   20.5020   -5.5090 C.2    97  ILE97       0.2617
     25  O        -21.8400   21.7300   -5.5570 O.2    97  ILE97      -0.2715
     26  CB       -22.2890   19.4890   -3.2680 C.3    97  ILE97       0.0290
     27  CG1      -23.3440   18.7630   -2.4340 C.3    97  ILE97       0.0022
     28  CG2      -21.9480   20.8100   -2.6090 C.3    97  ILE97       0.0023
     29  CD1      -22.9160   18.5030   -1.0110 C.3    97  ILE97       0.0001
     30  N        -20.8760   19.7850   -6.1550 N.am   98  GLY98      -0.1940
     31  CA       -19.8980   20.3980   -7.0350 C.3    98  GLY98       0.2014
     32  C        -20.5470   21.3040   -8.0650 C.2    98  GLY98       0.2638
     33  O        -20.0820   22.4220   -8.2960 O.2    98  GLY98      -0.2714
     34  N        -21.6280   20.8320   -8.6800 N.am   99  LEU99      -0.1977
     35  CA       -22.3420   21.6330   -9.6720 C.3    99  LEU99       0.1596
     36  C        -23.0180   22.8500   -9.0480 C.2    99  LEU99       0.2287
     37  O        -22.9850   23.9390   -9.6160 O.2    99  LEU99      -0.2864
     38  CB       -23.3730   20.7960  -10.4310 C.3    99  LEU99       0.0297
     39  CG       -22.8770   19.6840  -11.3540 C.3    99  LEU99       0.0022
     40  CD1      -23.8910   19.4760  -12.4570 C.3    99  LEU99       0.0001
     41  CD2      -21.5190   20.0060  -11.9450 C.3    99  LEU99       0.0001
     42  N        -14.8530   19.4430  -15.8500 N.3   134  TRP134     -0.1241
     43  CA       -16.0970   18.7850  -15.4420 C.3   134  TRP134      0.1605
     44  C        -16.7000   17.7800  -16.4310 C.2   134  TRP134      0.2264
     45  O        -17.7970   17.2710  -16.1980 O.2   134  TRP134     -0.2867
     46  CB       -17.1580   19.8290  -15.0700 C.3   134  TRP134      0.0550
     47  CG       -16.8130   20.6360  -13.8550 C.ar  134  TRP134      0.0003
     48  CD1      -16.0320   21.7590  -13.8070 C.ar  134  TRP134      0.0946
     49  CD2      -17.2380   20.3850  -12.5090 C.ar  134  TRP134      0.0152
     50  NE1      -15.9430   22.2160  -12.5140 N.ar  134  TRP134     -0.2442
     51  CE2      -16.6740   21.3920  -11.6980 C.ar  134  TRP134      0.0810
     52  CE3      -18.0390   19.4070  -11.9120 C.ar  134  TRP134      0.0012
     53  CZ2      -16.8840   21.4460  -10.3230 C.ar  134  TRP134      0.0191
     54  CZ3      -18.2480   19.4620  -10.5450 C.ar  134  TRP134      0.0001
     55  CH2      -17.6730   20.4750   -9.7660 C.ar  134  TRP134      0.0015
     56  N        -14.7190   11.7920  -15.7450 N.3   139  TRP139     -0.1241
     57  CA       -15.5150   10.5950  -15.9970 C.3   139  TRP139      0.1605
     58  C        -14.7280    9.4740  -16.6820 C.2   139  TRP139      0.2264
     59  O        -15.1140    8.3070  -16.6230 O.2   139  TRP139     -0.2867
     60  CB       -16.7930   10.9490  -16.7590 C.3   139  TRP139      0.0550
     61  CG       -17.7380   11.7460  -15.9160 C.ar  139  TRP139      0.0003
     62  CD1      -17.8200   13.1080  -15.8360 C.ar  139  TRP139      0.0946
     63  CD2      -18.7190   11.2320  -15.0060 C.ar  139  TRP139      0.0152
     64  NE1      -18.7970   13.4710  -14.9400 N.ar  139  TRP139     -0.2442
     65  CE2      -19.3620   12.3390  -14.4150 C.ar  139  TRP139      0.0810
     66  CE3      -19.1200    9.9440  -14.6370 C.ar  139  TRP139      0.0012
     67  CZ2      -20.3830   12.1960  -13.4820 C.ar  139  TRP139      0.0191
     68  CZ3      -20.1330    9.8060  -13.7070 C.ar  139  TRP139      0.0001
     69  CH2      -20.7530   10.9240  -13.1410 C.ar  139  TRP139      0.0015
     70  N        -13.5760    7.8680  -13.6250 N.3   142  TYR142     -0.1241
     71  CA       -14.6760    7.0690  -13.0990 C.3   142  TYR142      0.1605
     72  C        -14.9140    5.8290  -13.9570 C.2   142  TYR142      0.2264
     73  O        -15.0560    4.7230  -13.4370 O.2   142  TYR142     -0.2867
     74  CB       -15.9590    7.8980  -12.9980 C.3   142  TYR142      0.0534
     75  CG       -15.8070    9.1600  -12.1790 C.ar  142  TYR142     -0.0201
     76  CD1      -14.8510    9.2480  -11.1750 C.ar  142  TYR142     -0.0009
     77  CD2      -16.6210   10.2640  -12.4080 C.ar  142  TYR142     -0.0009
     78  CE1      -14.7020   10.4000  -10.4280 C.ar  142  TYR142      0.0417
     79  CE2      -16.4820   11.4190  -11.6630 C.ar  142  TYR142      0.0417
     80  CZ       -15.5200   11.4800  -10.6740 C.ar  142  TYR142      0.1957
     81  OH       -15.3720   12.6230   -9.9240 O.3   142  TYR142     -0.2866
     82  N        -11.2100   14.3470   -8.1990 N.3   319  TRP319     -0.1241
     83  CA       -11.8460   13.2780   -8.9720 C.3   319  TRP319      0.1605
     84  C        -11.1970   11.9160   -8.7190 C.2   319  TRP319      0.2264
     85  O        -11.8790   10.8900   -8.7170 O.2   319  TRP319     -0.2867
     86  CB       -11.8120   13.5830  -10.4740 C.3   319  TRP319      0.0550
     87  CG       -12.2830   14.9570  -10.8690 C.ar  319  TRP319      0.0003
     88  CD1      -11.7790   15.7340  -11.8740 C.ar  319  TRP319      0.0946
     89  CD2      -13.3480   15.7120  -10.2740 C.ar  319  TRP319      0.0152
     90  NE1      -12.4650   16.9230  -11.9430 N.ar  319  TRP319     -0.2442
     91  CE2      -13.4320   16.9360  -10.9720 C.ar  319  TRP319      0.0810
     92  CE3      -14.2380   15.4730   -9.2210 C.ar  319  TRP319      0.0012
     93  CZ2      -14.3700   17.9170  -10.6500 C.ar  319  TRP319      0.0191
     94  CZ3      -15.1670   16.4490   -8.9020 C.ar  319  TRP319      0.0001
     95  CH2      -15.2260   17.6550   -9.6150 C.ar  319  TRP319      0.0015
     96  N        -12.2090   10.4530   -5.2920 N.3   322  TRP322     -0.1241
     97  CA       -13.6410   10.1710   -5.2280 C.3   322  TRP322      0.1605
     98  C        -14.0320    8.9900   -6.1230 C.2   322  TRP322      0.2264
     99  O        -15.1910    8.5670   -6.1440 O.2   322  TRP322     -0.2867
    100  CB       -14.4450   11.4190   -5.6120 C.3   322  TRP322      0.0550
    101  CG       -15.6990   11.5970   -4.8060 C.ar  322  TRP322      0.0003
    102  CD1      -16.2070   10.7310   -3.8800 C.ar  322  TRP322      0.0946
    103  CD2      -16.6010   12.7090   -4.8500 C.ar  322  TRP322      0.0152
    104  NE1      -17.3700   11.2340   -3.3460 N.ar  322  TRP322     -0.2442
    105  CE2      -17.6340   12.4480   -3.9250 C.ar  322  TRP322      0.0810
    106  CE3      -16.6370   13.8990   -5.5820 C.ar  322  TRP322      0.0012
    107  CZ2      -18.6890   13.3310   -3.7150 C.ar  322  TRP322      0.0191
    108  CZ3      -17.6840   14.7750   -5.3710 C.ar  322  TRP322      0.0001
    109  CH2      -18.6960   14.4860   -4.4470 C.ar  322  TRP322      0.0015
    110  N        -15.5280    5.4280   -4.9210 N.3   325  PHE325     -0.1227
    111  CA       -16.9690    5.5250   -4.7090 C.3   325  PHE325      0.1736
    112  C        -17.7630    5.5970   -6.0140 C.2   325  PHE325      0.2595
    113  O        -18.6790    4.8070   -6.2370 O.2   325  PHE325     -0.2718
    114  CB       -17.3110    6.7300   -3.8270 C.3   325  PHE325      0.0547
    115  CG       -18.6990    7.2600   -4.0460 C.ar  325  PHE325     -0.0202
    116  CD1      -19.8070    6.4670   -3.7890 C.ar  325  PHE325     -0.0042
    117  CD2      -18.8980    8.5490   -4.5150 C.ar  325  PHE325     -0.0042
    118  CE1      -21.0860    6.9470   -3.9970 C.ar  325  PHE325     -0.0003
    119  CE2      -20.1770    9.0380   -4.7220 C.ar  325  PHE325     -0.0003
    120  CZ       -21.2720    8.2350   -4.4630 C.ar  325  PHE325     -0.0000
    121  N        -17.4180    6.5550   -6.8670 N.am  326  VAL326     -0.1980
    122  CA       -18.1540    6.7740   -8.1080 C.3   326  VAL326      0.1595
    123  C        -18.0950    5.5440   -9.0170 C.2   326  VAL326      0.2287
    124  O        -19.1130    5.1120   -9.5610 O.2   326  VAL326     -0.2864
    125  CB       -17.6470    8.0320   -8.8610 C.3   326  VAL326      0.0276
    126  CG1      -18.4570    8.2690  -10.1300 C.3   326  VAL326      0.0022
    127  CG2      -17.7130    9.2480   -7.9570 C.3   326  VAL326      0.0022
    128  N        -20.2160    2.7470   -7.6540 N.3   329  PHE329     -0.1241
    129  CA       -21.6080    3.0750   -7.9440 C.3   329  PHE329      0.1605
    130  C        -21.9500    2.7670   -9.3960 C.2   329  PHE329      0.2264
    131  O        -23.0410    2.2810   -9.7020 O.2   329  PHE329     -0.2867
    132  CB       -21.8990    4.5490   -7.6730 C.3   329  PHE329      0.0534
    133  CG       -23.0530    5.0830   -8.4760 C.ar  329  PHE329     -0.0203
    134  CD1      -24.3560    4.9330   -8.0280 C.ar  329  PHE329     -0.0042
    135  CD2      -22.8360    5.7170   -9.6920 C.ar  329  PHE329     -0.0042
    136  CE1      -25.4200    5.4130   -8.7710 C.ar  329  PHE329     -0.0003
    137  CE2      -23.8950    6.2020  -10.4400 C.ar  329  PHE329     -0.0003
    138  CZ       -25.1900    6.0500   -9.9780 C.ar  329  PHE329     -0.0000
    139  N        -27.7010   12.5010    0.5700 N.3   412  THR412     -0.1203
    140  CA       -27.5770   11.5140   -0.4960 C.3   412  THR412      0.1994
    141  C        -26.1210   11.1340   -0.7210 C.2   412  THR412      0.2618
    142  O        -25.7890    9.9540   -0.8390 O.2   412  THR412     -0.2717
    143  CB       -28.1710   12.0320   -1.8180 C.3   412  THR412      0.1784
    144  OG1      -29.5720   12.2780   -1.6500 O.3   412  THR412     -0.2211
    145  CG2      -27.9740   11.0130   -2.9300 C.3   412  THR412      0.0376
    146  N        -25.2540   12.1400   -0.7800 N.am  413  SER413     -0.1951
    147  CA       -23.8320   11.9040   -0.9940 C.3   413  SER413      0.1924
    148  C        -23.2200   11.1120    0.1540 C.2   413  SER413      0.2314
    149  O        -22.4890   10.1490   -0.0690 O.2   413  SER413     -0.2863
    150  CB       -23.0830   13.2240   -1.1720 C.3   413  SER413      0.2116
    151  OG       -21.6960   12.9930   -1.3470 O.3   413  SER413     -0.2180
    152  N        -24.5690    7.3860   -0.0210 N.3   416  SER416     -0.1217
    153  CA       -23.9350    6.6330   -1.0960 C.3   416  SER416      0.1889
    154  C        -22.4760    6.3300   -0.7720 C.2   416  SER416      0.2288
    155  O        -22.0400    5.1840   -0.8530 O.2   416  SER416     -0.2866
    156  CB       -24.0390    7.3940   -2.4180 C.3   416  SER416      0.2089
    157  OG       -25.3930    7.5760   -2.7940 O.3   416  SER416     -0.2183
@<TRIPOS>BOND
     1    60    57    1
     2    60    61    1
     3    58    59    2
     4    58    57    1
     5    44    45    2
     6    44    43    1
     7    57    56    1
     8    61    62   ar
     9    61    63   ar
    10    42    43    1
    11    62    64   ar
    12    43    46    1
    13    46    47    1
    14    63    66   ar
    15    63    65   ar
    16    64    65   ar
    17    66    68   ar
    18    65    67   ar
    19    72    73    2
    20    72    71    1
    21    47    48   ar
    22    47    49   ar
    23    48    50   ar
    24    68    69   ar
    25    70    71    1
    26    17    16    1
    27    67    69   ar
    28    71    74    1
    29    74    75    1
    30     7     6    1
    31     7     8    1
    32    50    51   ar
    33    49    52   ar
    34    49    51   ar
    35    40    39    1
    36    77    75   ar
    37    77    79   ar
    38     6     3   am
    39    75    76   ar
    40    15    16    1
    41    15    14    1
    42     8     9    2
    43     8    10   am
    44    41    39    1
    45    90    88   ar
    46    90    91   ar
    47    52    54   ar
    48    88    87   ar
    49    51    53   ar
    50    79    80   ar
    51     5     2    1
    52     1     2    1
    53    39    38    1
    54    10    11    1
    55    76    78   ar
    56     3     2    1
    57     3     4    2
    58    91    93   ar
    59    91    89   ar
    60    87    86    1
    61    87    89   ar
    62    80    78   ar
    63    80    81    1
    64    93    95   ar
    65    14    11    1
    66    11    12    1
    67    54    55   ar
    68    86    83    1
    69   137   138   ar
    70   137   135   ar
    71    38    35    1
    72    53    55   ar
    73    89    92   ar
    74   126   125    1
    75   138   136   ar
    76   131   130    2
    77   135   133   ar
    78    35    36    1
    79    35    34    1
    80    37    36    2
    81    95    94   ar
    82   124   123    2
    83   130   129    1
    84    92    94   ar
    85    12    18   am
    86    12    13    2
    87   123   122    1
    88    83    84    1
    89    83    82    1
    90   125   122    1
    91   125   127    1
    92   136   134   ar
    93    84    85    2
    94    34    32   am
    95    18    19    1
    96   133   134   ar
    97   133   132    1
    98    33    32    2
    99   122   121    1
   100    32    31    1
   101   129   132    1
   102   129   128    1
   103    19    20    1
   104    21    20    2
   105    31    30    1
   106   121   112   am
   107    20    22   am
   108   113   112    2
   109    30    24   am
   110    99    98    2
   111    98    97    1
   112   112   111    1
   113   100    97    1
   114   100   101    1
   115   106   108   ar
   116   106   103   ar
   117    25    24    2
   118    24    23    1
   119    22    23    1
   120   108   109   ar
   121    96    97    1
   122   110   111    1
   123   103   101   ar
   124   103   105   ar
   125   101   102   ar
   126   119   117   ar
   127   119   120   ar
   128   111   114    1
   129    23    26    1
   130   117   115   ar
   131   120   118   ar
   132   109   107   ar
   133   115   114    1
   134   115   116   ar
   135   118   116   ar
   136   105   107   ar
   137   105   104   ar
   138   102   104   ar
   139    26    28    1
   140    26    27    1
   141   145   143    1
   142   157   156    1
   143    27    29    1
   144   156   153    1
   145   143   144    1
   146   143   140    1
   147   151   150    1
   148   150   147    1
   149   153   154    1
   150   153   152    1
   151   147   146    1
   152   147   148    1
   153   155   154    2
   154   142   141    2
   155   146   141   am
   156   141   140    1
   157   140   139    1
   158   149   148    2
