@<TRIPOS>MOLECULE
tmp/4c7rA01.pdb
 113 106 0 0 0
SMALL
GASTEIGER

@<TRIPOS>ATOM
      1  N         -7.5120    9.1050  -23.1660 N.3    57  PHE57      -0.1241
      2  CA        -7.1390    8.3050  -24.3310 C.3    57  PHE57       0.1605
      3  C         -7.3630    6.8230  -24.0540 C.2    57  PHE57       0.2264
      4  O         -8.1000    6.1460  -24.7700 O.2    57  PHE57      -0.2867
      5  CB        -5.6690    8.5320  -24.6980 C.3    57  PHE57       0.0534
      6  CG        -5.4380    9.7010  -25.6150 C.ar   57  PHE57      -0.0203
      7  CD1       -5.5600   11.0040  -25.1510 C.ar   57  PHE57      -0.0042
      8  CD2       -5.0790    9.4980  -26.9380 C.ar   57  PHE57      -0.0042
      9  CE1       -5.3440   12.0820  -25.9940 C.ar   57  PHE57      -0.0003
     10  CE2       -4.8570   10.5740  -27.7860 C.ar   57  PHE57      -0.0003
     11  CZ        -4.9910   11.8670  -27.3100 C.ar   57  PHE57      -0.0000
     12  N        -10.8910    5.6190  -24.1450 N.3    60  VAL60      -0.1245
     13  CA       -11.4590    5.7430  -25.4850 C.3    60  VAL60       0.1561
     14  C        -10.9370    4.6300  -26.3950 C.2    60  VAL60       0.2260
     15  O        -11.6680    4.1120  -27.2430 O.2    60  VAL60      -0.2867
     16  CB       -11.1690    7.1300  -26.1060 C.3    60  VAL60       0.0252
     17  CG1      -11.3410    7.0960  -27.6200 C.3    60  VAL60       0.0019
     18  CG2      -12.0680    8.1930  -25.4840 C.3    60  VAL60       0.0019
     19  N        -12.6960    1.2640  -25.4060 N.3    63  ALA63      -0.1231
     20  CA       -14.0370    1.2110  -25.9710 C.3    63  ALA63       0.1694
     21  C        -14.0070    0.9180  -27.4680 C.2    63  ALA63       0.2592
     22  O        -14.8650    0.2110  -27.9870 O.2    63  ALA63      -0.2718
     23  CB       -14.7820    2.5100  -25.6950 C.3    63  ALA63       0.0304
     24  N        -13.0180    1.4690  -28.1600 N.am   64  ALA64      -0.1966
     25  CA       -12.9160    1.2950  -29.6050 C.3    64  ALA64       0.1728
     26  C        -12.4100   -0.0980  -29.9630 C.2    64  ALA64       0.2617
     27  O        -12.7510   -0.6430  -31.0110 O.2    64  ALA64      -0.2715
     28  CB       -12.0070    2.3650  -30.2070 C.3    64  ALA64       0.0334
     29  N        -11.5930   -0.6610  -29.0800 N.am   65  SER65      -0.1936
     30  CA       -10.9880   -1.9700  -29.2900 C.3    65  SER65       0.2055
     31  C        -12.0240   -3.0870  -29.2270 C.2    65  SER65       0.2642
     32  O        -13.1830   -2.8550  -28.8810 O.2    65  SER65      -0.2714
     33  CB        -9.9100   -2.2200  -28.2360 C.3    65  SER65       0.2130
     34  OG       -10.4870   -2.5620  -26.9860 O.3    65  SER65      -0.2179
     35  N        -11.5910   -4.3030  -29.5530 N.am   66  LYS66      -0.1977
     36  CA       -12.4690   -5.4650  -29.5190 C.3    66  LYS66       0.1596
     37  C        -12.9340   -5.7350  -28.0890 C.2    66  LYS66       0.2287
     38  O        -14.0260   -6.2650  -27.8790 O.2    66  LYS66      -0.2864
     39  CB       -11.7590   -6.6910  -30.1070 C.3    66  LYS66       0.0298
     40  CG       -12.6810   -7.7270  -30.7650 C.3    66  LYS66       0.0038
     41  CD       -13.5590   -8.4600  -29.7530 C.3    66  LYS66       0.0206
     42  CE       -14.4260   -9.5160  -30.4260 C.3    66  LYS66       0.1093
     43  NZ       -15.2140   -8.9540  -31.5630 N.3    66  LYS66      -0.1314
     44  N        -15.0880   15.0610  -19.7780 N.3   136  LEU136     -0.1245
     45  CA       -14.3830   13.8220  -20.0890 C.3   136  LEU136      0.1561
     46  C        -13.3390   13.4430  -19.0410 C.2   136  LEU136      0.2260
     47  O        -13.2500   12.2840  -18.6400 O.2   136  LEU136     -0.2867
     48  CB       -13.7190   13.9080  -21.4700 C.3   136  LEU136      0.0270
     49  CG       -14.6130   14.1860  -22.6810 C.3   136  LEU136      0.0019
     50  CD1      -13.8340   14.0230  -23.9700 C.3   136  LEU136      0.0001
     51  CD2      -15.8180   13.2720  -22.6850 C.3   136  LEU136      0.0001
     52  N        -13.8240   21.4090  -27.5750 N.3   286  LEU286     -0.1245
     53  CA       -13.0890   20.6450  -28.5720 C.3   286  LEU286      0.1561
     54  C        -11.9040   21.4500  -29.0910 C.2   286  LEU286      0.2260
     55  O        -10.8080   20.9240  -29.2530 O.2   286  LEU286     -0.2867
     56  CB       -14.0130   20.2040  -29.7090 C.3   286  LEU286      0.0270
     57  CG       -14.9730   19.0720  -29.3220 C.3   286  LEU286      0.0019
     58  CD1      -15.9600   18.7670  -30.4370 C.3   286  LEU286      0.0001
     59  CD2      -14.1950   17.8230  -28.9400 C.3   286  LEU286      0.0001
     60  N         -6.5190   20.2000  -26.1990 N.3   290  PHE290     -0.1241
     61  CA        -5.0990   19.8920  -26.0840 C.3   290  PHE290      0.1605
     62  C         -4.2780   21.0600  -25.5460 C.2   290  PHE290      0.2264
     63  O         -3.3280   20.8550  -24.7910 O.2   290  PHE290     -0.2867
     64  CB        -4.5340   19.3990  -27.4170 C.3   290  PHE290      0.0534
     65  CG        -5.0100   18.0300  -27.7960 C.ar  290  PHE290     -0.0203
     66  CD1       -4.7330   16.9420  -26.9840 C.ar  290  PHE290     -0.0042
     67  CD2       -5.7360   17.8290  -28.9560 C.ar  290  PHE290     -0.0042
     68  CE1       -5.1710   15.6840  -27.3200 C.ar  290  PHE290     -0.0003
     69  CE2       -6.1770   16.5670  -29.2970 C.ar  290  PHE290     -0.0003
     70  CZ        -5.8930   15.4950  -28.4760 C.ar  290  PHE290     -0.0000
     71  N        -18.0240   -1.2710  -24.0860 N.3   340  ARG340     -0.1245
     72  CA       -18.2150   -0.1110  -24.9490 C.3   340  ARG340      0.1563
     73  C        -19.4490    0.7010  -24.5580 C.2   340  ARG340      0.2260
     74  O        -19.3790    1.9240  -24.4010 O.2   340  ARG340     -0.2867
     75  CB       -18.3300   -0.5550  -26.4080 C.3   340  ARG340      0.0307
     76  CG       -18.6770    0.5630  -27.3790 C.3   340  ARG340      0.0489
     77  CD       -18.5960    0.0740  -28.8120 C.3   340  ARG340      0.2205
     78  NE       -17.3120   -0.5660  -29.0760 N.pl3 340  ARG340     -0.0865
     79  CZ       -17.1390   -1.5940  -29.8990 C.cat 340  ARG340      0.5346
     80  NH1      -18.1740   -2.1090  -30.5530 N.pl3 340  ARG340      0.1354
     81  NH2      -15.9300   -2.1090  -30.0640 N.pl3 340  ARG340      0.1354
     82  N        -18.6650    2.5760  -21.2880 N.3   343  ILE343     -0.1231
     83  CA       -17.7530    3.7000  -21.4690 C.3   343  ILE343      0.1692
     84  C        -18.4290    4.8630  -22.1900 C.2   343  ILE343      0.2591
     85  O        -18.2300    6.0230  -21.8360 O.2   343  ILE343     -0.2718
     86  CB       -16.4920    3.2950  -22.2550 C.3   343  ILE343      0.0266
     87  CG1      -15.6370    2.3230  -21.4430 C.3   343  ILE343      0.0019
     88  CG2      -15.6740    4.5230  -22.6110 C.3   343  ILE343      0.0020
     89  CD1      -14.3180    1.9860  -22.1040 C.3   343  ILE343      0.0001
     90  N        -19.2280    4.5420  -23.2020 N.am  344  LEU344     -0.1980
     91  CA       -19.8960    5.5540  -24.0090 C.3   344  LEU344      0.1596
     92  C        -20.9730    6.2880  -23.2190 C.2   344  LEU344      0.2287
     93  O        -21.3410    7.4110  -23.5580 O.2   344  LEU344     -0.2864
     94  CB       -20.5100    4.9170  -25.2550 C.3   344  LEU344      0.0297
     95  CG       -20.0640    5.4800  -26.6020 C.3   344  LEU344      0.0022
     96  CD1      -18.5590    5.6830  -26.6120 C.3   344  LEU344      0.0001
     97  CD2      -20.4970    4.5620  -27.7380 C.3   344  LEU344      0.0001
     98  N        -19.1450    8.5410  -20.1660 N.3   347  LEU347     -0.1231
     99  CA       -18.5710    9.7430  -20.7580 C.3   347  LEU347      0.1693
    100  C        -19.6490   10.7100  -21.2400 C.2   347  LEU347      0.2591
    101  O        -19.7670   11.8230  -20.7320 O.2   347  LEU347     -0.2718
    102  CB       -17.6520    9.3690  -21.9240 C.3   347  LEU347      0.0284
    103  CG       -16.1360    9.4230  -21.7130 C.3   347  LEU347      0.0019
    104  CD1      -15.7350    8.9430  -20.3260 C.3   347  LEU347      0.0001
    105  CD2      -15.4170    8.6230  -22.7930 C.3   347  LEU347      0.0001
    106  N        -20.4440   10.2700  -22.2090 N.am  348  LEU348     -0.1980
    107  CA       -21.3660   11.1540  -22.9200 C.3   348  LEU348      0.1596
    108  C        -22.5230   11.7380  -22.1010 C.2   348  LEU348      0.2287
    109  O        -22.9560   12.8600  -22.3630 O.2   348  LEU348     -0.2864
    110  CB       -21.9110   10.4680  -24.1790 C.3   348  LEU348      0.0297
    111  CG       -20.9150   10.2800  -25.3290 C.3   348  LEU348      0.0022
    112  CD1      -21.6010    9.6850  -26.5500 C.3   348  LEU348      0.0001
    113  CD2      -20.2480   11.6010  -25.6880 C.3   348  LEU348      0.0001
@<TRIPOS>BOND
     1    43    42    1
     2    27    26    2
     3    40    39    1
     4    40    41    1
     5    80    79    1
     6    58    57    1
     7    42    41    1
     8    28    25    1
     9    39    36    1
    10    81    79    1
    11    26    25    1
    12    26    29   am
    13    79    78    2
    14    56    57    1
    15    56    53    1
    16    25    24    1
    17    35    36    1
    18    35    31   am
    19    36    37    1
    20    57    59    1
    21    69    67   ar
    22    69    70   ar
    23    30    31    1
    24    30    29    1
    25    30    33    1
    26    55    54    2
    27    31    32    2
    28    54    53    1
    29    78    77    1
    30    67    65   ar
    31    77    76    1
    32    53    52    1
    33    70    68   ar
    34    33    34    1
    35    24    21   am
    36    37    38    2
    37    22    21    2
    38    65    64    1
    39    65    66   ar
    40    10    11   ar
    41    10     8   ar
    42    97    95    1
    43    17    16    1
    44    21    20    1
    45    64    61    1
    46    76    75    1
    47    68    66   ar
    48    11     9   ar
    49    15    14    2
    50     8     6   ar
    51    96    95    1
    52    95    94    1
    53   112   111    1
    54    75    72    1
    55    14    13    1
    56    60    61    1
    57    16    13    1
    58    16    18    1
    59    61    62    1
    60     9     7   ar
    61    20    23    1
    62    20    19    1
    63   113   111    1
    64     6     7   ar
    65     6     5    1
    66    62    63    2
    67    13    12    1
    68   111   110    1
    69    94    91    1
    70    72    73    1
    71    72    71    1
    72     4     3    2
    73     5     2    1
    74    73    74    2
    75     2     3    1
    76     2     1    1
    77   110   107    1
    78    91    92    1
    79    91    90    1
    80    50    49    1
    81    93    92    2
    82    90    84   am
    83   107   106    1
    84   107   108    1
    85   105   103    1
    86    51    49    1
    87    49    48    1
    88    88    86    1
    89   109   108    2
    90    86    83    1
    91    86    87    1
    92   106   100   am
    93    84    85    2
    94    84    83    1
    95    89    87    1
    96   102   103    1
    97   102    99    1
    98   103   104    1
    99    48    45    1
   100    83    82    1
   101   100    99    1
   102   100   101    2
   103    99    98    1
   104    45    44    1
   105    45    46    1
   106    46    47    2
