@<TRIPOS>MOLECULE
tmp/4c7rA05.pdb
 85 82 0 0 0
SMALL
GASTEIGER

@<TRIPOS>ATOM
      1  N          1.3090   22.1960    7.8730 N.3    32  PHE32      -0.1241
      2  CA         1.6000   20.9420    7.1850 C.3    32  PHE32       0.1605
      3  C          0.7810   20.8160    5.9060 C.2    32  PHE32       0.2264
      4  O          1.3030   20.4330    4.8620 O.2    32  PHE32      -0.2867
      5  CB         1.3250   19.7510    8.1050 C.3    32  PHE32       0.0534
      6  CG         1.3730   18.4170    7.4060 C.ar   32  PHE32      -0.0203
      7  CD1        2.5670   17.7250    7.2820 C.ar   32  PHE32      -0.0042
      8  CD2        0.2210   17.8520    6.8800 C.ar   32  PHE32      -0.0042
      9  CE1        2.6120   16.4970    6.6420 C.ar   32  PHE32      -0.0003
     10  CE2        0.2600   16.6250    6.2390 C.ar   32  PHE32      -0.0003
     11  CZ         1.4570   15.9470    6.1210 C.ar   32  PHE32      -0.0000
     12  N          2.1550   23.3240    3.4250 N.3    35  SER35      -0.1202
     13  CA         3.5160   22.9780    3.0310 C.3    35  SER35       0.2020
     14  C          3.5200   21.7350    2.1480 C.2    35  SER35       0.2618
     15  O          4.3310   21.6170    1.2310 O.2    35  SER35      -0.2717
     16  CB         4.3940   22.7390    4.2620 C.3    35  SER35       0.2103
     17  OG         4.1810   21.4420    4.7970 O.3    35  SER35      -0.2182
     18  N          2.6150   20.8070    2.4370 N.am   36  ALA36      -0.1979
     19  CA         2.5010   19.5820    1.6570 C.3    36  ALA36       0.1597
     20  C          1.8700   19.8710    0.3010 C.2    36  ALA36       0.2287
     21  O          2.1730   19.2000   -0.6860 O.2    36  ALA36      -0.2864
     22  CB         1.6950   18.5350    2.4120 C.3    36  ALA36       0.0319
     23  N          4.6890   20.9070   -1.9440 N.3    39  ALA39      -0.1231
     24  CA         5.4840   19.7310   -2.2750 C.3    39  ALA39       0.1694
     25  C          4.8260   18.8750   -3.3610 C.2    39  ALA39       0.2591
     26  O          5.4940   18.4070   -4.2840 O.2    39  ALA39      -0.2718
     27  CB         5.7490   18.9020   -1.0240 C.3    39  ALA39       0.0304
     28  N          3.5180   18.6730   -3.2470 N.am   40  VAL40      -0.1980
     29  CA         2.7960   17.8170   -4.1820 C.3    40  VAL40       0.1595
     30  C          2.6140   18.4930   -5.5390 C.2    40  VAL40       0.2287
     31  O          2.9700   17.9290   -6.5720 O.2    40  VAL40      -0.2864
     32  CB         1.4210   17.3860   -3.6190 C.3    40  VAL40       0.0276
     33  CG1        0.5660   16.7690   -4.7070 C.3    40  VAL40       0.0022
     34  CG2        1.5990   16.4160   -2.4640 C.3    40  VAL40       0.0022
     35  N          6.0560   18.8530   -7.3380 N.3    43  ASN43      -0.1225
     36  CA         6.7810   17.6440   -7.7260 C.3    43  ASN43       0.1785
     37  C          5.9470   16.6100   -8.4900 C.2    43  ASN43       0.2597
     38  O          6.4740   15.8610   -9.3150 O.2    43  ASN43      -0.2718
     39  CB         7.4330   16.9970   -6.5010 C.3    43  ASN43       0.1169
     40  CG         8.4200   17.9190   -5.8110 C.2    43  ASN43       0.2627
     41  OD1        9.6330   17.7710   -5.9600 O.2    43  ASN43      -0.2716
     42  ND2        7.9030   18.8790   -5.0550 N.am   43  ASN43      -0.0877
     43  N          4.6490   16.5740   -8.2160 N.am   44  LEU44      -0.1980
     44  CA         3.7670   15.6070   -8.8590 C.3    44  LEU44       0.1596
     45  C          2.7260   16.2740   -9.7590 C.2    44  LEU44       0.2287
     46  O          1.9110   15.5950  -10.3930 O.2    44  LEU44      -0.2864
     47  CB         3.0940   14.7250   -7.8070 C.3    44  LEU44       0.0297
     48  CG         4.0510   13.7350   -7.1400 C.3    44  LEU44       0.0022
     49  CD1        3.4130   13.0530   -5.9380 C.3    44  LEU44       0.0001
     50  CD2        4.5230   12.7090   -8.1530 C.3    44  LEU44       0.0001
     51  N          3.0120   17.5770  -12.6400 N.3    46  TRP46      -0.1241
     52  CA         3.1280   17.1000  -14.0140 C.3    46  TRP46       0.1605
     53  C          2.4100   15.7650  -14.2080 C.2    46  TRP46       0.2264
     54  O          1.8120   15.5190  -15.2580 O.2    46  TRP46      -0.2867
     55  CB         4.6000   16.9730  -14.4150 C.3    46  TRP46       0.0550
     56  CG         5.3490   15.9500  -13.6210 C.ar   46  TRP46       0.0003
     57  CD1        6.0200   16.1470  -12.4490 C.ar   46  TRP46       0.0946
     58  CD2        5.5010   14.5640  -13.9400 C.ar   46  TRP46       0.0152
     59  NE1        6.5810   14.9710  -12.0200 N.ar   46  TRP46      -0.2442
     60  CE2        6.2760   13.9840  -12.9190 C.ar   46  TRP46       0.0810
     61  CE3        5.0550   13.7590  -14.9900 C.ar   46  TRP46       0.0012
     62  CZ2        6.6140   12.6360  -12.9190 C.ar   46  TRP46       0.0191
     63  CZ3        5.3920   12.4240  -14.9880 C.ar   46  TRP46       0.0001
     64  CH2        6.1650   11.8750  -13.9610 C.ar   46  TRP46       0.0015
     65  N         -3.6510   16.4860   -1.0600 N.3   469  VAL469     -0.1245
     66  CA        -2.6370   15.6660   -0.4030 C.3   469  VAL469      0.1561
     67  C         -3.1500   14.2520   -0.1260 C.2   469  VAL469      0.2260
     68  O         -2.3800   13.2910   -0.1190 O.2   469  VAL469     -0.2867
     69  CB        -2.1490   16.3080    0.9180 C.3   469  VAL469      0.0252
     70  CG1       -1.1340   15.4060    1.6100 C.3   469  VAL469      0.0019
     71  CG2       -1.5510   17.6890    0.6600 C.3   469  VAL469      0.0019
     72  N         -3.1500   12.0650   -3.5390 N.3   472  THR472     -0.1204
     73  CA        -1.8660   11.7600   -4.1690 C.3   472  THR472      0.1979
     74  C         -1.5590   10.2610   -4.2880 C.2   472  THR472      0.2459
     75  O         -1.2630    9.7700   -5.3800 O.2   472  THR472     -0.2732
     76  CB        -0.7020   12.4820   -3.4560 C.3   472  THR472      0.1783
     77  OG1       -0.9980   13.8790   -3.3560 O.3   472  THR472     -0.2211
     78  CG2        0.5860   12.3080   -4.2290 C.3   472  THR472      0.0376
     79  N         -1.6250    9.5260   -3.1680 N.am  473  PRO473     -0.2728
     80  CA        -1.3220    8.0930   -3.2370 C.3   473  PRO473      0.1401
     81  C         -2.2180    7.3680   -4.2400 C.2   473  PRO473      0.2269
     82  O         -1.7450    6.5230   -5.0060 O.2   473  PRO473     -0.2865
     83  CB        -1.6310    7.6030   -1.8210 C.3   473  PRO473      0.0296
     84  CG        -1.4980    8.8080   -0.9600 C.3   473  PRO473      0.0237
     85  CD        -1.9530    9.9610   -1.7980 C.3   473  PRO473      0.0939
@<TRIPOS>BOND
     1    54    53    2
     2    61    63   ar
     3    61    58   ar
     4    63    64   ar
     5    55    52    1
     6    55    56    1
     7    53    52    1
     8    52    51    1
     9    64    62   ar
    10    58    56   ar
    11    58    60   ar
    12    56    57   ar
    13    60    62   ar
    14    60    59   ar
    15    57    59   ar
    16    46    45    2
    17    45    44    1
    18    38    37    2
    19    44    43    1
    20    44    47    1
    21    37    43   am
    22    37    36    1
    23    50    48    1
    24    47    48    1
    25    36    35    1
    26    36    39    1
    27    48    49    1
    28    31    30    2
    29    39    40    1
    30    41    40    2
    31    40    42   am
    32    30    29    1
    33    75    74    2
    34    82    81    2
    35    33    32    1
    36    74    73    1
    37    74    79   am
    38    26    25    2
    39    81    80    1
    40    78    76    1
    41    29    32    1
    42    29    28    1
    43    73    72    1
    44    73    76    1
    45    32    34    1
    46    76    77    1
    47    25    28   am
    48    25    24    1
    49    80    79    1
    50    80    83    1
    51    79    85    1
    52    24    23    1
    53    24    27    1
    54    83    84    1
    55    85    84    1
    56    65    66    1
    57    21    20    2
    58    66    67    1
    59    66    69    1
    60    67    68    2
    61    20    19    1
    62    71    69    1
    63    69    70    1
    64    15    14    2
    65    19    22    1
    66    19    18    1
    67    14    18   am
    68    14    13    1
    69    13    12    1
    70    13    16    1
    71    16    17    1
    72     4     3    2
    73     3     2    1
    74    11    10   ar
    75    11     9   ar
    76    10     8   ar
    77     9     7   ar
    78     8     6   ar
    79     2     1    1
    80     2     5    1
    81     7     6   ar
    82     6     5    1
