@<TRIPOS>MOLECULE
tmp/4c7rC00.pdb
 142 132 0 0 0
SMALL
GASTEIGER

@<TRIPOS>ATOM
      1  N         -0.5910    7.3230  -42.2660 N.3    60  VAL60      -0.1245
      2  CA        -1.5220    6.9530  -41.2000 C.3    60  VAL60       0.1561
      3  C         -2.7430    6.2300  -41.7730 C.2    60  VAL60       0.2260
      4  O         -3.2070    5.2360  -41.2090 O.2    60  VAL60      -0.2867
      5  CB        -1.9600    8.1780  -40.3510 C.3    60  VAL60       0.0252
      6  CG1       -3.2490    7.8860  -39.5930 C.3    60  VAL60       0.0019
      7  CG2       -0.8650    8.5760  -39.3860 C.3    60  VAL60       0.0019
      8  N         -1.8500    2.6620  -42.6880 N.3    63  ALA63      -0.1231
      9  CA        -1.8910    1.8280  -41.4940 C.3    63  ALA63       0.1694
     10  C         -3.3260    1.5130  -41.0620 C.2    63  ALA63       0.2592
     11  O         -3.6200    0.4050  -40.6280 O.2    63  ALA63      -0.2718
     12  CB        -1.1190    2.4810  -40.3630 C.3    63  ALA63       0.0304
     13  N         -4.2180    2.4890  -41.1920 N.am   64  ALA64      -0.1966
     14  CA        -5.6110    2.3110  -40.7890 C.3    64  ALA64       0.1728
     15  C         -6.3700    1.3340  -41.6870 C.2    64  ALA64       0.2617
     16  O         -7.4700    0.9030  -41.3510 O.2    64  ALA64      -0.2715
     17  CB        -6.3260    3.6660  -40.7670 C.3    64  ALA64       0.0334
     18  N         -5.7910    0.9990  -42.8340 N.am   65  SER65      -0.1936
     19  CA        -6.5180    0.2680  -43.8660 C.3    65  SER65       0.2055
     20  C         -6.2480   -1.2410  -43.8440 C.2    65  SER65       0.2642
     21  O         -5.4780   -1.7450  -43.0230 O.2    65  SER65      -0.2714
     22  CB        -6.1850    0.8420  -45.2460 C.3    65  SER65       0.2130
     23  OG        -4.8180    0.6400  -45.5700 O.3    65  SER65      -0.2179
     24  N         -6.8910   -1.9630  -44.7530 N.am   66  LYS66      -0.1977
     25  CA        -6.6900   -3.4000  -44.8290 C.3    66  LYS66       0.1596
     26  C         -5.2230   -3.7050  -45.1060 C.2    66  LYS66       0.2287
     27  O         -4.6700   -4.6530  -44.5600 O.2    66  LYS66      -0.2864
     28  CB        -7.5810   -4.0200  -45.9030 C.3    66  LYS66       0.0298
     29  CG        -8.2390   -5.3220  -45.4690 C.3    66  LYS66       0.0038
     30  CD        -7.2080   -6.3750  -45.0910 C.3    66  LYS66       0.0206
     31  CE        -7.7840   -7.3770  -44.1050 C.3    66  LYS66       0.1093
     32  NZ        -8.1360   -6.7240  -42.8120 N.3    66  LYS66      -0.1314
     33  N         -2.7850   -5.1520  -42.3250 N.3    69  THR69      -0.1218
     34  CA        -2.6220   -6.5290  -41.8750 C.3    69  THR69       0.1862
     35  C         -1.5600   -7.3020  -42.6620 C.2    69  THR69       0.2287
     36  O         -0.9600   -8.2360  -42.1290 O.2    69  THR69      -0.2866
     37  CB        -3.9500   -7.2900  -41.9310 C.3    69  THR69       0.1770
     38  OG1       -4.5020   -7.1730  -43.2470 O.3    69  THR69      -0.2211
     39  CG2       -4.9330   -6.7160  -40.9310 C.3    69  THR69       0.0375
     40  N          8.7340   19.9440  -31.7150 N.3   131  MET131     -0.1245
     41  CA         8.1060   18.6590  -31.9790 C.3   131  MET131      0.1570
     42  C          7.8140   18.5370  -33.4650 C.2   131  MET131      0.2261
     43  O          8.2320   17.5890  -34.1250 O.2   131  MET131     -0.2867
     44  CB         6.7970   18.5580  -31.2020 C.3   131  MET131      0.0387
     45  CG         6.9580   18.7550  -29.7070 C.3   131  MET131      0.0595
     46  SD         7.8000   17.3580  -28.9520 S.3   131  MET131     -0.1393
     47  CE         6.5180   16.1090  -29.0970 C.3   131  MET131      0.0692
     48  N          9.2140   15.0080  -35.0780 N.3   135  THR135     -0.1203
     49  CA         8.4060   13.8290  -34.7850 C.3   135  THR135      0.1994
     50  C          7.6630   13.2990  -36.0110 C.2   135  THR135      0.2617
     51  O          8.2900   12.8670  -36.9780 O.2   135  THR135     -0.2717
     52  CB         7.4450   14.0670  -33.6110 C.3   135  THR135      0.1784
     53  OG1        6.4820   15.0630  -33.9680 O.3   135  THR135     -0.2211
     54  CG2        8.2250   14.5280  -32.3920 C.3   135  THR135      0.0376
     55  N          6.3350   13.3270  -35.9670 N.am  136  LEU136     -0.1979
     56  CA         5.5240   12.7610  -37.0420 C.3   136  LEU136      0.1596
     57  C          6.0230   13.0890  -38.4540 C.2   136  LEU136      0.2287
     58  O          6.1210   12.2110  -39.2950 O.2   136  LEU136     -0.2864
     59  CB         4.0540   13.1630  -36.8870 C.3   136  LEU136      0.0297
     60  CG         3.3590   12.6670  -35.6150 C.3   136  LEU136      0.0022
     61  CD1        1.8670   12.9660  -35.6650 C.3   136  LEU136      0.0001
     62  CD2        3.5930   11.1740  -35.4270 C.3   136  LEU136      0.0001
     63  N          3.7020   17.6290  -25.5350 N.3   282  ILE282     -0.1245
     64  CA         2.7260   16.7930  -26.2260 C.3   282  ILE282      0.1561
     65  C          1.4100   17.5400  -26.4380 C.2   282  ILE282      0.2260
     66  O          0.8690   17.5530  -27.5460 O.2   282  ILE282     -0.2867
     67  CB         2.4920   15.4380  -25.5040 C.3   282  ILE282      0.0252
     68  CG1        3.7930   14.6310  -25.4450 C.3   282  ILE282      0.0019
     69  CG2        1.4200   14.6220  -26.2190 C.3   282  ILE282      0.0019
     70  CD1        3.7240   13.3890  -24.5730 C.3   282  ILE282      0.0001
     71  N          1.9120   20.5020  -29.0230 N.3   285  TYR285     -0.1227
     72  CA         2.1500   19.9510  -30.3550 C.3   285  TYR285      0.1736
     73  C          0.8640   19.4550  -31.0030 C.2   285  TYR285      0.2595
     74  O          0.6600   19.6200  -32.2030 O.2   285  TYR285     -0.2718
     75  CB         3.1810   18.8250  -30.3030 C.3   285  TYR285      0.0548
     76  CG         3.3050   18.0590  -31.5990 C.ar  285  TYR285     -0.0200
     77  CD1        3.7810   18.6780  -32.7450 C.ar  285  TYR285     -0.0009
     78  CD2        2.9480   16.7130  -31.6770 C.ar  285  TYR285     -0.0009
     79  CE1        3.8960   17.9850  -33.9410 C.ar  285  TYR285      0.0417
     80  CE2        3.0620   16.0140  -32.8620 C.ar  285  TYR285      0.0417
     81  CZ         3.5370   16.6580  -33.9930 C.ar  285  TYR285      0.1957
     82  OH         3.6570   15.9860  -35.1850 O.3   285  TYR285     -0.2866
     83  N         -0.0080   18.8430  -30.2130 N.am  286  LEU286     -0.1980
     84  CA        -1.2780   18.3880  -30.7570 C.3   286  LEU286      0.1596
     85  C         -2.1610   19.5940  -31.0230 C.2   286  LEU286      0.2287
     86  O         -2.8040   19.6940  -32.0660 O.2   286  LEU286     -0.2864
     87  CB        -1.9640   17.3940  -29.8140 C.3   286  LEU286      0.0297
     88  CG        -1.3650   15.9830  -29.7990 C.3   286  LEU286      0.0022
     89  CD1       -2.1510   15.0410  -28.8820 C.3   286  LEU286      0.0001
     90  CD2       -1.2930   15.4370  -31.2200 C.3   286  LEU286      0.0001
     91  N          0.9190   -2.2400  -40.6010 N.3   340  ARG340     -0.1245
     92  CA         0.3220   -1.4160  -39.5550 C.3   340  ARG340      0.1563
     93  C          1.2090   -1.2980  -38.3110 C.2   340  ARG340      0.2260
     94  O          1.4310   -0.2060  -37.8030 O.2   340  ARG340     -0.2867
     95  CB        -1.0590   -1.9650  -39.1910 C.3   340  ARG340      0.0307
     96  CG        -1.6310   -1.4150  -37.9100 C.3   340  ARG340      0.0489
     97  CD        -3.1250   -1.1950  -38.0280 C.3   340  ARG340      0.2205
     98  NE        -3.8660   -2.4310  -38.2280 N.pl3 340  ARG340     -0.0865
     99  CZ        -4.4890   -2.7610  -39.3550 C.cat 340  ARG340      0.5346
    100  NH1       -4.4710   -1.9430  -40.3940 N.pl3 340  ARG340      0.1354
    101  NH2       -5.1380   -3.9140  -39.4400 N.pl3 340  ARG340      0.1354
    102  N          3.1130    2.3720  -36.9610 N.3   344  LEU344     -0.1245
    103  CA         2.9680    2.8970  -35.6050 C.3   344  LEU344      0.1561
    104  C          4.2970    2.9360  -34.8500 C.2   344  LEU344      0.2260
    105  O          4.6190    3.9310  -34.2080 O.2   344  LEU344     -0.2867
    106  CB         1.9370    2.0920  -34.8140 C.3   344  LEU344      0.0270
    107  CG         0.5160    2.0780  -35.3780 C.3   344  LEU344      0.0019
    108  CD1       -0.4650    1.5380  -34.3440 C.3   344  LEU344      0.0001
    109  CD2        0.1090    3.4710  -35.8180 C.3   344  LEU344      0.0001
    110  N          6.6550    5.8240  -36.2180 N.3   347  LEU347     -0.1231
    111  CA         6.1680    7.1240  -35.8010 C.3   347  LEU347      0.1693
    112  C          6.4210    7.3600  -34.3130 C.2   347  LEU347      0.2591
    113  O          7.1990    8.2340  -33.9400 O.2   347  LEU347     -0.2718
    114  CB         4.6760    7.2450  -36.0950 C.3   347  LEU347      0.0284
    115  CG         4.2940    7.1190  -37.5650 C.3   347  LEU347      0.0019
    116  CD1        2.8060    7.3710  -37.7380 C.3   347  LEU347      0.0001
    117  CD2        5.1070    8.0850  -38.3980 C.3   347  LEU347      0.0001
    118  N          5.7640    6.5670  -33.4750 N.am  348  LEU348     -0.1980
    119  CA         5.7420    6.7910  -32.0320 C.3   348  LEU348      0.1596
    120  C          7.0710    6.6360  -31.2850 C.2   348  LEU348      0.2287
    121  O          7.3700    7.4250  -30.4000 O.2   348  LEU348     -0.2864
    122  CB         4.6970    5.8840  -31.3830 C.3   348  LEU348      0.0297
    123  CG         3.2480    6.0860  -31.8280 C.3   348  LEU348      0.0022
    124  CD1        2.3550    5.0290  -31.1970 C.3   348  LEU348      0.0001
    125  CD2        2.7580    7.4900  -31.4810 C.3   348  LEU348      0.0001
    126  N          9.6840    9.5160  -31.7440 N.3   351  ALA351     -0.1245
    127  CA         9.0170   10.6770  -31.1580 C.3   351  ALA351      0.1562
    128  C          9.2990   10.8100  -29.6640 C.2   351  ALA351      0.2260
    129  O          9.6770   11.8790  -29.1870 O.2   351  ALA351     -0.2867
    130  CB         7.5140   10.5990  -31.3980 C.3   351  ALA351      0.0290
    131  N         -9.1520  -10.1150  -49.5740 N.3   498  TYR498     -0.1241
    132  CA       -10.1850   -9.6240  -48.6650 C.3   498  TYR498      0.1605
    133  C        -11.2440   -8.7860  -49.3780 C.2   498  TYR498      0.2264
    134  O        -12.4020   -8.7530  -48.9600 O.2   498  TYR498     -0.2867
    135  CB        -9.5750   -8.8510  -47.4930 C.3   498  TYR498      0.0534
    136  CG       -10.3310   -9.0430  -46.1950 C.ar  498  TYR498     -0.0201
    137  CD1      -10.0480  -10.1150  -45.3550 C.ar  498  TYR498     -0.0009
    138  CD2      -11.3340   -8.1610  -45.8140 C.ar  498  TYR498     -0.0009
    139  CE1      -10.7400  -10.2990  -44.1680 C.ar  498  TYR498      0.0417
    140  CE2      -12.0310   -8.3370  -44.6280 C.ar  498  TYR498      0.0417
    141  CZ       -11.7300   -9.4080  -43.8110 C.ar  498  TYR498      0.1957
    142  OH       -12.4190   -9.5860  -42.6320 O.3   498  TYR498     -0.2866
@<TRIPOS>BOND
     1   131   132    1
     2   133   134    2
     3   133   132    1
     4   132   135    1
     5   135   136    1
     6   136   138   ar
     7   136   137   ar
     8    28    29    1
     9    28    25    1
    10   138   140   ar
    11    23    22    1
    12    29    30    1
    13   137   139   ar
    14    22    19    1
    15    26    25    1
    16    26    27    2
    17    30    31    1
    18    25    24    1
    19    24    20   am
    20   140   141   ar
    21   139   141   ar
    22    31    32    1
    23    19    20    1
    24    19    18    1
    25    20    21    2
    26   141   142    1
    27    38    37    1
    28    18    15   am
    29     8     9    1
    30    35    36    2
    31    35    34    1
    32    33    34    1
    33     1     2    1
    34    37    34    1
    35    37    39    1
    36     3     4    2
    37     3     2    1
    38    15    16    2
    39    15    14    1
    40     9    10    1
    41     9    12    1
    42     2     5    1
    43    13    10   am
    44    13    14    1
    45    10    11    2
    46    14    17    1
    47    91    92    1
    48   100    99    1
    49     5     6    1
    50     5     7    1
    51    92    95    1
    52    92    93    1
    53   101    99    1
    54    99    98    2
    55    58    57    2
    56    95    96    1
    57    57    56    1
    58   117   115    1
    59    93    94    2
    60    98    97    1
    61    97    96    1
    62   116   115    1
    63   115   114    1
    64    56    59    1
    65    56    55    1
    66    51    50    2
    67   102   103    1
    68    59    60    1
    69   110   111    1
    70   114   111    1
    71    50    55   am
    72    50    49    1
    73   109   107    1
    74   111   112    1
    75    61    60    1
    76    60    62    1
    77   103   104    1
    78   103   106    1
    79   107   106    1
    80   107   108    1
    81    82    81    1
    82    48    49    1
    83   104   105    2
    84    49    52    1
    85   112   113    2
    86   112   118   am
    87    43    42    2
    88    81    79   ar
    89    81    80   ar
    90    53    52    1
    91    79    77   ar
    92    52    54    1
    93   118   119    1
    94    42    41    1
    95    80    78   ar
    96    77    76   ar
    97    74    73    2
    98    86    85    2
    99   119   122    1
   100   119   120    1
   101    41    40    1
   102    41    44    1
   103   123   125    1
   104   123   122    1
   105   123   124    1
   106   126   127    1
   107    78    76   ar
   108    76    75    1
   109   130   127    1
   110   120   121    2
   111    90    88    1
   112    44    45    1
   113   127   128    1
   114    85    84    1
   115    73    72    1
   116    73    83   am
   117    84    83    1
   118    84    87    1
   119    72    75    1
   120    72    71    1
   121    87    88    1
   122    88    89    1
   123    45    46    1
   124   128   129    2
   125    47    46    1
   126    66    65    2
   127    65    64    1
   128    64    63    1
   129    64    67    1
   130    69    67    1
   131    67    68    1
   132    68    70    1
