@<TRIPOS>MOLECULE
tmp/4c7rC01.pdb
 123 115 0 0 0
SMALL
GASTEIGER

@<TRIPOS>ATOM
      1  N         -2.7850   -5.1520  -42.3250 N.3    69  THR69      -0.1218
      2  CA        -2.6220   -6.5290  -41.8750 C.3    69  THR69       0.1862
      3  C         -1.5600   -7.3020  -42.6620 C.2    69  THR69       0.2287
      4  O         -0.9600   -8.2360  -42.1290 O.2    69  THR69      -0.2866
      5  CB        -3.9500   -7.2900  -41.9310 C.3    69  THR69       0.1770
      6  OG1       -4.5020   -7.1730  -43.2470 O.3    69  THR69      -0.2211
      7  CG2       -4.9330   -6.7160  -40.9310 C.3    69  THR69       0.0375
      8  N          1.9580   -8.4350  -44.3870 N.3    71  ARG71      -0.1245
      9  CA         3.2070   -8.6140  -43.6550 C.3    71  ARG71       0.1563
     10  C          4.4370   -8.4010  -44.5240 C.2    71  ARG71       0.2260
     11  O          4.4540   -8.7510  -45.7010 O.2    71  ARG71      -0.2867
     12  CB         3.2360   -9.9810  -42.9690 C.3    71  ARG71       0.0307
     13  CG         2.0270  -10.1890  -42.0840 C.3    71  ARG71       0.0489
     14  CD         2.2550  -11.2190  -41.0340 C.3    71  ARG71       0.2205
     15  NE         3.1290  -10.7740  -39.9540 N.pl3  71  ARG71      -0.0865
     16  CZ         2.7030  -10.1830  -38.8400 C.cat  71  ARG71       0.5346
     17  NH1        1.4070   -9.9330  -38.6670 N.pl3  71  ARG71       0.1354
     18  NH2        3.5740   -9.8490  -37.8940 N.pl3  71  ARG71       0.1354
     19  N          1.6790  -14.7390  -43.8660 N.3    76  ASP76      -0.1239
     20  CA         1.7540  -15.0020  -42.4220 C.3    76  ASP76       0.1674
     21  C          3.1580  -15.2000  -41.8540 C.2    76  ASP76       0.2266
     22  O          3.3470  -15.9780  -40.9210 O.2    76  ASP76      -0.2867
     23  CB         0.8650  -16.1750  -42.0080 C.3    76  ASP76       0.1410
     24  CG         0.5400  -16.1540  -40.5210 C.2    76  ASP76       0.3668
     25  OD1        0.8660  -15.1410  -39.8700 O.co2  76  ASP76      -0.2456
     26  OD2       -0.0400  -17.1280  -40.0000 O.co2  76  ASP76      -0.2456
     27  N          9.8620   -7.6850  -30.3250 N.3    83  THR83      -0.1218
     28  CA         9.4560   -6.3030  -30.5530 C.3    83  THR83       0.1862
     29  C         10.2560   -5.3450  -29.6750 C.2    83  THR83       0.2287
     30  O         10.5140   -4.2050  -30.0600 O.2    83  THR83      -0.2866
     31  CB         7.9270   -6.0910  -30.3930 C.3    83  THR83       0.1770
     32  OG1        7.6650   -4.9430  -29.5700 O.3    83  THR83      -0.2211
     33  CG2        7.2590   -7.3260  -29.8140 C.3    83  THR83       0.0375
     34  N         13.2970   -4.5240  -31.3990 N.3    86  TRP86      -0.1227
     35  CA        12.9250   -3.7000  -32.5330 C.3    86  TRP86       0.1737
     36  C         12.8580   -2.2510  -32.0660 C.2    86  TRP86       0.2595
     37  O         13.4810   -1.3610  -32.6530 O.2    86  TRP86      -0.2718
     38  CB        11.5550   -4.1550  -33.0220 C.3    86  TRP86       0.0564
     39  CG        11.0690   -3.5310  -34.2860 C.ar   86  TRP86       0.0003
     40  CD1       11.7640   -3.3810  -35.4530 C.ar   86  TRP86       0.0946
     41  CD2        9.7520   -3.0300  -34.5340 C.ar   86  TRP86       0.0152
     42  NE1       10.9650   -2.7940  -36.4060 N.ar   86  TRP86      -0.2442
     43  CE2        9.7230   -2.5720  -35.8670 C.ar   86  TRP86       0.0810
     44  CE3        8.5950   -2.9200  -33.7550 C.ar   86  TRP86       0.0012
     45  CZ2        8.5830   -2.0130  -36.4390 C.ar   86  TRP86       0.0191
     46  CZ3        7.4610   -2.3590  -34.3220 C.ar   86  TRP86       0.0001
     47  CH2        7.4640   -1.9150  -35.6530 C.ar   86  TRP86       0.0015
     48  N         12.0930   -2.0400  -30.9970 N.am   87  ILE87      -0.1980
     49  CA        11.9480   -0.7410  -30.3640 C.3    87  ILE87       0.1595
     50  C         13.3020   -0.1510  -29.9710 C.2    87  ILE87       0.2287
     51  O         13.5870    1.0110  -30.2600 O.2    87  ILE87      -0.2864
     52  CB        11.0440   -0.8350  -29.1250 C.3    87  ILE87       0.0276
     53  CG1        9.6600   -1.3570  -29.5280 C.3    87  ILE87       0.0022
     54  CG2       10.9430    0.5200  -28.4320 C.3    87  ILE87       0.0022
     55  CD1        8.7040   -1.5440  -28.3680 C.3    87  ILE87       0.0001
     56  N         14.7410    3.4220  -31.0190 N.3    91  PHE91      -0.1241
     57  CA        15.1910    4.3850  -30.0230 C.3    91  PHE91       0.1605
     58  C         16.5480    4.9220  -30.4480 C.2    91  PHE91       0.2264
     59  O         16.7310    6.1250  -30.6060 O.2    91  PHE91      -0.2867
     60  CB        15.3280    3.7130  -28.6570 C.3    91  PHE91       0.0534
     61  CG        14.3200    4.1690  -27.6430 C.ar   91  PHE91      -0.0203
     62  CD1       13.0660    3.5810  -27.5760 C.ar   91  PHE91      -0.0042
     63  CD2       14.6330    5.1720  -26.7400 C.ar   91  PHE91      -0.0042
     64  CE1       12.1340    3.9940  -26.6340 C.ar   91  PHE91      -0.0003
     65  CE2       13.7060    5.5930  -25.7960 C.ar   91  PHE91      -0.0003
     66  CZ        12.4550    5.0020  -25.7440 C.ar   91  PHE91      -0.0000
     67  N          3.9570   -6.6100  -39.4700 N.3   338  SER338     -0.1217
     68  CA         2.7900   -6.1640  -40.2180 C.3   338  SER338      0.1889
     69  C          2.9640   -4.6760  -40.5900 C.2   338  SER338      0.2288
     70  O          3.5740   -3.9080  -39.8440 O.2   338  SER338     -0.2866
     71  CB         1.5070   -6.3840  -39.4190 C.3   338  SER338      0.2089
     72  OG         1.1780   -5.2570  -38.6250 O.3   338  SER338     -0.2183
     73  N          0.9190   -2.2400  -40.6010 N.3   340  ARG340     -0.1231
     74  CA         0.3220   -1.4160  -39.5550 C.3   340  ARG340      0.1694
     75  C          1.2090   -1.2980  -38.3110 C.2   340  ARG340      0.2591
     76  O          1.4310   -0.2060  -37.8030 O.2   340  ARG340     -0.2718
     77  CB        -1.0590   -1.9650  -39.1910 C.3   340  ARG340      0.0321
     78  CG        -1.6310   -1.4150  -37.9100 C.3   340  ARG340      0.0489
     79  CD        -3.1250   -1.1950  -38.0280 C.3   340  ARG340      0.2205
     80  NE        -3.8660   -2.4310  -38.2280 N.pl3 340  ARG340     -0.0865
     81  CZ        -4.4890   -2.7610  -39.3550 C.cat 340  ARG340      0.5346
     82  NH1       -4.4710   -1.9430  -40.3940 N.pl3 340  ARG340      0.1354
     83  NH2       -5.1380   -3.9140  -39.4400 N.pl3 340  ARG340      0.1354
     84  N          1.7180   -2.4240  -37.8280 N.am  341  GLU341     -0.1979
     85  CA         2.5740   -2.4430  -36.6450 C.3   341  GLU341      0.1602
     86  C          3.8750   -1.6950  -36.9100 C.2   341  GLU341      0.2287
     87  O          4.4210   -1.0370  -36.0240 O.2   341  GLU341     -0.2864
     88  CB         2.8540   -3.8900  -36.2290 C.3   341  GLU341      0.0415
     89  CG         4.1420   -4.1260  -35.4430 C.3   341  GLU341      0.1163
     90  CD         4.4770   -5.6150  -35.2950 C.2   341  GLU341      0.3649
     91  OE1        3.9360   -6.4450  -36.0730 O.co2 341  GLU341     -0.2457
     92  OE2        5.2900   -5.9480  -34.4040 O.co2 341  GLU341     -0.2457
     93  N          3.1130    2.3720  -36.9610 N.3   344  LEU344     -0.1231
     94  CA         2.9680    2.8970  -35.6050 C.3   344  LEU344      0.1693
     95  C          4.2970    2.9360  -34.8500 C.2   344  LEU344      0.2592
     96  O          4.6190    3.9310  -34.2080 O.2   344  LEU344     -0.2718
     97  CB         1.9370    2.0920  -34.8140 C.3   344  LEU344      0.0284
     98  CG         0.5160    2.0780  -35.3780 C.3   344  LEU344      0.0019
     99  CD1       -0.4650    1.5380  -34.3440 C.3   344  LEU344      0.0001
    100  CD2        0.1090    3.4710  -35.8180 C.3   344  LEU344      0.0001
    101  N          5.0680    1.8570  -34.9280 N.am  345  GLY345     -0.1957
    102  CA         6.3520    1.7990  -34.2530 C.3   345  GLY345      0.1869
    103  C          7.3200    2.8860  -34.6910 C.2   345  GLY345      0.2309
    104  O          8.0010    3.4870  -33.8600 O.2   345  GLY345     -0.2863
    105  N          5.7640    6.5670  -33.4750 N.3   348  LEU348     -0.1231
    106  CA         5.7420    6.7910  -32.0320 C.3   348  LEU348      0.1693
    107  C          7.0710    6.6360  -31.2850 C.2   348  LEU348      0.2591
    108  O          7.3700    7.4250  -30.4000 O.2   348  LEU348     -0.2718
    109  CB         4.6970    5.8840  -31.3830 C.3   348  LEU348      0.0284
    110  CG         3.2480    6.0860  -31.8280 C.3   348  LEU348      0.0019
    111  CD1        2.3550    5.0290  -31.1970 C.3   348  LEU348      0.0001
    112  CD2        2.7580    7.4900  -31.4810 C.3   348  LEU348      0.0001
    113  N          7.8560    5.6160  -31.6080 N.am  349  VAL349     -0.1980
    114  CA         9.0170    5.2920  -30.7720 C.3   349  VAL349      0.1595
    115  C         10.0910    6.3860  -30.7910 C.2   349  VAL349      0.2287
    116  O         10.5070    6.8580  -29.7320 O.2   349  VAL349     -0.2864
    117  CB         9.5980    3.8540  -31.0510 C.3   349  VAL349      0.0276
    118  CG1       10.9260    3.6320  -30.3270 C.3   349  VAL349      0.0022
    119  CG2        8.6010    2.7890  -30.6290 C.3   349  VAL349      0.0022
    120  N          9.1010    9.7240  -28.9280 N.3   352  GLY352     -0.1225
    121  CA         9.3600    9.7170  -27.5020 C.3   352  GLY352      0.1811
    122  C         10.7740   10.1600  -27.1730 C.2   352  GLY352      0.2280
    123  O         11.0060   10.8240  -26.1620 O.2   352  GLY352     -0.2866
@<TRIPOS>BOND
     1    11    10    2
     2    10     9    1
     3     8     9    1
     4    19    20    1
     5     9    12    1
     6     6     5    1
     7    12    13    1
     8     3     4    2
     9     3     2    1
    10    20    23    1
    11    20    21    1
    12     1     2    1
    13    13    14    1
    14    23    24    1
    15     5     2    1
    16     5     7    1
    17    21    22    2
    18    14    15    1
    19    73    74    1
    20    69    68    1
    21    69    70    2
    22    24    26   ar
    23    24    25   ar
    24    82    81    1
    25    68    67    1
    26    68    71    1
    27    15    16    2
    28    74    77    1
    29    74    75    1
    30    83    81    1
    31    71    72    1
    32    81    80    2
    33    77    78    1
    34    16    17    1
    35    16    18    1
    36    75    84   am
    37    75    76    2
    38    80    79    1
    39    79    78    1
    40    84    85    1
    41    93    94    1
    42    86    85    1
    43    86    87    2
    44    85    88    1
    45    45    43   ar
    46    45    47   ar
    47    42    43   ar
    48    42    40   ar
    49    88    89    1
    50    91    90   ar
    51    43    41   ar
    52   100    98    1
    53    47    46   ar
    54    94    95    1
    55    94    97    1
    56    40    39   ar
    57    89    90    1
    58    98    97    1
    59    98    99    1
    60    90    92   ar
    61   101    95   am
    62   101   102    1
    63    95    96    2
    64   103   102    1
    65   103   104    2
    66    41    39   ar
    67    41    44   ar
    68    46    44   ar
    69    39    38    1
    70   105   106    1
    71    38    35    1
    72    37    36    2
    73    35    36    1
    74    35    34    1
    75    36    48   am
    76   106   109    1
    77   106   107    1
    78   110   112    1
    79   110   109    1
    80   110   111    1
    81   113   107   am
    82   113   114    1
    83   107   108    2
    84   117   114    1
    85   117   119    1
    86   117   118    1
    87    56    57    1
    88    48    49    1
    89   115   114    1
    90   115   116    2
    91    59    58    2
    92    28    31    1
    93    28    27    1
    94    28    29    1
    95    58    57    1
    96    31    33    1
    97    31    32    1
    98    49    50    1
    99    49    52    1
   100    51    50    2
   101    30    29    2
   102    57    60    1
   103    53    52    1
   104    53    55    1
   105    52    54    1
   106   120   121    1
   107    60    61    1
   108    61    62   ar
   109    61    63   ar
   110    62    64   ar
   111   121   122    1
   112   122   123    2
   113    63    65   ar
   114    64    66   ar
   115    65    66   ar
