@<TRIPOS>MOLECULE
tmp/4c7rA02.pdb
 129 128 0 0 0
SMALL
GASTEIGER

@<TRIPOS>ATOM
      1  N         -7.9450    9.6560  -20.4140 N.3    56  VAL56      -0.1231
      2  CA        -8.9720    9.9370  -21.4120 C.3    56  VAL56       0.1692
      3  C         -8.7480    9.1050  -22.6690 C.2    56  VAL56       0.2592
      4  O         -9.6780    8.4740  -23.1710 O.2    56  VAL56      -0.2718
      5  CB        -9.0270   11.4390  -21.7710 C.3    56  VAL56       0.0266
      6  CG1      -10.1080   11.6970  -22.8150 C.3    56  VAL56       0.0020
      7  CG2       -9.2720   12.2740  -20.5260 C.3    56  VAL56       0.0020
      8  N         -7.5120    9.1050  -23.1660 N.am   57  PHE57      -0.1976
      9  CA        -7.1390    8.3050  -24.3310 C.3    57  PHE57       0.1639
     10  C         -7.3630    6.8230  -24.0540 C.2    57  PHE57       0.2290
     11  O         -8.1000    6.1460  -24.7700 O.2    57  PHE57      -0.2864
     12  CB        -5.6690    8.5320  -24.6980 C.3    57  PHE57       0.0560
     13  CG        -5.4380    9.7010  -25.6150 C.ar   57  PHE57      -0.0200
     14  CD1       -5.5600   11.0040  -25.1510 C.ar   57  PHE57      -0.0042
     15  CD2       -5.0790    9.4980  -26.9380 C.ar   57  PHE57      -0.0042
     16  CE1       -5.3440   12.0820  -25.9940 C.ar   57  PHE57      -0.0003
     17  CE2       -4.8570   10.5740  -27.7860 C.ar   57  PHE57      -0.0003
     18  CZ        -4.9910   11.8670  -27.3100 C.ar   57  PHE57      -0.0000
     19  N        -10.8910    5.6190  -24.1450 N.3    60  VAL60      -0.1231
     20  CA       -11.4590    5.7430  -25.4850 C.3    60  VAL60       0.1692
     21  C        -10.9370    4.6300  -26.3950 C.2    60  VAL60       0.2591
     22  O        -11.6680    4.1120  -27.2430 O.2    60  VAL60      -0.2718
     23  CB       -11.1690    7.1300  -26.1060 C.3    60  VAL60       0.0266
     24  CG1      -11.3410    7.0960  -27.6200 C.3    60  VAL60       0.0020
     25  CG2      -12.0680    8.1930  -25.4840 C.3    60  VAL60       0.0020
     26  N         -9.6730    4.2620  -26.2060 N.am   61  VAL61      -0.1980
     27  CA        -9.0680    3.1660  -26.9560 C.3    61  VAL61       0.1595
     28  C         -9.6610    1.8070  -26.5600 C.2    61  VAL61       0.2287
     29  O         -9.9340    0.9670  -27.4180 O.2    61  VAL61      -0.2864
     30  CB        -7.5330    3.1500  -26.7990 C.3    61  VAL61       0.0276
     31  CG1       -6.9750    1.7580  -27.0500 C.3    61  VAL61       0.0022
     32  CG2       -6.9000    4.1570  -27.7390 C.3    61  VAL61       0.0022
     33  N        -13.0180    1.4690  -28.1600 N.3    64  ALA64      -0.1231
     34  CA       -12.9160    1.2950  -29.6050 C.3    64  ALA64       0.1694
     35  C        -12.4100   -0.0980  -29.9630 C.2    64  ALA64       0.2593
     36  O        -12.7510   -0.6430  -31.0110 O.2    64  ALA64      -0.2718
     37  CB       -12.0070    2.3650  -30.2070 C.3    64  ALA64       0.0304
     38  N        -11.5930   -0.6610  -29.0800 N.am   65  SER65      -0.1938
     39  CA       -10.9880   -1.9700  -29.2900 C.3    65  SER65       0.2055
     40  C        -12.0240   -3.0870  -29.2270 C.2    65  SER65       0.2643
     41  O        -13.1830   -2.8550  -28.8810 O.2    65  SER65      -0.2714
     42  CB        -9.9100   -2.2200  -28.2360 C.3    65  SER65       0.2130
     43  OG       -10.4870   -2.5620  -26.9860 O.3    65  SER65      -0.2179
     44  N        -11.5910   -4.3030  -29.5530 N.am   66  LYS66      -0.1963
     45  CA       -12.4690   -5.4650  -29.5190 C.3    66  LYS66       0.1728
     46  C        -12.9340   -5.7350  -28.0890 C.2    66  LYS66       0.2616
     47  O        -14.0260   -6.2650  -27.8790 O.2    66  LYS66      -0.2715
     48  CB       -11.7590   -6.6910  -30.1070 C.3    66  LYS66       0.0311
     49  CG       -12.6810   -7.7270  -30.7650 C.3    66  LYS66       0.0038
     50  CD       -13.5590   -8.4600  -29.7530 C.3    66  LYS66       0.0206
     51  CE       -14.4260   -9.5160  -30.4260 C.3    66  LYS66       0.1093
     52  NZ       -15.2140   -8.9540  -31.5630 N.3    66  LYS66      -0.1314
     53  N        -12.1120   -5.3580  -27.1110 N.am   67  PHE67      -0.1974
     54  CA       -12.4920   -5.4870  -25.7010 C.3    67  PHE67       0.1639
     55  C        -13.8990   -4.9570  -25.4260 C.2    67  PHE67       0.2290
     56  O        -14.5560   -5.3930  -24.4840 O.2    67  PHE67      -0.2864
     57  CB       -11.5020   -4.7590  -24.7910 C.3    67  PHE67       0.0560
     58  CG       -10.1310   -5.3710  -24.7590 C.ar   67  PHE67      -0.0200
     59  CD1       -9.9630   -6.7420  -24.8630 C.ar   67  PHE67      -0.0042
     60  CD2       -9.0090   -4.5730  -24.6040 C.ar   67  PHE67      -0.0042
     61  CE1       -8.6990   -7.3060  -24.8270 C.ar   67  PHE67      -0.0003
     62  CE2       -7.7430   -5.1310  -24.5680 C.ar   67  PHE67      -0.0003
     63  CZ        -7.5890   -6.5000  -24.6800 C.ar   67  PHE67      -0.0000
     64  N         -9.0470   21.7960  -26.1290 N.3   289  PHE289     -0.1227
     65  CA        -8.7740   20.5790  -25.3590 C.3   289  PHE289      0.1736
     66  C         -7.2870   20.3060  -25.1200 C.2   289  PHE289      0.2595
     67  O         -6.8460   20.1840  -23.9740 O.2   289  PHE289     -0.2718
     68  CB        -9.4200   19.3730  -26.0440 C.3   289  PHE289      0.0547
     69  CG        -9.2760   18.0820  -25.2810 C.ar  289  PHE289     -0.0202
     70  CD1      -10.2360   17.6950  -24.3570 C.ar  289  PHE289     -0.0042
     71  CD2       -8.1940   17.2420  -25.5040 C.ar  289  PHE289     -0.0042
     72  CE1      -10.1130   16.5030  -23.6620 C.ar  289  PHE289     -0.0003
     73  CE2       -8.0670   16.0500  -24.8090 C.ar  289  PHE289     -0.0003
     74  CZ        -9.0280   15.6840  -23.8880 C.ar  289  PHE289     -0.0000
     75  N         -6.5190   20.2000  -26.1990 N.am  290  PHE290     -0.1976
     76  CA        -5.0990   19.8920  -26.0840 C.3   290  PHE290      0.1639
     77  C         -4.2780   21.0600  -25.5460 C.2   290  PHE290      0.2290
     78  O         -3.3280   20.8550  -24.7910 O.2   290  PHE290     -0.2864
     79  CB        -4.5340   19.3990  -27.4170 C.3   290  PHE290      0.0560
     80  CG        -5.0100   18.0300  -27.7960 C.ar  290  PHE290     -0.0200
     81  CD1       -4.7330   16.9420  -26.9840 C.ar  290  PHE290     -0.0042
     82  CD2       -5.7360   17.8290  -28.9560 C.ar  290  PHE290     -0.0042
     83  CE1       -5.1710   15.6840  -27.3200 C.ar  290  PHE290     -0.0003
     84  CE2       -6.1770   16.5670  -29.2970 C.ar  290  PHE290     -0.0003
     85  CZ        -5.8930   15.4950  -28.4760 C.ar  290  PHE290     -0.0000
     86  N        -12.2160  -13.0740  -25.7360 N.3   495  TYR495     -0.1241
     87  CA       -11.1810  -12.3870  -26.5000 C.3   495  TYR495      0.1605
     88  C        -10.0960  -13.3690  -26.9500 C.2   495  TYR495      0.2264
     89  O         -9.5540  -13.2530  -28.0500 O.2   495  TYR495     -0.2867
     90  CB       -10.5700  -11.2380  -25.6870 C.3   495  TYR495      0.0534
     91  CG        -9.4170  -10.5450  -26.3910 C.ar  495  TYR495     -0.0201
     92  CD1       -9.6480   -9.6320  -27.4160 C.ar  495  TYR495     -0.0009
     93  CD2       -8.0990  -10.8080  -26.0370 C.ar  495  TYR495     -0.0009
     94  CE1       -8.6010   -9.0050  -28.0660 C.ar  495  TYR495      0.0417
     95  CE2       -7.0470  -10.1850  -26.6790 C.ar  495  TYR495      0.0417
     96  CZ        -7.3010   -9.2850  -27.6940 C.ar  495  TYR495      0.1957
     97  OH        -6.2500   -8.6650  -28.3410 O.3   495  TYR495     -0.2866
     98  N        -11.2750  -15.1920  -29.8810 N.3   498  TYR498     -0.1227
     99  CA       -11.2680  -14.3250  -31.0510 C.3   498  TYR498      0.1736
    100  C         -9.8820  -14.2400  -31.6850 C.2   498  TYR498      0.2595
    101  O         -9.7370  -14.3800  -32.9010 O.2   498  TYR498     -0.2718
    102  CB       -11.7650  -12.9280  -30.6790 C.3   498  TYR498      0.0548
    103  CG       -11.5740  -11.9000  -31.7700 C.ar  498  TYR498     -0.0200
    104  CD1      -12.4130  -11.8690  -32.8750 C.ar  498  TYR498     -0.0009
    105  CD2      -10.5570  -10.9560  -31.6920 C.ar  498  TYR498     -0.0009
    106  CE1      -12.2440  -10.9260  -33.8750 C.ar  498  TYR498      0.0417
    107  CE2      -10.3800  -10.0100  -32.6840 C.ar  498  TYR498      0.0417
    108  CZ       -11.2260  -10.0000  -33.7740 C.ar  498  TYR498      0.1957
    109  OH       -11.0560   -9.0640  -34.7680 O.3   498  TYR498     -0.2866
    110  N         -8.8690  -14.0000  -30.8550 N.am  499  ARG499     -0.1980
    111  CA        -7.4900  -13.9130  -31.3230 C.3   499  ARG499      0.1597
    112  C         -7.0150  -15.2760  -31.8030 C.2   499  ARG499      0.2287
    113  O         -6.0460  -15.3850  -32.5490 O.2   499  ARG499     -0.2864
    114  CB        -6.5790  -13.3960  -30.2070 C.3   499  ARG499      0.0334
    115  CG        -6.8910  -11.9780  -29.7640 C.3   499  ARG499      0.0492
    116  CD        -6.2830  -10.9480  -30.7130 C.3   499  ARG499      0.2205
    117  NE        -4.8520  -10.7680  -30.4770 N.pl3 499  ARG499     -0.0865
    118  CZ        -4.0390  -10.0900  -31.2800 C.cat 499  ARG499      0.5346
    119  NH1       -4.5120   -9.5260  -32.3830 N.pl3 499  ARG499      0.1354
    120  NH2       -2.7500   -9.9810  -30.9840 N.pl3 499  ARG499      0.1354
    121  N         -8.3930  -15.7590  -35.3860 N.3   502  GLN502     -0.1245
    122  CA        -7.7050  -14.8910  -36.3280 C.3   502  GLN502      0.1566
    123  C         -6.5080  -15.6430  -36.8780 C.2   502  GLN502      0.2260
    124  O         -6.1990  -15.5630  -38.0660 O.2   502  GLN502     -0.2867
    125  CB        -7.2370  -13.6080  -35.6350 C.3   502  GLN502      0.0367
    126  CG        -7.8210  -12.3230  -36.1920 C.3   502  GLN502      0.0905
    127  CD        -7.1130  -11.0930  -35.6520 C.2   502  GLN502      0.2608
    128  OE1       -7.6080  -10.4320  -34.7390 O.2   502  GLN502     -0.2717
    129  NE2       -5.9400  -10.7890  -36.2050 N.am  502  GLN502     -0.0878
@<TRIPOS>BOND
     1   124   123    2
     2   123   122    1
     3   122   125    1
     4   122   121    1
     5   129   127   am
     6   126   127    1
     7   126   125    1
     8   127   128    2
     9   109   108    1
    10   106   108   ar
    11   106   104   ar
    12   108   107   ar
    13   101   100    2
    14   104   103   ar
    15   107   105   ar
    16   113   112    2
    17   119   118    1
    18   112   111    1
    19   103   105   ar
    20   103   102    1
    21   100    99    1
    22   100   110   am
    23    52    51    1
    24   111   110    1
    25   111   114    1
    26   118   120    1
    27   118   117    2
    28    99   102    1
    29    99    98    1
    30    36    35    2
    31    49    48    1
    32    49    50    1
    33   116   117    1
    34   116   115    1
    35    51    50    1
    36   114   115    1
    37    37    34    1
    38    48    45    1
    39    35    34    1
    40    35    38   am
    41    34    33    1
    42    44    45    1
    43    44    40   am
    44    45    46    1
    45    84    82   ar
    46    84    85   ar
    47    39    40    1
    48    39    38    1
    49    39    42    1
    50    40    41    2
    51    82    80   ar
    52    85    83   ar
    53    97    96    1
    54    42    43    1
    55    46    47    2
    56    46    53   am
    57    94    96   ar
    58    94    92   ar
    59    89    88    2
    60    80    79    1
    61    80    81   ar
    62    17    18   ar
    63    17    15   ar
    64    32    30    1
    65    96    95   ar
    66    24    23    1
    67    29    28    2
    68    79    76    1
    69    92    91   ar
    70    83    81   ar
    71    18    16   ar
    72    22    21    2
    73    53    54    1
    74    31    30    1
    75    27    30    1
    76    27    28    1
    77    27    26    1
    78    88    87    1
    79    15    13   ar
    80    95    93   ar
    81    87    86    1
    82    87    90    1
    83    21    26   am
    84    21    20    1
    85    91    93   ar
    86    91    90    1
    87    75    76    1
    88    75    66   am
    89    64    65    1
    90    23    20    1
    91    23    25    1
    92    76    77    1
    93    68    65    1
    94    68    69    1
    95    16    14   ar
    96    54    55    1
    97    54    57    1
    98    13    14   ar
    99    13    12    1
   100    77    78    2
   101    71    69   ar
   102    71    73   ar
   103    20    19    1
   104    55    56    2
   105    65    66    1
   106    69    70   ar
   107    66    67    2
   108    59    61   ar
   109    59    58   ar
   110    61    63   ar
   111    73    74   ar
   112    57    58    1
   113    11    10    2
   114    58    60   ar
   115    12     9    1
   116    63    62   ar
   117    60    62   ar
   118    70    72   ar
   119     9    10    1
   120     9     8    1
   121    74    72   ar
   122     4     3    2
   123     8     3   am
   124     6     5    1
   125     3     2    1
   126     5     2    1
   127     5     7    1
   128     2     1    1
