@<TRIPOS>MOLECULE
tmp/4c7tA00.pdb
 178 168 0 0 0
SMALL
GASTEIGER

@<TRIPOS>ATOM
      1  N        -13.0480    9.4180    5.2960 N.3    13  ARG13      -0.1231
      2  CA       -11.7520    8.7440    5.2160 C.3    13  ARG13       0.1694
      3  C        -10.9750    9.0940    3.9390 C.2    13  ARG13       0.2592
      4  O        -11.5730    9.3970    2.8910 O.2    13  ARG13      -0.2718
      5  CB       -11.9340    7.2240    5.3070 C.3    13  ARG13       0.0321
      6  CG       -12.5660    6.5930    4.0700 C.3    13  ARG13       0.0489
      7  CD       -12.5730    5.0760    4.1540 C.3    13  ARG13       0.2205
      8  NE       -13.3500    4.6020    5.2970 N.pl3  13  ARG13      -0.0865
      9  CZ       -13.8810    3.3850    5.3950 C.cat  13  ARG13       0.5346
     10  NH1      -13.7350    2.4970    4.4080 N.pl3  13  ARG13       0.1354
     11  NH2      -14.5640    3.0530    6.4870 N.pl3  13  ARG13       0.1354
     12  N         -9.6450    9.0600    4.0310 N.am   14  CYS14      -0.1956
     13  CA        -8.8310    9.2770    2.8440 C.3    14  CYS14       0.1843
     14  C         -8.8720    8.0600    1.9290 C.2    14  CYS14       0.2625
     15  O         -8.8770    6.9180    2.3740 O.2    14  CYS14      -0.2714
     16  CB        -7.3970    9.6950    3.1780 C.3    14  CYS14       0.0997
     17  SG        -6.5790    8.6850    4.4180 S.3    14  CYS14      -0.0797
     18  N         -8.9460    8.3370    0.6380 N.am   15  ILE15      -0.1963
     19  CA        -9.0540    7.2880   -0.3690 C.3    15  ILE15       0.1727
     20  C         -7.8380    7.2830   -1.2940 C.2    15  ILE15       0.2617
     21  O         -7.8060    6.5670   -2.2910 O.2    15  ILE15      -0.2715
     22  CB       -10.3730    7.4170   -1.1770 C.3    15  ILE15       0.0290
     23  CG1      -10.5440    8.8360   -1.7410 C.3    15  ILE15       0.0022
     24  CG2      -11.5580    7.0230   -0.3020 C.3    15  ILE15       0.0023
     25  CD1      -11.6660    8.9800   -2.7560 C.3    15  ILE15       0.0001
     26  N         -6.8350    8.0800   -0.9380 N.am   16  GLY16      -0.1940
     27  CA        -5.5840    8.1510   -1.6860 C.3    16  GLY16       0.2014
     28  C         -5.0060    9.5550   -1.6010 C.2    16  GLY16       0.2638
     29  O         -5.3340   10.3210   -0.6870 O.2    16  GLY16      -0.2714
     30  N         -4.1420    9.8880   -2.5570 N.am   17  GLU17      -0.1977
     31  CA        -3.5070   11.2030   -2.5960 C.3    17  GLU17       0.1602
     32  C         -2.9590   11.5570   -3.9750 C.2    17  GLU17       0.2287
     33  O         -2.7710   10.6900   -4.8260 O.2    17  GLU17      -0.2864
     34  CB        -2.3810   11.2830   -1.5580 C.3    17  GLU17       0.0415
     35  CG        -1.2050   10.3990   -1.8890 C.3    17  GLU17       0.1163
     36  CD        -0.2440   10.2520   -0.7320 C.2    17  GLU17       0.3649
     37  OE1       -0.2630   11.0640    0.2290 O.co2  17  GLU17      -0.2457
     38  OE2        0.5450    9.3030   -0.7970 O.co2  17  GLU17      -0.2457
     39  N         -6.5280   12.9500   -0.8540 N.3    23  VAL23      -0.1245
     40  CA        -7.8950   12.8740   -1.3530 C.3    23  VAL23       0.1561
     41  C         -8.7360   12.1040   -0.3420 C.2    23  VAL23       0.2260
     42  O         -8.2930   11.0710    0.1870 O.2    23  VAL23      -0.2867
     43  CB        -7.9950   12.1850   -2.7270 C.3    23  VAL23       0.0252
     44  CG1       -9.4210   12.2760   -3.2620 C.3    23  VAL23       0.0019
     45  CG2       -7.0160   12.7880   -3.7260 C.3    23  VAL23       0.0019
     46  N        -12.8940   10.6950    0.6960 N.3    25  GLN25      -0.1245
     47  CA       -14.2980   10.5570    0.3520 C.3    25  GLN25       0.1566
     48  C        -15.0590   11.3960    1.3700 C.2    25  GLN25       0.2260
     49  O        -14.5480   11.6820    2.4650 O.2    25  GLN25      -0.2867
     50  CB       -14.7600    9.1020    0.3790 C.3    25  GLN25       0.0367
     51  CG       -15.0800    8.5390    1.7550 C.3    25  GLN25       0.0905
     52  CD       -15.5630    7.1080    1.6790 C.2    25  GLN25       0.2608
     53  OE1      -15.7690    6.5770    0.5930 O.2    25  GLN25      -0.2717
     54  NE2      -15.7350    6.4730    2.8280 N.am   25  GLN25      -0.0878
     55  N        -15.8450   12.9080   -3.7340 N.3    39  ALA39      -0.1245
     56  CA       -14.4070   12.8250   -3.4880 C.3    39  ALA39       0.1562
     57  C        -13.9240   14.2620   -3.3210 C.2    39  ALA39       0.2260
     58  O        -14.4310   15.1770   -3.9870 O.2    39  ALA39      -0.2867
     59  CB       -13.6890   12.1380   -4.6430 C.3    39  ALA39       0.0290
     60  N        -15.4310   11.4550  -14.5350 N.3    71  VAL71      -0.1245
     61  CA       -15.8570   12.0110  -13.2560 C.3    71  VAL71       0.1561
     62  C        -16.1320   13.5100  -13.3820 C.2    71  VAL71       0.2260
     63  O        -15.3960   14.2280  -14.0580 O.2    71  VAL71      -0.2867
     64  CB       -14.8500   11.7420  -12.1110 C.3    71  VAL71       0.0252
     65  CG1      -14.8570   10.2690  -11.7360 C.3    71  VAL71       0.0019
     66  CG2      -13.4390   12.1800  -12.5040 C.3    71  VAL71       0.0019
     67  N        -15.3560   16.5460   -6.1060 N.3    86  MET86      -0.1230
     68  CA       -15.6880   15.7760   -7.3180 C.3    86  MET86       0.1702
     69  C        -16.7710   14.7460   -7.0170 C.2    86  MET86       0.2592
     70  O        -16.9780   14.3760   -5.8660 O.2    86  MET86      -0.2718
     71  CB       -14.4710   15.0050   -7.8640 C.3    86  MET86       0.0401
     72  CG       -13.1790   15.7960   -8.0520 C.3    86  MET86       0.0596
     73  SD       -13.2770   17.0260   -9.3690 S.3    86  MET86      -0.1393
     74  CE       -13.5680   16.0080  -10.8210 C.3    86  MET86       0.0692
     75  N        -17.4330   14.2750   -8.0760 N.am   87  GLU87      -0.1966
     76  CA       -18.3230   13.1160   -8.0180 C.3    87  GLU87       0.1733
     77  C        -17.5660   11.8680   -7.5280 C.2    87  GLU87       0.2616
     78  O        -16.5250   11.5160   -8.0850 O.2    87  GLU87      -0.2715
     79  CB       -18.9110   12.8640   -9.4210 C.3    87  GLU87       0.0429
     80  CG       -19.3880   11.4360   -9.6730 C.3    87  GLU87       0.1163
     81  CD       -19.5980   11.1090  -11.1480 C.2    87  GLU87       0.3649
     82  OE1      -19.1950   11.8960  -12.0340 O.co2  87  GLU87      -0.2457
     83  OE2      -20.1640   10.0310  -11.4170 O.co2  87  GLU87      -0.2457
     84  N        -18.0920   11.2000   -6.5060 N.am   88  LEU88      -0.1963
     85  CA       -17.4650    9.9750   -5.9980 C.3    88  LEU88       0.1728
     86  C        -17.8610    8.7110   -6.7700 C.2    88  LEU88       0.2616
     87  O        -19.0380    8.4730   -7.0280 O.2    88  LEU88      -0.2715
     88  CB       -17.7500    9.7790   -4.5060 C.3    88  LEU88       0.0311
     89  CG       -17.0490    8.5710   -3.8660 C.3    88  LEU88       0.0022
     90  CD1      -15.6090    8.8930   -3.4730 C.3    88  LEU88       0.0001
     91  CD2      -17.8440    8.0650   -2.6730 C.3    88  LEU88       0.0001
     92  N        -16.8710    7.9060   -7.1510 N.am   89  CYS89      -0.1954
     93  CA       -17.1490    6.5520   -7.6300 C.3    89  CYS89       0.1843
     94  C        -16.9440    5.6320   -6.4400 C.2    89  CYS89       0.2626
     95  O        -15.8140    5.4480   -5.9690 O.2    89  CYS89      -0.2714
     96  CB       -16.2510    6.1710   -8.8010 C.3    89  CYS89       0.0997
     97  SG       -16.3970    7.3130  -10.1890 S.3    89  CYS89      -0.0797
     98  N        -18.0500    5.0720   -5.9500 N.am   90  THR90      -0.1936
     99  CA       -18.1010    4.4430   -4.6270 C.3    90  THR90       0.2028
    100  C        -17.3470    3.1050   -4.5390 C.2    90  THR90       0.2642
    101  O        -17.0060    2.6420   -3.4460 O.2    90  THR90      -0.2714
    102  CB       -19.5650    4.2810   -4.1450 C.3    90  THR90       0.1808
    103  OG1      -19.5850    3.9950   -2.7430 O.3    90  THR90      -0.2208
    104  CG2      -20.2750    3.1620   -4.8960 C.3    90  THR90       0.0379
    105  N        -17.0860    2.4900   -5.6850 N.am   91  LEU91      -0.1963
    106  CA       -16.4280    1.1740   -5.7060 C.3    91  LEU91       0.1728
    107  C        -14.9270    1.2180   -5.9930 C.2    91  LEU91       0.2617
    108  O        -14.2880    0.1780   -6.1450 O.2    91  LEU91      -0.2715
    109  CB       -17.1330    0.2230   -6.6770 C.3    91  LEU91       0.0311
    110  CG       -18.5780   -0.0610   -6.2680 C.3    91  LEU91       0.0022
    111  CD1      -19.3840   -0.6970   -7.3920 C.3    91  LEU91       0.0001
    112  CD2      -18.5970   -0.9130   -5.0010 C.3    91  LEU91       0.0001
    113  N        -14.3710    2.4160   -6.1010 N.am   92  GLY92      -0.1940
    114  CA       -12.9170    2.5740   -6.1580 C.3    92  GLY92       0.2014
    115  C        -12.2490    2.2900   -7.4890 C.2    92  GLY92       0.2638
    116  O        -12.8570    2.4500   -8.5550 O.2    92  GLY92      -0.2714
    117  N        -10.9790    1.8960   -7.4030 N.am   93  GLU93      -0.1977
    118  CA       -10.1110    1.6780   -8.5680 C.3    93  GLU93       0.1602
    119  C        -10.5170    0.4290   -9.3490 C.2    93  GLU93       0.2287
    120  O        -10.8550   -0.6030   -8.7520 O.2    93  GLU93      -0.2864
    121  CB        -8.6520    1.5570   -8.0990 C.3    93  GLU93       0.0415
    122  CG        -7.6220    1.4120   -9.2090 C.3    93  GLU93       0.1163
    123  CD        -6.2240    1.7280   -8.7270 C.2    93  GLU93       0.3649
    124  OE1       -6.0530    1.9710   -7.5130 O.co2  93  GLU93      -0.2457
    125  OE2       -5.2940    1.7250   -9.5540 O.co2  93  GLU93      -0.2457
    126  N         -5.3020    1.8550  -13.7610 N.3   137  ARG137     -0.1231
    127  CA        -5.1120    2.4940  -12.4600 C.3   137  ARG137      0.1694
    128  C         -5.8770    3.8170  -12.3450 C.2   137  ARG137      0.2592
    129  O         -6.1200    4.2960  -11.2360 O.2   137  ARG137     -0.2718
    130  CB        -3.6050    2.7260  -12.1680 C.3   137  ARG137      0.0321
    131  CG        -2.9220    3.7000  -13.1240 C.3   137  ARG137      0.0489
    132  CD        -1.4750    4.0180  -12.7500 C.3   137  ARG137      0.2205
    133  NE        -0.8860    4.9240  -13.7380 N.pl3 137  ARG137     -0.0865
    134  CZ        -0.2760    4.5180  -14.8510 C.cat 137  ARG137      0.5346
    135  NH1       -0.1600    3.2210  -15.1100 N.pl3 137  ARG137      0.1354
    136  NH2        0.2070    5.4070  -15.7060 N.pl3 137  ARG137      0.1354
    137  N         -6.2520    4.3970  -13.4920 N.am  138  ASN138     -0.1974
    138  CA        -6.9070    5.7140  -13.5230 C.3   138  ASN138      0.1688
    139  C         -8.3620    5.6280  -13.9000 C.2   138  ASN138      0.2292
    140  O         -9.0180    6.6470  -14.1260 O.2   138  ASN138     -0.2864
    141  CB        -6.1690    6.6590  -14.4780 C.3   138  ASN138      0.1181
    142  CG        -4.7720    6.9740  -14.0030 C.2   138  ASN138      0.2629
    143  OD1       -4.5350    7.0600  -12.8140 O.2   138  ASN138     -0.2716
    144  ND2       -3.8490    7.1520  -14.9260 N.am  138  ASN138     -0.0877
    145  N        -12.1160    4.3560  -12.6470 N.3   140  LEU140     -0.1245
    146  CA       -12.8460    4.2060  -11.3840 C.3   140  LEU140      0.1561
    147  C        -14.1510    3.4880  -11.6090 C.2   140  LEU140      0.2260
    148  O        -14.6660    3.4960  -12.7160 O.2   140  LEU140     -0.2867
    149  CB       -13.1160    5.5750  -10.7580 C.3   140  LEU140      0.0270
    150  CG       -11.8490    6.4220  -10.5910 C.3   140  LEU140      0.0019
    151  CD1      -12.1950    7.8500  -10.2340 C.3   140  LEU140      0.0001
    152  CD2      -10.9390    5.8000   -9.5390 C.3   140  LEU140      0.0001
    153  N        -10.9650    8.7630  -14.2560 N.3   150  GLY150     -0.1210
    154  CA       -10.7770    9.5110  -13.0290 C.3   150  GLY150      0.1956
    155  C        -10.3560   10.9430  -13.2840 C.2   150  GLY150      0.2611
    156  O        -10.2350   11.3600  -14.4260 O.2   150  GLY150     -0.2717
    157  N        -10.1610   11.6970  -12.2030 N.am  151  ASP151     -0.1973
    158  CA        -9.6810   13.0690  -12.2810 C.3   151  ASP151      0.1709
    159  C         -8.3950   13.1160  -13.1100 C.2   151  ASP151      0.2293
    160  O         -7.5170   12.2570  -12.9630 O.2   151  ASP151     -0.2864
    161  CB        -9.4500   13.6050  -10.8670 C.3   151  ASP151      0.1436
    162  CG        -9.0110   15.0420  -10.8540 C.2   151  ASP151      0.3671
    163  OD1       -9.8760   15.9280  -11.0130 O.co2 151  ASP151     -0.2456
    164  OD2       -7.8000   15.2980  -10.6700 O.co2 151  ASP151     -0.2456
    165  N         -5.1450   13.9080  -10.9750 N.3   154  LEU154     -0.1231
    166  CA        -4.7710   12.7370  -10.1850 C.3   154  LEU154      0.1693
    167  C         -4.2730   11.5630  -11.0250 C.2   154  LEU154      0.2592
    168  O         -3.6580   10.6400  -10.4930 O.2   154  LEU154     -0.2718
    169  CB        -5.9560   12.2760   -9.3290 C.3   154  LEU154      0.0284
    170  CG        -6.4910   13.2860   -8.3040 C.3   154  LEU154      0.0019
    171  CD1       -7.7930   12.7820   -7.6970 C.3   154  LEU154      0.0001
    172  CD2       -5.4540   13.5840   -7.2330 C.3   154  LEU154      0.0001
    173  N         -4.5690   11.5900  -12.3240 N.am  155  SER155     -0.1952
    174  CA        -4.1130   10.5670  -13.2570 C.3   155  SER155      0.1924
    175  C         -2.6420   10.6990  -13.5980 C.2   155  SER155      0.2314
    176  O         -2.0580    9.7840  -14.1690 O.2   155  SER155     -0.2863
    177  CB        -4.9170   10.6310  -14.5510 C.3   155  SER155      0.2116
    178  OG        -6.2170   10.1520  -14.3230 O.3   155  SER155     -0.2180
@<TRIPOS>BOND
     1   136   134    1
     2   135   134    1
     3   144   142   am
     4   134   133    2
     5   177   178    1
     6   177   174    1
     7    60    61    1
     8   141   142    1
     9   141   138    1
    10   156   155    2
    11   153   154    1
    12   176   175    2
    13   140   139    2
    14    63    62    2
    15   142   143    2
    16   139   138    1
    17   126   127    1
    18   133   132    1
    19   175   174    1
    20   138   137    1
    21   137   128   am
    22    62    61    1
    23   155   154    1
    24   155   157   am
    25   174   173    1
    26    61    64    1
    27   131   132    1
    28   131   130    1
    29   159   160    2
    30   159   158    1
    31   148   147    2
    32   145   146    1
    33    66    64    1
    34   127   128    1
    35   127   130    1
    36   128   129    2
    37   173   167   am
    38   158   157    1
    39   158   161    1
    40    64    65    1
    41    82    81   ar
    42   147   146    1
    43    83    81   ar
    44   146   149    1
    45    81    80    1
    46   167   168    2
    47   167   166    1
    48   163   162   ar
    49   165   166    1
    50   161   162    1
    51   162   164   ar
    52    74    73    1
    53   149   150    1
    54   150   151    1
    55   150   152    1
    56    97    96    1
    57   166   169    1
    58    80    79    1
    59   125   123   ar
    60    79    76    1
    61    73    72    1
    62   119   120    2
    63   119   118    1
    64   169   170    1
    65   122   123    1
    66   122   121    1
    67    96    93    1
    68   123   124   ar
    69   118   121    1
    70   118   117    1
    71   116   115    2
    72   170   171    1
    73   170   172    1
    74    78    77    2
    75    75    76    1
    76    75    69   am
    77    72    71    1
    78    76    77    1
    79    71    68    1
    80    93    92    1
    81    93    94    1
    82    77    84   am
    83   115   117   am
    84   115   114    1
    85   111   110    1
    86    68    69    1
    87    68    67    1
    88    92    86   am
    89    87    86    2
    90    69    70    2
    91    86    85    1
    92   109   110    1
    93   109   106    1
    94    84    85    1
    95    94    95    2
    96    94    98   am
    97   110   112    1
    98   114   113    1
    99   108   107    2
   100   113   107   am
   101    85    88    1
   102   107   106    1
   103    98    99    1
   104   106   105    1
   105   105   100   am
   106   104   102    1
   107    33    32    2
   108    59    56    1
   109    99   100    1
   110    99   102    1
   111   100   101    2
   112    88    89    1
   113   102   103    1
   114    58    57    2
   115    32    31    1
   116    89    90    1
   117    89    91    1
   118    55    56    1
   119    45    43    1
   120    56    57    1
   121    44    43    1
   122    25    23    1
   123    43    40    1
   124    31    30    1
   125    31    34    1
   126    30    28   am
   127    21    20    2
   128    35    34    1
   129    35    36    1
   130    23    22    1
   131    27    28    1
   132    27    26    1
   133    28    29    2
   134    40    39    1
   135    40    41    1
   136    20    26   am
   137    20    19    1
   138    22    19    1
   139    22    24    1
   140    38    36   ar
   141    36    37   ar
   142    19    18    1
   143    41    42    2
   144    47    50    1
   145    47    46    1
   146    47    48    1
   147    50    51    1
   148    53    52    2
   149    18    14   am
   150    48    49    2
   151    52    51    1
   152    52    54   am
   153    14    15    2
   154    14    13    1
   155    13    16    1
   156    13    12    1
   157     4     3    2
   158    16    17    1
   159     3    12   am
   160     3     2    1
   161     6     7    1
   162     6     5    1
   163     7     8    1
   164    10     9    1
   165     2     1    1
   166     2     5    1
   167     8     9    2
   168     9    11    1
