@<TRIPOS>MOLECULE
tmp/4c7wA00.pdb
 111 106 0 0 0
SMALL
GASTEIGER

@<TRIPOS>ATOM
      1  N        -14.3190  -10.2940   -1.7350 N.3    83  LEU83      -0.1231
      2  CA       -13.2200   -9.7350   -2.5060 C.3    83  LEU83       0.1693
      3  C        -12.7640  -10.7350   -3.5580 C.2    83  LEU83       0.2591
      4  O        -12.9790  -11.9360   -3.4120 O.2    83  LEU83      -0.2718
      5  CB       -12.0480   -9.4090   -1.5800 C.3    83  LEU83       0.0284
      6  CG       -12.3020   -8.4670   -0.3960 C.3    83  LEU83       0.0019
      7  CD1      -11.1280   -8.5330    0.5990 C.3    83  LEU83       0.0001
      8  CD2      -12.5430   -7.0290   -0.8650 C.3    83  LEU83       0.0001
      9  N        -12.1190  -10.2270   -4.6030 N.am   84  ALA84      -0.1980
     10  CA       -11.6950  -11.0440   -5.7390 C.3    84  ALA84       0.1597
     11  C        -10.8350  -12.2300   -5.3080 C.2    84  ALA84       0.2287
     12  O        -10.9550  -13.3130   -5.8750 O.2    84  ALA84      -0.2864
     13  CB       -10.9520  -10.1920   -6.7640 C.3    84  ALA84       0.0319
     14  N        -18.2100   -2.2340    0.3820 N.3   130  ILE130     -0.1245
     15  CA       -16.8630   -2.7790    0.3020 C.3   130  ILE130      0.1561
     16  C        -16.8420   -4.2840    0.0340 C.2   130  ILE130      0.2260
     17  O        -15.8430   -4.8000   -0.4640 O.2   130  ILE130     -0.2867
     18  CB       -16.0640   -2.4650    1.5980 C.3   130  ILE130      0.0252
     19  CG1      -14.5730   -2.7750    1.4070 C.3   130  ILE130      0.0019
     20  CG2      -16.6210   -3.2400    2.7780 C.3   130  ILE130      0.0019
     21  CD1      -13.6770   -2.1820    2.4870 C.3   130  ILE130      0.0001
     22  N         -6.0550    4.3850    7.9980 N.3   153  TYR153     -0.1241
     23  CA        -7.1260    3.6920    8.7070 C.3   153  TYR153      0.1605
     24  C         -6.8260    3.3750   10.1780 C.2   153  TYR153      0.2264
     25  O         -7.5290    2.5750   10.7930 O.2   153  TYR153     -0.2867
     26  CB        -7.5270    2.4400    7.9270 C.3   153  TYR153      0.0534
     27  CG        -8.2460    2.7880    6.6500 C.ar  153  TYR153     -0.0201
     28  CD1       -7.5450    3.0930    5.4800 C.ar  153  TYR153     -0.0009
     29  CD2       -9.6260    2.8640    6.6240 C.ar  153  TYR153     -0.0009
     30  CE1       -8.2190    3.4310    4.3130 C.ar  153  TYR153      0.0417
     31  CE2      -10.3000    3.2000    5.4740 C.ar  153  TYR153      0.0417
     32  CZ        -9.6040    3.4780    4.3260 C.ar  153  TYR153      0.1957
     33  OH       -10.3230    3.8030    3.2040 O.3   153  TYR153     -0.2866
     34  N        -13.1820   -8.0500    8.8440 N.3   176  PHE176     -0.1241
     35  CA       -12.3350   -8.6010    7.8090 C.3   176  PHE176      0.1605
     36  C        -11.1640   -9.2440    8.5280 C.2   176  PHE176      0.2264
     37  O        -10.4550   -8.5850    9.2900 O.2   176  PHE176     -0.2867
     38  CB       -11.8650   -7.5160    6.8610 C.3   176  PHE176      0.0534
     39  CG       -12.9020   -7.0930    5.8980 C.ar  176  PHE176     -0.0203
     40  CD1      -13.1600   -7.8510    4.7830 C.ar  176  PHE176     -0.0042
     41  CD2      -13.6230   -5.9410    6.1020 C.ar  176  PHE176     -0.0042
     42  CE1      -14.1110   -7.4660    3.8770 C.ar  176  PHE176     -0.0003
     43  CE2      -14.5870   -5.5480    5.2020 C.ar  176  PHE176     -0.0003
     44  CZ       -14.8330   -6.3100    4.0860 C.ar  176  PHE176     -0.0000
     45  N         -5.9640   -6.4230    6.2150 N.3   180  SER180     -0.1202
     46  CA        -6.8210   -5.5120    5.4610 C.3   180  SER180      0.2020
     47  C         -6.0000   -4.3810    4.8410 C.2   180  SER180      0.2619
     48  O         -5.0390   -3.8910    5.4480 O.2   180  SER180     -0.2717
     49  CB        -7.9110   -4.9210    6.3600 C.3   180  SER180      0.2103
     50  OG        -8.7560   -5.9260    6.8910 O.3   180  SER180     -0.2182
     51  N         -6.3870   -3.9740    3.6340 N.am  181  LYS181     -0.1965
     52  CA        -5.6580   -2.9520    2.8840 C.3   181  LYS181      0.1728
     53  C         -6.5020   -1.6880    2.7150 C.2   181  LYS181      0.2617
     54  O         -7.6910   -1.7580    2.3760 O.2   181  LYS181     -0.2715
     55  CB        -5.2270   -3.4940    1.5070 C.3   181  LYS181      0.0311
     56  CG        -3.8520   -4.1520    1.4900 C.3   181  LYS181      0.0038
     57  CD        -2.7500   -3.1070    1.6140 C.3   181  LYS181      0.0206
     58  CE        -1.3570   -3.7050    1.4610 C.3   181  LYS181      0.1093
     59  NZ        -0.9520   -3.8000    0.0310 N.3   181  LYS181     -0.1314
     60  N         -5.8730   -0.5360    2.9530 N.am  182  GLY182     -0.1940
     61  CA        -6.5330    0.7600    2.8100 C.3   182  GLY182      0.2014
     62  C         -6.6230    1.1860    1.3570 C.2   182  GLY182      0.2640
     63  O         -7.6840    1.5970    0.8850 O.2   182  GLY182     -0.2714
     64  N         -5.4970    1.1050    0.6520 N.am  183  SER183     -0.1935
     65  CA        -5.4770    1.3430   -0.7900 C.3   183  SER183      0.2055
     66  C         -4.2920    0.6490   -1.4630 C.2   183  SER183      0.2643
     67  O         -3.2750    0.3530   -0.8270 O.2   183  SER183     -0.2714
     68  CB        -5.4810    2.8470   -1.1160 C.3   183  SER183      0.2130
     69  OG        -4.1930    3.3260   -1.4530 O.3   183  SER183     -0.2179
     70  N         -4.4460    0.4020   -2.7600 N.am  184  SER184     -0.1949
     71  CA        -3.4050   -0.2170   -3.5750 C.3   184  SER184      0.1924
     72  C         -2.2030    0.7140   -3.8090 C.2   184  SER184      0.2314
     73  O         -1.1410    0.2500   -4.2130 O.2   184  SER184     -0.2863
     74  CB        -3.9970   -0.6990   -4.9090 C.3   184  SER184      0.2116
     75  OG        -5.1000    0.0990   -5.3140 O.3   184  SER184     -0.2180
     76  N         -5.5060  -10.0590    0.0010 N.3   217  ASN217     -0.1240
     77  CA        -6.3270  -10.0420   -1.2190 C.3   217  ASN217      0.1653
     78  C         -5.4640   -9.9760   -2.4830 C.2   217  ASN217      0.2266
     79  O         -5.6380   -9.0900   -3.3270 O.2   217  ASN217     -0.2867
     80  CB        -7.2890   -8.8450   -1.1940 C.3   217  ASN217      0.1155
     81  CG        -8.3100   -8.8820   -2.3240 C.2   217  ASN217      0.2627
     82  OD1       -8.7230   -9.9530   -2.7710 O.2   217  ASN217     -0.2716
     83  ND2       -8.7200   -7.7110   -2.7900 N.am  217  ASN217     -0.0877
     84  N         -8.3010  -13.1130    2.5480 N.3   224  LEU224     -0.1245
     85  CA        -8.9550  -12.0630    3.2990 C.3   224  LEU224      0.1561
     86  C        -10.4500  -12.0450    2.9630 C.2   224  LEU224      0.2260
     87  O        -10.8350  -11.9880    1.7900 O.2   224  LEU224     -0.2867
     88  CB        -8.3350  -10.7050    2.9860 C.3   224  LEU224      0.0270
     89  CG        -8.9230   -9.5110    3.7550 C.3   224  LEU224      0.0019
     90  CD1       -8.6190   -9.6340    5.2590 C.3   224  LEU224      0.0001
     91  CD2       -8.3860   -8.1950    3.2140 C.3   224  LEU224      0.0001
     92  N         -9.6610    0.4300   11.2820 N.3   245  TYR245     -0.1227
     93  CA       -10.2600    0.1440    9.9760 C.3   245  TYR245      0.1736
     94  C        -11.6900    0.6780    9.9260 C.2   245  TYR245      0.2595
     95  O        -12.0260    1.5630   10.7020 O.2   245  TYR245     -0.2718
     96  CB       -10.1610   -1.3580    9.6450 C.3   245  TYR245      0.0548
     97  CG       -10.0500   -1.6540    8.1610 C.ar  245  TYR245     -0.0200
     98  CD1       -9.0060   -1.1370    7.4000 C.ar  245  TYR245     -0.0009
     99  CD2      -10.9940   -2.4480    7.5200 C.ar  245  TYR245     -0.0009
    100  CE1       -8.9090   -1.4060    6.0390 C.ar  245  TYR245      0.0417
    101  CE2      -10.9100   -2.7180    6.1650 C.ar  245  TYR245      0.0417
    102  CZ        -9.8680   -2.1990    5.4320 C.ar  245  TYR245      0.1957
    103  OH        -9.7960   -2.4790    4.0930 O.3   245  TYR245     -0.2866
    104  N        -12.5280    0.1640    9.0290 N.am  246  LEU246     -0.1980
    105  CA       -13.8490    0.7460    8.7990 C.3   246  LEU246      0.1596
    106  C        -14.8440    0.3700    9.8960 C.2   246  LEU246      0.2287
    107  O        -14.9690   -0.8030   10.2660 O.2   246  LEU246     -0.2864
    108  CB       -14.4060    0.3210    7.4380 C.3   246  LEU246      0.0297
    109  CG       -13.5600    0.6660    6.2030 C.3   246  LEU246      0.0022
    110  CD1      -14.0010   -0.1620    5.0170 C.3   246  LEU246      0.0001
    111  CD2      -13.6470    2.1090    5.8640 C.3   246  LEU246      0.0001
@<TRIPOS>BOND
     1    13    10    1
     2    12    11    2
     3    10    11    1
     4    10     9    1
     5    75    74    1
     6    74    71    1
     7     9     3   am
     8    73    72    2
     9    72    71    1
    10    71    70    1
    11     3     4    2
    12     3     2    1
    13    79    78    2
    14    83    81   am
    15    82    81    2
    16    70    66   am
    17     2     1    1
    18     2     5    1
    19    78    77    1
    20    81    80    1
    21     5     6    1
    22    66    67    2
    23    66    65    1
    24    69    68    1
    25    77    80    1
    26    77    76    1
    27    68    65    1
    28     8     6    1
    29    65    64    1
    30    17    16    2
    31     6     7    1
    32    59    58    1
    33    16    15    1
    34    15    14    1
    35    15    18    1
    36    64    62   am
    37    63    62    2
    38    62    61    1
    39    19    18    1
    40    19    21    1
    41    58    57    1
    42    56    55    1
    43    56    57    1
    44    55    52    1
    45    18    20    1
    46    87    86    2
    47    54    53    2
    48    84    85    1
    49    53    52    1
    50    53    60   am
    51    61    60    1
    52    52    51    1
    53    86    85    1
    54    88    85    1
    55    88    89    1
    56    33    32    1
    57    91    89    1
    58    51    47   am
    59    89    90    1
    60    42    44   ar
    61    42    40   ar
    62    44    43   ar
    63   103   102    1
    64    30    32   ar
    65    30    28   ar
    66    32    31   ar
    67    40    39   ar
    68    47    48    2
    69    47    46    1
    70   110   109    1
    71    43    41   ar
    72   102   100   ar
    73   102   101   ar
    74    46    45    1
    75    46    49    1
    76    31    29   ar
    77    28    27   ar
    78   111   109    1
    79    39    41   ar
    80    39    38    1
    81   100    98   ar
    82   101    99   ar
    83   109   108    1
    84    49    50    1
    85    29    27   ar
    86    27    26    1
    87    38    35    1
    88    98    97   ar
    89   108   105    1
    90    99    97   ar
    91    35    36    1
    92    35    34    1
    93    26    23    1
    94    22    23    1
    95    97    96    1
    96    36    37    2
    97    23    24    1
    98   105   104    1
    99   105   106    1
   100   104    94   am
   101    96    93    1
   102   106   107    2
   103    94    93    1
   104    94    95    2
   105    93    92    1
   106    24    25    2
