@<TRIPOS>MOLECULE
tmp/4c7xA00.pdb
 159 151 0 0 0
SMALL
GASTEIGER

@<TRIPOS>ATOM
      1  N         17.6910   53.4580  -22.9680 N.3    28  HIS28      -0.1241
      2  CA        17.7970   52.0490  -22.6230 C.3    28  HIS28       0.1621
      3  C         16.4540   51.5040  -22.9890 C.2    28  HIS28       0.2264
      4  O         15.4570   51.7520  -22.3000 O.2    28  HIS28      -0.2867
      5  CB        17.9940   51.8780  -21.1170 C.3    28  HIS28       0.0745
      6  CG        19.2520   52.4980  -20.5690 C.ar   28  HIS28       0.0817
      7  ND1       19.3470   53.8360  -20.2410 N.ar   28  HIS28      -0.2268
      8  CD2       20.4700   51.9560  -20.2950 C.ar   28  HIS28       0.1154
      9  CE1       20.5720   54.0960  -19.8010 C.ar   28  HIS28       0.1986
     10  NE2       21.2750   52.9720  -19.8270 N.ar   28  HIS28      -0.2212
     11  N         14.6130   47.2770  -21.3190 N.3    31  LEU31      -0.1245
     12  CA        13.7210   47.1700  -20.1650 C.3    31  LEU31       0.1561
     13  C         12.3040   47.7290  -20.5050 C.2    31  LEU31       0.2260
     14  O         11.3110   47.0760  -20.2900 O.2    31  LEU31      -0.2867
     15  CB        14.3400   47.8750  -18.8920 C.3    31  LEU31       0.0270
     16  CG        13.5090   47.8160  -17.5920 C.3    31  LEU31       0.0019
     17  CD1       14.2900   48.1700  -16.3170 C.3    31  LEU31       0.0001
     18  CD2       12.2640   48.7250  -17.7090 C.3    31  LEU31       0.0001
     19  N         15.2670   49.9670  -11.1590 N.3    67  ALA67      -0.1245
     20  CA        16.0680   49.8340  -12.3930 C.3    67  ALA67       0.1562
     21  C         15.8770   51.1290  -13.1620 C.2    67  ALA67       0.2260
     22  O         15.0990   51.2300  -14.1460 O.2    67  ALA67      -0.2867
     23  CB        15.6290   48.6270  -13.2070 C.3    67  ALA67       0.0290
     24  N         17.3540   52.9020  -15.0990 N.3    69  HIS69      -0.1241
     25  CA        17.5820   53.0260  -16.5230 C.3    69  HIS69       0.1621
     26  C         16.3390   52.8100  -17.4030 C.2    69  HIS69       0.2264
     27  O         16.3370   53.2440  -18.5640 O.2    69  HIS69      -0.2867
     28  CB        18.7350   52.1470  -16.9750 C.3    69  HIS69       0.0745
     29  CG        18.4730   50.6870  -16.8530 C.ar   69  HIS69       0.0817
     30  ND1       18.6370   50.0030  -15.6770 N.ar   69  HIS69      -0.2268
     31  CD2       18.0870   49.7770  -17.7680 C.ar   69  HIS69       0.1154
     32  CE1       18.3800   48.7220  -15.8730 C.ar   69  HIS69       0.1986
     33  NE2       18.0220   48.5650  -17.1340 N.ar   69  HIS69      -0.2212
     34  N         18.0710   59.4710  -16.1650 N.3   103  HIS103     -0.1241
     35  CA        17.5550   58.6900  -15.0180 C.3   103  HIS103      0.1621
     36  C         16.5610   59.4540  -14.1430 C.2   103  HIS103      0.2264
     37  O         16.5500   60.7000  -14.1170 O.2   103  HIS103     -0.2867
     38  CB        18.6890   58.1850  -14.1640 C.3   103  HIS103      0.0745
     39  CG        19.5220   57.1960  -14.8740 C.ar  103  HIS103      0.0817
     40  ND1       20.5630   57.5680  -15.6820 N.ar  103  HIS103     -0.2268
     41  CD2       19.4530   55.8450  -14.9390 C.ar  103  HIS103      0.1154
     42  CE1       21.1040   56.4990  -16.2270 C.ar  103  HIS103      0.1986
     43  NE2       20.4640   55.4400  -15.7740 N.ar  103  HIS103     -0.2212
     44  N         18.8790   56.2900  -10.3960 N.3   117  GLY117     -0.1210
     45  CA        20.0830   55.8880  -11.1710 C.3   117  GLY117      0.1940
     46  C         21.0440   54.8190  -10.5750 C.2   117  GLY117      0.2454
     47  O         21.2730   53.7770  -11.1670 O.2   117  GLY117     -0.2732
     48  N         21.5780   55.0490   -9.3820 N.am  118  PRO118     -0.2717
     49  CA        22.4020   54.0820   -8.7040 C.3   118  PRO118      0.1535
     50  C         21.6010   52.7890   -8.3100 C.2   118  PRO118      0.2598
     51  O         20.6540   52.8260   -7.5180 O.2   118  PRO118     -0.2715
     52  CB        22.8660   54.8350   -7.4380 C.3   118  PRO118      0.0310
     53  CG        22.3830   56.2440   -7.5550 C.3   118  PRO118      0.0237
     54  CD        21.2230   56.1700   -8.5170 C.3   118  PRO118      0.0939
     55  N         22.0140   51.6610   -8.8560 N.am  119  LEU119     -0.1978
     56  CA        21.3210   50.3850   -8.6590 C.3   119  LEU119      0.1596
     57  C         21.3700   49.8590   -7.2400 C.2   119  LEU119      0.2287
     58  O         22.3240   50.1040   -6.4810 O.2   119  LEU119     -0.2864
     59  CB        21.9520   49.3460   -9.5400 C.3   119  LEU119      0.0297
     60  CG        21.6350   49.3950  -11.0050 C.3   119  LEU119      0.0022
     61  CD1       22.5770   48.4950  -11.7770 C.3   119  LEU119      0.0001
     62  CD2       20.2160   48.9550  -11.2420 C.3   119  LEU119      0.0001
     63  N         15.5830   44.8850  -11.4710 N.3   157  GLY157     -0.1210
     64  CA        16.1300   44.0470  -12.4970 C.3   157  GLY157      0.1956
     65  C         17.2450   43.2200  -11.9020 C.2   157  GLY157      0.2612
     66  O         17.4460   43.2120  -10.6900 O.2   157  GLY157     -0.2717
     67  N         18.0260   42.5870  -12.7740 N.am  158  ASP158     -0.1959
     68  CA        19.0660   41.6750  -12.3340 C.3   158  ASP158      0.1840
     69  C         20.1390   42.4800  -11.6290 C.2   158  ASP158      0.2623
     70  O         20.6690   42.0250  -10.6410 O.2   158  ASP158     -0.2715
     71  CB        19.6760   40.9290  -13.5000 C.3   158  ASP158      0.1450
     72  CG        18.6860   40.0500  -14.2260 C.2   158  ASP158      0.3671
     73  OD1       18.1850   39.0690  -13.6060 O.co2 158  ASP158     -0.2456
     74  OD2       18.4460   40.3180  -15.4340 O.co2 158  ASP158     -0.2456
     75  N         20.3770   43.7030  -12.0810 N.am  159  GLY159     -0.1940
     76  CA        21.3330   44.5860  -11.4460 C.3   159  GLY159      0.2014
     77  C         21.0800   44.8470   -9.9840 C.2   159  GLY159      0.2638
     78  O         21.9900   44.7170   -9.1510 O.2   159  GLY159     -0.2714
     79  N         19.8540   45.2950   -9.6860 N.am  160  ASP160     -0.1971
     80  CA        19.4390   45.5820   -8.2930 C.3   160  ASP160      0.1709
     81  C         19.7450   44.4100   -7.3800 C.2   160  ASP160      0.2293
     82  O         20.2200   44.6010   -6.2860 O.2   160  ASP160     -0.2864
     83  CB        17.9550   45.8390   -8.2600 C.3   160  ASP160      0.1436
     84  CG        17.5920   47.1950   -8.8860 C.2   160  ASP160      0.3671
     85  OD1       18.0600   48.2620   -8.3720 O.co2 160  ASP160     -0.2456
     86  OD2       16.8640   47.1560   -9.9110 O.co2 160  ASP160     -0.2456
     87  N         21.9800   41.8940   -7.6990 N.3   162  MET162     -0.1230
     88  CA        23.3840   41.6050   -7.4520 C.3   162  MET162      0.1702
     89  C         24.0220   42.5390   -6.4270 C.2   162  MET162      0.2592
     90  O         25.0640   42.2030   -5.8400 O.2   162  MET162     -0.2718
     91  CB        24.1730   41.7430   -8.7600 C.3   162  MET162      0.0401
     92  CG        23.9690   40.5250   -9.6270 C.3   162  MET162      0.0596
     93  SD        24.9120   40.5490  -11.1460 S.3   162  MET162     -0.1393
     94  CE        23.7100   41.0750  -12.3220 C.3   162  MET162      0.0692
     95  N         23.4520   43.7340   -6.2470 N.am  163  GLU163     -0.1979
     96  CA        24.0740   44.7350   -5.3600 C.3   163  GLU163      0.1602
     97  C         23.8620   44.3500   -3.9350 C.2   163  GLU163      0.2287
     98  O         22.7650   43.9960   -3.5670 O.2   163  GLU163     -0.2864
     99  CB        23.4250   46.1070   -5.5810 C.3   163  GLU163      0.0415
    100  CG        23.9130   46.8000   -6.8350 C.3   163  GLU163      0.1163
    101  CD        25.3140   47.3390   -6.7270 C.2   163  GLU163      0.3649
    102  OE1       26.0100   47.1730   -5.7030 O.co2 163  GLU163     -0.2457
    103  OE2       25.7640   47.8930   -7.7110 O.co2 163  GLU163     -0.2457
    104  N         11.9100   42.1480  -13.2000 N.3   186  ASP186     -0.1239
    105  CA        12.0740   41.9980  -14.6050 C.3   186  ASP186      0.1674
    106  C         13.2460   41.0740  -14.7740 C.2   186  ASP186      0.2266
    107  O         14.4310   41.5030  -14.8210 O.2   186  ASP186     -0.2867
    108  CB        12.3400   43.3700  -15.2570 C.3   186  ASP186      0.1410
    109  CG        12.2770   43.3180  -16.7450 C.2   186  ASP186      0.3668
    110  OD1       11.5780   42.3970  -17.2010 O.co2 186  ASP186     -0.2456
    111  OD2       12.9060   44.1650  -17.4560 O.co2 186  ASP186     -0.2456
    112  N         15.1120   38.8350  -16.9720 N.3   188  ASN188     -0.1240
    113  CA        15.2470   38.6620  -18.4020 C.3   188  ASN188      0.1653
    114  C         16.5200   37.9350  -18.7920 C.2   188  ASN188      0.2266
    115  O         16.7990   37.8190  -19.9570 O.2   188  ASN188     -0.2867
    116  CB        15.1660   40.0130  -19.0910 C.3   188  ASN188      0.1155
    117  CG        16.1950   40.9810  -18.5740 C.2   188  ASN188      0.2627
    118  OD1       17.1670   40.5830  -17.9550 O.2   188  ASN188     -0.2716
    119  ND2       15.9580   42.2770  -18.7870 N.am  188  ASN188     -0.0877
    120  N         19.4220   38.9150  -18.8210 N.3   190  ILE190     -0.1231
    121  CA        20.3970   39.8340  -19.3690 C.3   190  ILE190      0.1692
    122  C         20.8030   40.9260  -18.3700 C.2   190  ILE190      0.2593
    123  O         19.9800   41.4430  -17.6000 O.2   190  ILE190     -0.2718
    124  CB        19.8290   40.4760  -20.6590 C.3   190  ILE190      0.0266
    125  CG1       19.6460   39.4130  -21.7830 C.3   190  ILE190      0.0019
    126  CG2       20.7300   41.5700  -21.1700 C.3   190  ILE190      0.0020
    127  CD1       20.8900   38.5630  -22.0610 C.3   190  ILE190      0.0001
    128  N         22.0830   41.2800  -18.3850 N.am  191  SER191     -0.1938
    129  CA        22.6280   42.4500  -17.6470 C.3   191  SER191      0.2055
    130  C         23.3900   43.1800  -18.7020 C.2   191  SER191      0.2642
    131  O         23.3130   42.7790  -19.8660 O.2   191  SER191     -0.2714
    132  CB        23.5170   42.0920  -16.4210 C.3   191  SER191      0.2130
    133  OG        24.7590   41.4210  -16.7600 O.3   191  SER191     -0.2179
    134  N         24.0660   44.2690  -18.3350 N.am  192  LEU192     -0.1977
    135  CA        24.7440   45.1310  -19.3360 C.3   192  LEU192      0.1596
    136  C         25.8340   44.4470  -20.1870 C.2   192  LEU192      0.2287
    137  O         26.0160   44.7640  -21.3710 O.2   192  LEU192     -0.2864
    138  CB        25.3850   46.3450  -18.6640 C.3   192  LEU192      0.0297
    139  CG        25.8180   47.5530  -19.5090 C.3   192  LEU192      0.0022
    140  CD1       25.7500   48.8570  -18.6840 C.3   192  LEU192      0.0001
    141  CD2       27.2160   47.4320  -20.0820 C.3   192  LEU192      0.0001
    142  N         14.0850   40.7620  -22.9190 N.3   250  ILE250     -0.1245
    143  CA        14.5710   42.1480  -22.9750 C.3   250  ILE250      0.1561
    144  C         14.4850   42.5950  -24.4030 C.2   250  ILE250      0.2260
    145  O         14.7130   41.8240  -25.3140 O.2   250  ILE250     -0.2867
    146  CB        16.0420   42.3140  -22.4750 C.3   250  ILE250      0.0252
    147  CG1       16.4300   43.8010  -22.3490 C.3   250  ILE250      0.0019
    148  CG2       17.0490   41.6490  -23.4130 C.3   250  ILE250      0.0019
    149  CD1       17.6550   44.0170  -21.5070 C.3   250  ILE250      0.0001
    150  N         20.1500   46.4470  -24.1610 N.3   263  HIS263     -0.1241
    151  CA        20.2010   47.0550  -22.8180 C.3   263  HIS263      0.1621
    152  C         20.1950   48.5980  -22.8360 C.2   263  HIS263      0.2264
    153  O         19.3900   49.2230  -22.1370 O.2   263  HIS263     -0.2867
    154  CB        21.4440   46.5980  -22.0090 C.3   263  HIS263      0.0745
    155  CG        21.6810   47.4160  -20.7770 C.ar  263  HIS263      0.0817
    156  ND1       21.0000   47.1800  -19.6090 N.ar  263  HIS263     -0.2268
    157  CD2       22.4010   48.5550  -20.5760 C.ar  263  HIS263      0.1154
    158  CE1       21.3110   48.1200  -18.7240 C.ar  263  HIS263      0.1986
    159  NE2       22.1570   48.9730  -19.2880 N.ar  263  HIS263     -0.2212
@<TRIPOS>BOND
     1   145   144    2
     2   144   143    1
     3   150   151    1
     4   148   146    1
     5     3     2    1
     6     3     4    2
     7   143   142    1
     8   143   146    1
     9     1     2    1
    10   152   151    1
    11   152   153    2
    12   151   154    1
    13     2     5    1
    14   146   147    1
    15   147   149    1
    16   127   125    1
    17   154   155    1
    18   125   124    1
    19   137   136    2
    20    11    12    1
    21   126   124    1
    22     5     6    1
    23   155   157   ar
    24   155   156   ar
    25   124   121    1
    26   157   159   ar
    27     6     8   ar
    28     6     7   ar
    29    13    14    2
    30    13    12    1
    31     8    10   ar
    32     7     9   ar
    33   136   135    1
    34    12    15    1
    35   141   139    1
    36   115   114    2
    37   131   130    2
    38    10     9   ar
    39   156   158   ar
    40   139   140    1
    41   139   138    1
    42   121   120    1
    43   121   122    1
    44   135   138    1
    45   135   134    1
    46   159   158   ar
    47   116   117    1
    48   116   113    1
    49    15    16    1
    50   114   113    1
    51   119   117   am
    52   130   134   am
    53   130   129    1
    54   117   118    2
    55    27    26    2
    56   113   112    1
    57   128   122   am
    58   128   129    1
    59   122   123    2
    60    31    33   ar
    61    31    29   ar
    62    18    16    1
    63   129   132    1
    64    16    17    1
    65   111   109   ar
    66    26    25    1
    67   110   109   ar
    68    33    32   ar
    69    28    29    1
    70    28    25    1
    71    29    30   ar
    72   133   132    1
    73   109   108    1
    74    25    24    1
    75    42    43   ar
    76    42    40   ar
    77    34    35    1
    78    32    30   ar
    79    43    41   ar
    80    40    39   ar
    81    74    72   ar
    82   108   105    1
    83    35    38    1
    84    35    36    1
    85    41    39   ar
    86    39    38    1
    87   107   106    2
    88   106   105    1
    89   105   104    1
    90    72    73   ar
    91    72    71    1
    92    22    21    2
    93    36    37    2
    94    71    68    1
    95    23    20    1
    96    21    20    1
    97    67    68    1
    98    67    65   am
    99    64    65    1
   100    64    63    1
   101    20    19    1
   102    68    69    1
   103    94    93    1
   104    75    69   am
   105    75    76    1
   106    65    66    2
   107    61    60    1
   108    69    70    2
   109    76    77    1
   110    62    60    1
   111    45    46    1
   112    45    44    1
   113    47    46    2
   114    93    92    1
   115    60    59    1
   116    46    48   am
   117    77    79   am
   118    77    78    2
   119    86    84   ar
   120    79    80    1
   121    92    91    1
   122    59    56    1
   123    48    49    1
   124    48    54    1
   125    84    85   ar
   126    84    83    1
   127    55    56    1
   128    55    50   am
   129    91    88    1
   130    49    50    1
   131    49    52    1
   132    56    57    1
   133    54    53    1
   134    50    51    2
   135    80    83    1
   136    80    81    1
   137   103   101   ar
   138    87    88    1
   139    53    52    1
   140    88    89    1
   141    81    82    2
   142    57    58    2
   143   100   101    1
   144   100    99    1
   145   101   102   ar
   146    89    95   am
   147    89    90    2
   148    95    96    1
   149    99    96    1
   150    96    97    1
   151    97    98    2
