@<TRIPOS>MOLECULE
tmp/4c83C00.pdb
 126 123 0 0 0
SMALL
GASTEIGER

@<TRIPOS>ATOM
      1  N        -11.0440    1.2940   -3.3330 N.3    29  ARG29      -0.1231
      2  CA       -12.4560    1.6820   -3.4140 C.3    29  ARG29       0.1694
      3  C        -12.6870    2.9860   -2.6520 C.2    29  ARG29       0.2592
      4  O        -13.7440    3.6250   -2.7660 O.2    29  ARG29      -0.2718
      5  CB       -13.3520    0.5610   -2.8880 C.3    29  ARG29       0.0321
      6  CG       -13.6890    0.6310   -1.4160 C.3    29  ARG29       0.0489
      7  CD       -14.1410   -0.7290   -0.8900 C.3    29  ARG29       0.2205
      8  NE       -13.0050   -1.5150   -0.4070 N.pl3  29  ARG29      -0.0865
      9  CZ       -12.7790   -1.8000    0.8770 C.cat  29  ARG29       0.5346
     10  NH1      -13.6180   -1.3690    1.8210 N.pl3  29  ARG29       0.1354
     11  NH2      -11.7030   -2.5020    1.2240 N.pl3  29  ARG29       0.1354
     12  N        -11.6680    3.3650   -1.8820 N.am   30  ARG30      -0.1966
     13  CA       -11.6290    4.6040   -1.1090 C.3    30  ARG30       0.1729
     14  C        -11.5080    5.8800   -1.9760 C.2    30  ARG30       0.2616
     15  O        -12.0900    6.9090   -1.6440 O.2    30  ARG30      -0.2715
     16  CB       -10.4550    4.5280   -0.1350 C.3    30  ARG30       0.0348
     17  CG       -10.4870    5.5020    1.0270 C.3    30  ARG30       0.0492
     18  CD        -9.4110    5.1630    2.0670 C.3    30  ARG30       0.2205
     19  NE        -8.1010    4.8740    1.4690 N.pl3  30  ARG30      -0.0865
     20  CZ        -7.0040    4.5610    2.1650 C.cat  30  ARG30       0.5346
     21  NH1       -7.0510    4.4970    3.4880 N.pl3  30  ARG30       0.1354
     22  NH2       -5.8560    4.3130    1.5370 N.pl3  30  ARG30       0.1354
     23  N        -10.7540    5.8060   -3.0790 N.am   31  PHE31      -0.1960
     24  CA       -10.3090    7.0030   -3.8020 C.3    31  PHE31       0.1771
     25  C        -10.9300    7.2140   -5.1860 C.2    31  PHE31       0.2620
     26  O        -11.2360    6.2600   -5.8900 O.2    31  PHE31      -0.2715
     27  CB        -8.7980    6.9840   -3.9440 C.3    31  PHE31       0.0574
     28  CG        -8.0760    7.0530   -2.6480 C.ar   31  PHE31      -0.0200
     29  CD1       -7.8510    5.9100   -1.9080 C.ar   31  PHE31      -0.0042
     30  CD2       -7.6020    8.2660   -2.1660 C.ar   31  PHE31      -0.0042
     31  CE1       -7.1730    5.9640   -0.7150 C.ar   31  PHE31      -0.0003
     32  CE2       -6.9370    8.3310   -0.9520 C.ar   31  PHE31      -0.0003
     33  CZ        -6.7220    7.1730   -0.2240 C.ar   31  PHE31      -0.0000
     34  N        -11.0370    8.4830   -5.5880 N.am   32  GLY32      -0.1954
     35  CA       -11.3560    8.8430   -6.9680 C.3    32  GLY32       0.1869
     36  C        -10.1210    8.8080   -7.8670 C.2    32  GLY32       0.2309
     37  O         -8.9900    9.0020   -7.3990 O.2    32  GLY32      -0.2863
     38  N         -8.3460    9.7980  -11.9800 N.3    34  HIS34      -0.1241
     39  CA        -8.4160   10.6770  -13.1390 C.3    34  HIS34       0.1621
     40  C         -7.6570   10.1010  -14.2890 C.2    34  HIS34       0.2264
     41  O         -6.7580    9.2980  -14.1030 O.2    34  HIS34      -0.2867
     42  CB        -7.8030   12.0240  -12.8240 C.3    34  HIS34       0.0745
     43  CG        -8.5320   12.7950  -11.7730 C.ar   34  HIS34       0.0817
     44  ND1       -9.5030   13.7250  -12.0770 N.ar   34  HIS34      -0.2268
     45  CD2       -8.3980   12.8140  -10.4260 C.ar   34  HIS34       0.1154
     46  CE1       -9.9490   14.2740  -10.9600 C.ar   34  HIS34       0.1986
     47  NE2       -9.2830   13.7510   -9.9460 N.ar   34  HIS34      -0.2212
     48  N        -12.8480   11.9950  -14.7950 N.3    49  TYR49      -0.1241
     49  CA       -12.8230   11.6620  -13.3860 C.3    49  TYR49       0.1605
     50  C        -13.8990   10.6320  -13.0460 C.2    49  TYR49       0.2264
     51  O        -15.0540   10.7710  -13.4630 O.2    49  TYR49      -0.2867
     52  CB       -13.0660   12.9080  -12.5600 C.3    49  TYR49       0.0534
     53  CG       -13.2740   12.6250  -11.1040 C.ar   49  TYR49      -0.0201
     54  CD1      -12.1890   12.3780  -10.2650 C.ar   49  TYR49      -0.0009
     55  CD2      -14.5510   12.5970  -10.5540 C.ar   49  TYR49      -0.0009
     56  CE1      -12.3720   12.1030   -8.9290 C.ar   49  TYR49       0.0417
     57  CE2      -14.7440   12.3340   -9.2050 C.ar   49  TYR49       0.0417
     58  CZ       -13.6570   12.0970   -8.4040 C.ar   49  TYR49       0.1957
     59  OH       -13.8420   11.8500   -7.0830 O.3    49  TYR49      -0.2866
     60  N        -15.5470    8.6630   -9.6000 N.3    51  GLY51      -0.1210
     61  CA       -15.6040    8.5730   -8.1410 C.3    51  GLY51       0.1956
     62  C        -15.3570    7.1640   -7.6590 C.2    51  GLY51       0.2612
     63  O        -15.4530    6.2050   -8.4280 O.2    51  GLY51      -0.2717
     64  N        -15.0420    7.0140   -6.3390 N.am   52  GLY52      -0.1956
     65  CA       -14.7810    5.6850   -5.7780 C.3    52  GLY52       0.1869
     66  C        -15.9960    4.8020   -5.9570 C.2    52  GLY52       0.2309
     67  O        -15.8720    3.6260   -6.2470 O.2    52  GLY52      -0.2863
     68  N        -20.5040    6.4770   -9.0460 N.3    55  SER55      -0.1202
     69  CA       -21.7380    7.2250   -9.1250 C.3    55  SER55       0.2020
     70  C        -21.4900    8.5920   -9.8000 C.2    55  SER55       0.2619
     71  O        -22.3510    9.1030  -10.5290 O.2    55  SER55      -0.2717
     72  CB       -22.3210    7.3940   -7.7270 C.3    55  SER55       0.2103
     73  OG       -22.9810    8.6350   -7.5810 O.3    55  SER55      -0.2182
     74  N        -20.3010    9.1520   -9.5710 N.am   56  THR56      -0.1952
     75  CA       -19.9450   10.4550  -10.1120 C.3    56  THR56       0.1897
     76  C        -18.9100   10.3300  -11.2260 C.2    56  THR56       0.2313
     77  O        -17.8190    9.8320  -10.9960 O.2    56  THR56      -0.2863
     78  CB       -19.3270   11.3380   -9.0240 C.3    56  THR56       0.1794
     79  OG1      -20.2660   11.5240   -7.9750 O.3    56  THR56      -0.2208
     80  CG2      -18.9360   12.6810   -9.5890 C.3    56  THR56       0.0378
     81  N        -17.0240   12.6600  -14.5290 N.3    58  TYR58      -0.1241
     82  CA       -16.8320   13.8890  -15.2820 C.3    58  TYR58       0.1605
     83  C        -16.0450   13.5990  -16.5520 C.2    58  TYR58       0.2264
     84  O        -15.1210   12.7810  -16.5480 O.2    58  TYR58      -0.2867
     85  CB       -16.0900   14.9140  -14.4420 C.3    58  TYR58       0.0534
     86  CG       -16.7690   15.2650  -13.1410 C.ar   58  TYR58      -0.0201
     87  CD1      -18.1550   15.4170  -13.0700 C.ar   58  TYR58      -0.0009
     88  CD2      -16.0210   15.4700  -11.9830 C.ar   58  TYR58      -0.0009
     89  CE1      -18.7730   15.7360  -11.8750 C.ar   58  TYR58       0.0417
     90  CE2      -16.6250   15.8040  -10.7950 C.ar   58  TYR58       0.0417
     91  CZ       -17.9990   15.9300  -10.7410 C.ar   58  TYR58       0.1957
     92  OH       -18.5880   16.2480   -9.5460 O.3    58  TYR58      -0.2866
     93  N         -6.9100   10.6170   -7.0100 N.3    98  ASP98      -0.1225
     94  CA        -7.4640   11.8770   -6.5420 C.3    98  ASP98       0.1805
     95  C         -7.2460   12.0790   -5.0510 C.2    98  ASP98       0.2598
     96  O         -7.5500   11.2100   -4.2490 O.2    98  ASP98      -0.2718
     97  CB        -8.9600   11.9260   -6.8590 C.3    98  ASP98       0.1424
     98  CG        -9.5430   13.3160   -6.7370 C.2    98  ASP98       0.3668
     99  OD1       -8.9370   14.2660   -7.2600 O.co2  98  ASP98      -0.2456
    100  OD2      -10.6210   13.4570   -6.1320 O.co2  98  ASP98      -0.2456
    101  N         -6.7210   13.2410   -4.6850 N.am   99  GLU99      -0.1965
    102  CA        -6.5280   13.5910   -3.2880 C.3    99  GLU99       0.1733
    103  C         -7.4240   14.7700   -2.9400 C.2    99  GLU99       0.2617
    104  O         -7.9320   15.4460   -3.8270 O.2    99  GLU99      -0.2715
    105  CB        -5.0660   13.9520   -3.0280 C.3    99  GLU99       0.0429
    106  CG        -4.0930   12.7920   -3.1580 C.3    99  GLU99       0.1163
    107  CD        -4.0480   11.9210   -1.9180 C.2    99  GLU99       0.3649
    108  OE1       -4.7620   12.2290   -0.9430 O.co2  99  GLU99      -0.2457
    109  OE2       -3.2940   10.9290   -1.9170 O.co2  99  GLU99      -0.2457
    110  N         -7.6190   15.0210   -1.6500 N.am  100  THR100     -0.1937
    111  CA        -8.4200   16.1620   -1.2230 C.3   100  THR100      0.2028
    112  C         -7.8940   17.4400   -1.8230 C.2   100  THR100      0.2643
    113  O         -6.7000   17.6920   -1.7990 O.2   100  THR100     -0.2714
    114  CB        -8.4460   16.3060    0.3000 C.3   100  THR100      0.1808
    115  OG1       -7.4010   15.5020    0.8770 O.3   100  THR100     -0.2208
    116  CG2       -9.7830   15.8590    0.8310 C.3   100  THR100      0.0379
    117  N         -8.7950   18.2360   -2.3770 N.am  101  GLY101     -0.1939
    118  CA        -8.3990   19.4180   -3.1160 C.3   101  GLY101      0.2014
    119  C         -8.1870   19.0950   -4.5820 C.2   101  GLY101      0.2639
    120  O         -7.9690   19.9840   -5.4090 O.2   101  GLY101     -0.2714
    121  N         -8.2580   17.8110   -4.9030 N.am  102  SER102     -0.1949
    122  CA        -8.0640   17.3440   -6.2650 C.3   102  SER102      0.1924
    123  C         -6.7170   17.7250   -6.8960 C.2   102  SER102      0.2314
    124  O         -6.6710   18.1370   -8.0590 O.2   102  SER102     -0.2863
    125  CB        -9.2250   17.7750   -7.1590 C.3   102  SER102      0.2116
    126  OG       -10.4310   17.1560   -6.7320 O.3   102  SER102     -0.2180
@<TRIPOS>BOND
     1    83    84    2
     2    83    82    1
     3    82    81    1
     4    82    85    1
     5    48    49    1
     6    85    86    1
     7    40    41    2
     8    40    39    1
     9    51    50    2
    10    49    50    1
    11    49    52    1
    12    86    87   ar
    13    86    88   ar
    14    39    42    1
    15    39    38    1
    16    87    89   ar
    17    42    43    1
    18    52    53    1
    19    44    43   ar
    20    44    46   ar
    21    88    90   ar
    22    89    91   ar
    23    43    45   ar
    24    76    77    2
    25    76    75    1
    26    53    55   ar
    27    53    54   ar
    28    46    47   ar
    29    90    91   ar
    30    91    92    1
    31    55    57   ar
    32    71    70    2
    33    45    47   ar
    34    54    56   ar
    35    75    74    1
    36    75    78    1
    37    70    74   am
    38    70    69    1
    39    60    61    1
    40    80    78    1
    41    57    58   ar
    42    69    68    1
    43    69    72    1
    44    78    79    1
    45    56    58   ar
    46    63    62    2
    47    58    59    1
    48    61    62    1
    49   124   123    2
    50    36    37    2
    51    36    35    1
    52    72    73    1
    53    62    64   am
    54    99    98   ar
    55   125   126    1
    56   125   122    1
    57    93    94    1
    58    35    34    1
    59   123   122    1
    60    97    98    1
    61    97    94    1
    62    98   100   ar
    63    94    95    1
    64    64    65    1
    65   122   121    1
    66    67    66    2
    67    66    65    1
    68    26    25    2
    69    34    25   am
    70   120   119    2
    71    25    24    1
    72    95   101   am
    73    95    96    2
    74   121   119   am
    75   101   102    1
    76   119   118    1
    77    27    24    1
    78    27    28    1
    79   104   103    2
    80    24    23    1
    81     2     1    1
    82     2     5    1
    83     2     3    1
    84   102   105    1
    85   102   103    1
    86   106   105    1
    87   106   107    1
    88   118   117    1
    89    23    14   am
    90   103   110   am
    91     5     6    1
    92     4     3    2
    93     3    12   am
    94    28    30   ar
    95    28    29   ar
    96   117   112   am
    97    30    32   ar
    98    14    15    2
    99    14    13    1
   100   107   109   ar
   101   107   108   ar
   102    29    31   ar
   103    12    13    1
   104   112   113    2
   105   112   111    1
   106   110   111    1
   107     6     7    1
   108   111   114    1
   109    13    16    1
   110    32    33   ar
   111     7     8    1
   112    31    33   ar
   113     8     9    2
   114    16    17    1
   115   114   116    1
   116   114   115    1
   117     9    11    1
   118     9    10    1
   119    17    18    1
   120    19    18    1
   121    19    20    2
   122    22    20    1
   123    20    21    1
