@<TRIPOS>MOLECULE
tmp/4c8bB00.pdb
 228 218 0 0 0
SMALL
GASTEIGER

@<TRIPOS>ATOM
      1  N         27.1160    0.3030   28.3740 N.3    16  LEU16      -0.1231
      2  CA        26.9460    1.6760   27.8660 C.3    16  LEU16       0.1693
      3  C         26.2400    2.5780   28.8740 C.2    16  LEU16       0.2592
      4  O         26.7450    3.6460   29.2190 O.2    16  LEU16      -0.2718
      5  CB        26.1250    1.6890   26.5740 C.3    16  LEU16       0.0284
      6  CG        26.5990    0.8200   25.4150 C.3    16  LEU16       0.0019
      7  CD1       25.5600    0.8360   24.2980 C.3    16  LEU16       0.0001
      8  CD2       27.9550    1.2870   24.9170 C.3    16  LEU16       0.0001
      9  N         25.0530    2.1510   29.3100 N.am   17  SER17      -0.1952
     10  CA        24.2390    2.9020   30.2650 C.3    17  SER17       0.1924
     11  C         23.6320    1.9560   31.2840 C.2    17  SER17       0.2314
     12  O         23.4530    0.7670   31.0100 O.2    17  SER17      -0.2863
     13  CB        23.1140    3.6500   29.5550 C.3    17  SER17       0.2116
     14  OG        22.3000    4.3240   30.3770 O.3    17  SER17      -0.2180
     15  N         21.9720   -1.0770   29.3790 N.3    24  VAL24      -0.1245
     16  CA        22.0470   -1.0210   27.9370 C.3    24  VAL24       0.1561
     17  C         23.4660   -1.3400   27.5370 C.2    24  VAL24       0.2260
     18  O         24.4130   -0.7260   28.0380 O.2    24  VAL24      -0.2867
     19  CB        21.6660    0.3640   27.3980 C.3    24  VAL24       0.0252
     20  CG1       21.6700    0.3380   25.8830 C.3    24  VAL24       0.0019
     21  CG2       20.2970    0.7900   27.9090 C.3    24  VAL24       0.0019
     22  N         22.2570   -2.7570   19.9140 N.3    37  ALA37      -0.1231
     23  CA        22.1360   -2.3860   21.3160 C.3    37  ALA37       0.1694
     24  C         21.1820   -3.3810   21.9370 C.2    37  ALA37       0.2592
     25  O         20.2970   -3.8840   21.2760 O.2    37  ALA37      -0.2718
     26  CB        21.6110   -0.9740   21.4570 C.3    37  ALA37       0.0304
     27  N         21.3770   -3.6740   23.2040 N.am   38  VAL38      -0.1966
     28  CA        20.4840   -4.5770   23.9000 C.3    38  VAL38       0.1727
     29  C         20.2120   -4.0570   25.3020 C.2    38  VAL38       0.2616
     30  O         21.1310   -3.6780   26.0150 O.2    38  VAL38      -0.2715
     31  CB        21.0370   -6.0020   23.9600 C.3    38  VAL38       0.0290
     32  CG1       22.4620   -6.0060   24.4770 C.3    38  VAL38       0.0023
     33  CG2       20.1530   -6.8740   24.8340 C.3    38  VAL38       0.0023
     34  N         18.9280   -4.0030   25.6490 N.am   39  LYS39      -0.1977
     35  CA        18.4640   -3.5210   26.9370 C.3    39  LYS39       0.1596
     36  C         18.0020   -4.7520   27.7120 C.2    39  LYS39       0.2287
     37  O         17.0080   -5.3780   27.3550 O.2    39  LYS39      -0.2864
     38  CB        17.3170   -2.5220   26.7310 C.3    39  LYS39       0.0298
     39  CG        16.7250   -1.8720   27.9870 C.3    39  LYS39       0.0038
     40  CD        16.0150   -0.5810   27.6530 C.3    39  LYS39       0.0206
     41  CE        14.9280   -0.1940   28.6420 C.3    39  LYS39       0.1093
     42  NZ        14.1250    0.9420   28.0950 N.3    39  LYS39      -0.1314
     43  N          6.8710   -2.9920   26.1690 N.3    53  GLU53      -0.1245
     44  CA         7.8110   -2.0380   25.5470 C.3    53  GLU53       0.1567
     45  C          8.1800   -2.4290   24.1170 C.2    53  GLU53       0.2260
     46  O          8.2210   -1.5930   23.2280 O.2    53  GLU53      -0.2867
     47  CB         9.0840   -1.8890   26.3850 C.3    53  GLU53       0.0388
     48  CG        10.0880   -0.9070   25.7940 C.3    53  GLU53       0.1160
     49  CD        11.2590   -0.5850   26.7090 C.2    53  GLU53       0.3649
     50  OE1       11.2960   -1.0450   27.8730 O.co2  53  GLU53      -0.2457
     51  OE2       12.1610    0.1510   26.2540 O.co2  53  GLU53      -0.2457
     52  N          5.3850   -1.7440   21.7640 N.3    56  ILE56      -0.1231
     53  CA         5.2990   -0.3210   21.4570 C.3    56  ILE56       0.1692
     54  C          6.2820    0.0190   20.3680 C.2    56  ILE56       0.2591
     55  O          5.8890    0.5380   19.3210 O.2    56  ILE56      -0.2718
     56  CB         5.5800    0.5760   22.6860 C.3    56  ILE56       0.0266
     57  CG1        4.4760    0.4350   23.7260 C.3    56  ILE56       0.0019
     58  CG2        5.6490    2.0420   22.2900 C.3    56  ILE56       0.0020
     59  CD1        4.9520    0.8170   25.1100 C.3    56  ILE56       0.0001
     60  N          7.5580   -0.2570   20.6180 N.am   57  LEU57      -0.1980
     61  CA         8.5910    0.0530   19.6240 C.3    57  LEU57       0.1596
     62  C          8.3060   -0.5580   18.2580 C.2    57  LEU57       0.2287
     63  O          8.5670    0.0490   17.2350 O.2    57  LEU57      -0.2864
     64  CB         9.9610   -0.4170   20.0810 C.3    57  LEU57       0.0297
     65  CG        10.8890    0.6230   20.6820 C.3    57  LEU57       0.0022
     66  CD1       12.1930   -0.0640   21.0270 C.3    57  LEU57       0.0001
     67  CD2       11.1170    1.7650   19.7110 C.3    57  LEU57       0.0001
     68  N          5.5590    1.2050   16.5110 N.3    60  ALA60      -0.1245
     69  CA         5.9720    2.5500   16.1330 C.3    60  ALA60       0.1562
     70  C          7.1230    2.6430   15.1160 C.2    60  ALA60       0.2260
     71  O          7.8730    3.6020   15.1420 O.2    60  ALA60      -0.2867
     72  CB         6.3310    3.3190   17.3830 C.3    60  ALA60       0.0290
     73  N         12.3280    6.9110   14.5660 N.3    65  ILE65      -0.1231
     74  CA        12.1460    6.2040   15.8120 C.3    65  ILE65       0.1692
     75  C         13.1540    5.0750   15.8640 C.2    65  ILE65       0.2591
     76  O         13.2870    4.2980   14.9040 O.2    65  ILE65      -0.2718
     77  CB        10.7440    5.5750   15.8780 C.3    65  ILE65       0.0266
     78  CG1        9.6580    6.6410   15.7020 C.3    65  ILE65       0.0019
     79  CG2       10.5430    4.8080   17.1850 C.3    65  ILE65       0.0020
     80  CD1        9.7390    7.7650   16.7190 C.3    65  ILE65       0.0001
     81  N         13.8250    4.9340   17.0010 N.am   66  LEU66      -0.1980
     82  CA        14.7890    3.8370   17.1820 C.3    66  LEU66       0.1596
     83  C         14.2250    2.4550   16.7280 C.2    66  LEU66       0.2287
     84  O         13.2330    1.9900   17.2700 O.2    66  LEU66      -0.2864
     85  CB        15.2670    3.7810   18.6430 C.3    66  LEU66       0.0297
     86  CG        16.3800    2.7600   18.9010 C.3    66  LEU66       0.0022
     87  CD1       17.6410    3.0790   18.1060 C.3    66  LEU66       0.0001
     88  CD2       16.6910    2.6990   20.3850 C.3    66  LEU66       0.0001
     89  N         15.5380   -6.4010   25.0770 N.3    80  ILE80      -0.1245
     90  CA        15.1440   -5.9050   23.7760 C.3    80  ILE80       0.1561
     91  C         16.4050   -5.5480   23.0080 C.2    80  ILE80       0.2260
     92  O         17.2970   -4.9020   23.5530 O.2    80  ILE80      -0.2867
     93  CB        14.2700   -4.6520   23.9180 C.3    80  ILE80       0.0252
     94  CG1       12.9020   -5.0280   24.4900 C.3    80  ILE80       0.0019
     95  CG2       14.0950   -3.9620   22.5680 C.3    80  ILE80       0.0019
     96  CD1       12.1110   -3.8550   25.0290 C.3    80  ILE80       0.0001
     97  N         17.9270   -3.5480   19.6970 N.3    82  THR82      -0.1203
     98  CA        17.6520   -2.4930   18.7080 C.3    82  THR82       0.1994
     99  C         18.8820   -2.2490   17.8770 C.2    82  THR82       0.2618
    100  O         19.9440   -2.8100   18.1540 O.2    82  THR82      -0.2717
    101  CB        17.2830   -1.1560   19.3820 C.3    82  THR82       0.1784
    102  OG1       18.4320   -0.6130   20.0540 O.3    82  THR82      -0.2211
    103  CG2       16.1660   -1.3430   20.3940 C.3    82  THR82       0.0376
    104  N         18.7600   -1.3810   16.8830 N.am   83  GLU83      -0.1965
    105  CA        19.9320   -0.9010   16.1600 C.3    83  GLU83       0.1733
    106  C         20.7830   -0.1010   17.1260 C.2    83  GLU83       0.2616
    107  O         20.2890    0.4550   18.0970 O.2    83  GLU83      -0.2715
    108  CB        19.5550   -0.0170   14.9780 C.3    83  GLU83       0.0429
    109  CG        18.9890   -0.7740   13.7920 C.3    83  GLU83       0.1163
    110  CD        18.7950    0.0920   12.5480 C.2    83  GLU83       0.3649
    111  OE1       18.9280    1.3420   12.6320 O.co2  83  GLU83      -0.2457
    112  OE2       18.4960   -0.4750   11.4670 O.co2  83  GLU83      -0.2457
    113  N         22.0730   -0.0680   16.8510 N.am   84  TYR84      -0.1960
    114  CA        23.0320    0.6390   17.6670 C.3    84  TYR84       0.1771
    115  C         23.3380    2.0040   17.0520 C.2    84  TYR84       0.2619
    116  O         23.5670    2.1030   15.8630 O.2    84  TYR84      -0.2715
    117  CB        24.3090   -0.2080   17.7710 C.3    84  TYR84       0.0574
    118  CG        25.4560    0.5170   18.4180 C.ar   84  TYR84      -0.0198
    119  CD1       25.3620    0.9480   19.7460 C.ar   84  TYR84      -0.0009
    120  CD2       26.6210    0.7960   17.7060 C.ar   84  TYR84      -0.0009
    121  CE1       26.4060    1.6300   20.3470 C.ar   84  TYR84       0.0417
    122  CE2       27.6740    1.4700   18.2970 C.ar   84  TYR84       0.0417
    123  CZ        27.5610    1.8850   19.6130 C.ar   84  TYR84       0.1957
    124  OH        28.6050    2.5620   20.1880 O.3    84  TYR84      -0.2866
    125  N         23.3380    3.0510   17.8710 N.am   85  MET85      -0.1977
    126  CA        23.5640    4.4260   17.4230 C.3    85  MET85       0.1605
    127  C         24.9390    4.8870   17.8920 C.2    85  MET85       0.2287
    128  O         25.1150    5.2900   19.0450 O.2    85  MET85      -0.2864
    129  CB        22.4570    5.3430   17.9450 C.3    85  MET85       0.0413
    130  CG        21.0700    4.8670   17.5210 C.3    85  MET85       0.0598
    131  SD        20.7270    5.2390   15.7970 S.3    85  MET85      -0.1393
    132  CE        20.3690    3.6030   15.1580 C.3    85  MET85       0.0692
    133  N         25.9300    8.4690   19.8510 N.3    88  GLY88      -0.1225
    134  CA        25.3950    8.8480   21.1630 C.3    88  GLY88       0.1811
    135  C         24.1600    9.7320   21.1180 C.2    88  GLY88       0.2280
    136  O         23.3980    9.7140   20.1540 O.2    88  GLY88      -0.2866
    137  N          4.3210    9.6040   16.2180 N.3   122  LEU122     -0.1245
    138  CA         3.7580    8.9720   17.3980 C.3   122  LEU122      0.1561
    139  C          2.3610    9.5110   17.6640 C.2   122  LEU122      0.2260
    140  O          1.4170    8.7600   17.9160 O.2   122  LEU122     -0.2867
    141  CB         4.6560    9.1940   18.6150 C.3   122  LEU122      0.0270
    142  CG         6.0940    8.6790   18.5160 C.3   122  LEU122      0.0019
    143  CD1        6.9060    9.0740   19.7430 C.3   122  LEU122      0.0001
    144  CD2        6.0860    7.1770   18.3800 C.3   122  LEU122      0.0001
    145  N          0.3600    7.5450   20.3400 N.3   129  LEU129     -0.1231
    146  CA         1.3880    7.4060   21.3690 C.3   129  LEU129      0.1693
    147  C          1.8820    8.7900   21.7790 C.2   129  LEU129      0.2592
    148  O          2.1400    9.6440   20.9260 O.2   129  LEU129     -0.2718
    149  CB         2.5680    6.5950   20.8580 C.3   129  LEU129      0.0284
    150  CG         2.4310    5.0810   20.9710 C.3   129  LEU129      0.0019
    151  CD1        3.6360    4.3720   20.3610 C.3   129  LEU129      0.0001
    152  CD2        2.2620    4.6530   22.4190 C.3   129  LEU129      0.0001
    153  N          2.0020    9.0020   23.0820 N.am  130  LEU130     -0.1966
    154  CA         2.5430   10.2290   23.6240 C.3   130  LEU130      0.1728
    155  C          3.8430    9.9010   24.3160 C.2   130  LEU130      0.2616
    156  O          3.9270    8.9270   25.0460 O.2   130  LEU130     -0.2715
    157  CB         1.5590   10.8500   24.6050 C.3   130  LEU130      0.0311
    158  CG         0.1680   11.1120   24.0060 C.3   130  LEU130      0.0022
    159  CD1       -0.8230   11.5130   25.0910 C.3   130  LEU130      0.0001
    160  CD2        0.2470   12.2010   22.9330 C.3   130  LEU130      0.0001
    161  N          4.8670   10.7150   24.0990 N.am  131  HIS131     -0.1959
    162  CA         6.1930   10.3480   24.5580 C.3   131  HIS131      0.1787
    163  C          6.3010   10.6530   26.0390 C.2   131  HIS131      0.2620
    164  O          6.5440    9.7590   26.8370 O.2   131  HIS131     -0.2715
    165  CB         7.2790   11.0600   23.7580 C.3   131  HIS131      0.0785
    166  CG         8.6410   10.5140   24.0080 C.ar  131  HIS131      0.0821
    167  ND1        9.2360   10.5440   25.2510 N.ar  131  HIS131     -0.2267
    168  CD2        9.5230    9.9110   23.1820 C.ar  131  HIS131      0.1154
    169  CE1       10.4290    9.9850   25.1780 C.ar  131  HIS131      0.1986
    170  NE2       10.6280    9.5920   23.9330 N.ar  131  HIS131     -0.2212
    171  N          6.1140   11.9250   26.3870 N.am  132  HIS132     -0.1959
    172  CA         6.0230   12.3890   27.7850 C.3   132  HIS132      0.1787
    173  C          7.3040   12.2560   28.6080 C.2   132  HIS132      0.2620
    174  O          7.2870   12.3600   29.8090 O.2   132  HIS132     -0.2715
    175  CB         4.8220   11.7440   28.4780 C.3   132  HIS132      0.0785
    176  CG         3.5210   12.3200   28.0270 C.ar  132  HIS132      0.0821
    177  ND1        2.3280   12.0820   28.6690 N.ar  132  HIS132     -0.2267
    178  CD2        3.2340   13.1570   27.0000 C.ar  132  HIS132      0.1154
    179  CE1        1.3590   12.7390   28.0530 C.ar  132  HIS132      0.1986
    180  NE2        1.8830   13.4000   27.0390 N.ar  132  HIS132     -0.2212
    181  N          8.4190   12.0990   27.9240 N.am  133  ASP133     -0.1971
    182  CA         9.7130   12.0860   28.5490 C.3   133  ASP133      0.1709
    183  C         10.7860   12.5460   27.5480 C.2   133  ASP133      0.2293
    184  O         11.9220   12.1270   27.6160 O.2   133  ASP133     -0.2864
    185  CB        10.0090   10.6820   29.0750 C.3   133  ASP133      0.1436
    186  CG        11.1730   10.6560   30.0440 C.2   133  ASP133      0.3671
    187  OD1       11.3430   11.6450   30.8050 O.co2 133  ASP133     -0.2456
    188  OD2       11.9250    9.6480   30.0320 O.co2 133  ASP133     -0.2456
    189  N         18.7620   10.1630   19.9480 N.3   140  LEU140     -0.1245
    190  CA        19.9870    9.5040   19.5290 C.3   140  LEU140      0.1561
    191  C         20.3210    9.8830   18.1090 C.2   140  LEU140      0.2260
    192  O         19.4530   10.3830   17.3800 O.2   140  LEU140     -0.2867
    193  CB        19.8590    7.9860   19.6620 C.3   140  LEU140      0.0270
    194  CG        19.4550    7.4820   21.0570 C.3   140  LEU140      0.0019
    195  CD1       19.4710    5.9500   21.1090 C.3   140  LEU140      0.0001
    196  CD2       20.3500    8.0790   22.1390 C.3   140  LEU140      0.0001
    197  N         14.6090    8.7180   17.8490 N.3   149  ILE149     -0.1231
    198  CA        14.0080    9.0350   19.1420 C.3   149  ILE149      0.1692
    199  C         13.9450    7.7900   19.9540 C.2   149  ILE149      0.2592
    200  O         13.6470    6.7210   19.4500 O.2   149  ILE149     -0.2718
    201  CB        12.5830    9.5820   18.9890 C.3   149  ILE149      0.0266
    202  CG1       12.6420   10.9900   18.4040 C.3   149  ILE149      0.0019
    203  CG2       11.8830    9.6350   20.3400 C.3   149  ILE149      0.0020
    204  CD1       11.2860   11.5630   18.0630 C.3   149  ILE149      0.0001
    205  N         14.2180    7.9360   21.2300 N.am  150  ALA150     -0.1966
    206  CA        14.2220    6.7930   22.1280 C.3   150  ALA150      0.1728
    207  C         13.6060    7.1850   23.4700 C.2   150  ALA150      0.2616
    208  O         13.1220    8.3030   23.6370 O.2   150  ALA150     -0.2715
    209  CB        15.6490    6.3010   22.2900 C.3   150  ALA150      0.0334
    210  N         13.6080    6.2520   24.4140 N.am  151  ASP151     -0.1957
    211  CA        13.2070    6.5340   25.7920 C.3   151  ASP151      0.1840
    212  C         13.9080    5.5610   26.7040 C.2   151  ASP151      0.2622
    213  O         13.9730    4.3860   26.3980 O.2   151  ASP151     -0.2715
    214  CB        11.6910    6.3950   25.9360 C.3   151  ASP151      0.1450
    215  CG        11.1740    6.9390   27.2630 C.2   151  ASP151      0.3671
    216  OD1       11.8800    7.7490   27.9210 O.co2 151  ASP151     -0.2456
    217  OD2       10.0440    6.5590   27.6440 O.co2 151  ASP151     -0.2456
    218  N         14.3960    6.0360   27.8450 N.am  152  PHE152     -0.1974
    219  CA        15.2340    5.1870   28.7070 C.3   152  PHE152      0.1639
    220  C         14.6900    4.9420   30.1210 C.2   152  PHE152      0.2290
    221  O         13.6550    5.4830   30.5070 O.2   152  PHE152     -0.2864
    222  CB        16.6390    5.7700   28.7860 C.3   152  PHE152      0.0560
    223  CG        17.4500    5.5530   27.5410 C.ar  152  PHE152     -0.0200
    224  CD1       17.8390    4.2740   27.1620 C.ar  152  PHE152     -0.0042
    225  CD2       17.8330    6.6260   26.7600 C.ar  152  PHE152     -0.0042
    226  CE1       18.5850    4.0740   26.0210 C.ar  152  PHE152     -0.0003
    227  CE2       18.5700    6.4340   25.6160 C.ar  152  PHE152     -0.0003
    228  CZ        18.9440    5.1620   25.2440 C.ar  152  PHE152     -0.0000
@<TRIPOS>BOND
     1   112   110   ar
     2   110   111   ar
     3   110   109    1
     4   109   108    1
     5    73    74    1
     6    76    75    2
     7   108   105    1
     8    70    71    2
     9    70    69    1
    10   132   131    1
    11    78    77    1
    12    78    80    1
    13   131   130    1
    14    74    75    1
    15    74    77    1
    16   116   115    2
    17    75    81   am
    18    77    79    1
    19    69    68    1
    20    69    72    1
    21   105   104    1
    22   105   106    1
    23   137   138    1
    24    83    82    1
    25    83    84    2
    26   113   106   am
    27   113   114    1
    28   104    99   am
    29    81    82    1
    30   115   114    1
    31   115   125   am
    32   106   107    2
    33    82    85    1
    34    63    62    2
    35   192   191    2
    36   138   139    1
    37   138   141    1
    38   126   125    1
    39   126   127    1
    40   126   129    1
    41   130   129    1
    42   139   140    2
    43   114   117    1
    44   120   122   ar
    45   120   118   ar
    46   117   118    1
    47   197   198    1
    48    99   100    2
    49    99    98    1
    50   127   128    2
    51   204   202    1
    52    87    86    1
    53   191   190    1
    54    62    61    1
    55   122   123   ar
    56   144   142    1
    57   202   201    1
    58   118   119   ar
    59   142   141    1
    60   142   143    1
    61    85    86    1
    62    98   101    1
    63    98    97    1
    64    86    88    1
    65   201   198    1
    66   201   203    1
    67   198   199    1
    68    55    54    2
    69   101   102    1
    70   101   103    1
    71   200   199    2
    72   190   193    1
    73   190   189    1
    74   123   124    1
    75   123   121   ar
    76    61    64    1
    77    61    60    1
    78   193   194    1
    79    67    65    1
    80   119   121   ar
    81   133   134    1
    82    22    23    1
    83   199   205   am
    84    64    65    1
    85   136   135    2
    86   145   146    1
    87   151   150    1
    88    54    60   am
    89    54    53    1
    90    65    66    1
    91   149   150    1
    92   149   146    1
    93   148   147    2
    94   150   152    1
    95   194   195    1
    96   194   196    1
    97   135   134    1
    98   205   206    1
    99    25    24    2
   100    23    26    1
   101    23    24    1
   102   146   147    1
   103    53    52    1
   104    53    56    1
   105   147   153   am
   106    24    27   am
   107   206   209    1
   108   206   207    1
   109    58    56    1
   110    95    93    1
   111    56    57    1
   112   160   158    1
   113    91    92    2
   114    91    90    1
   115   153   154    1
   116   168   170   ar
   117   168   166   ar
   118    27    28    1
   119    46    45    2
   120   207   208    2
   121   207   210   am
   122   154   155    1
   123   154   157    1
   124    57    59    1
   125   165   166    1
   126   165   162    1
   127    90    93    1
   128    90    89    1
   129    28    31    1
   130    28    29    1
   131    93    94    1
   132   170   169   ar
   133    31    32    1
   134    31    33    1
   135   158   157    1
   136   158   159    1
   137   166   167   ar
   138   161   155   am
   139   161   162    1
   140    45    44    1
   141     7     6    1
   142   155   156    2
   143   210   211    1
   144    94    96    1
   145   162   163    1
   146     8     6    1
   147   169   167   ar
   148   228   227   ar
   149   228   226   ar
   150    29    34   am
   151    29    30    2
   152     6     5    1
   153    44    43    1
   154    44    47    1
   155   227   225   ar
   156    34    35    1
   157   211   214    1
   158   211   212    1
   159    48    47    1
   160    48    49    1
   161    20    19    1
   162   214   215    1
   163   226   224   ar
   164   163   171   am
   165   163   164    2
   166    51    49   ar
   167   171   172    1
   168   213   212    2
   169     5     2    1
   170   212   218   am
   171    49    50   ar
   172    38    35    1
   173    38    39    1
   174   225   223   ar
   175    35    36    1
   176   178   180   ar
   177   178   176   ar
   178   180   179   ar
   179   224   223   ar
   180   215   217   ar
   181   215   216   ar
   182    37    36    2
   183    19    21    1
   184    19    16    1
   185    17    16    1
   186    17    18    2
   187   223   222    1
   188   183   184    2
   189   183   182    1
   190    40    39    1
   191    40    41    1
   192   172   175    1
   193   172   173    1
   194   218   219    1
   195     2     1    1
   196     2     3    1
   197   181   182    1
   198   181   173   am
   199    16    15    1
   200   176   175    1
   201   176   177   ar
   202   179   177   ar
   203    42    41    1
   204   182   185    1
   205   173   174    2
   206   219   222    1
   207   219   220    1
   208     3     4    2
   209     3     9   am
   210   185   186    1
   211     9    10    1
   212    13    10    1
   213    13    14    1
   214   188   186   ar
   215   186   187   ar
   216   220   221    2
   217    10    11    1
   218    12    11    2
