@<TRIPOS>MOLECULE
tmp/4c8dA00.pdb
 119 111 0 0 0
SMALL
GASTEIGER

@<TRIPOS>ATOM
      1  N         17.5690   10.5410  129.4600 N.3   105  LYS105     -0.1245
      2  CA        16.5670   11.5720  129.6560 C.3   105  LYS105      0.1561
      3  C         15.2650   11.0930  129.0120 C.2   105  LYS105      0.2260
      4  O         15.2720   10.5040  127.9270 O.2   105  LYS105     -0.2867
      5  CB        17.0660   12.8900  129.0500 C.3   105  LYS105      0.0271
      6  CG        15.9970   13.8280  128.5250 C.3   105  LYS105      0.0035
      7  CD        16.5160   15.2520  128.3530 C.3   105  LYS105      0.0206
      8  CE        17.5980   15.3730  127.2950 C.3   105  LYS105      0.1093
      9  NZ        18.1090   16.7650  127.2250 N.3   105  LYS105     -0.1314
     10  N         11.0480   17.9270  133.3720 N.3   156  TYR156     -0.1241
     11  CA        12.3900   17.5800  132.9350 C.3   156  TYR156      0.1605
     12  C         12.8830   16.4840  133.8630 C.2   156  TYR156      0.2264
     13  O         13.1860   16.7230  135.0430 O.2   156  TYR156     -0.2867
     14  CB        13.3200   18.7930  132.9870 C.3   156  TYR156      0.0534
     15  CG        12.8370   19.9650  132.1830 C.ar  156  TYR156     -0.0201
     16  CD1       11.9510   20.8980  132.7260 C.ar  156  TYR156     -0.0009
     17  CD2       13.2600   20.1440  130.8720 C.ar  156  TYR156     -0.0009
     18  CE1       11.4960   21.9730  131.9760 C.ar  156  TYR156      0.0417
     19  CE2       12.8130   21.2110  130.1120 C.ar  156  TYR156      0.0417
     20  CZ        11.9320   22.1250  130.6620 C.ar  156  TYR156      0.1957
     21  OH        11.5230   23.1950  129.8920 O.3   156  TYR156     -0.2866
     22  N         23.0760   17.9540  130.3540 N.3   171  THR171     -0.1203
     23  CA        21.7850   17.2700  130.4250 C.3   171  THR171      0.1994
     24  C         20.8590   17.9670  129.4210 C.2   171  THR171      0.2618
     25  O         20.2350   17.3220  128.5750 O.2   171  THR171     -0.2717
     26  CB        21.1970   17.3610  131.8470 C.3   171  THR171      0.1784
     27  OG1       22.0890   16.7180  132.7740 O.3   171  THR171     -0.2211
     28  CG2       19.8180   16.7320  131.9140 C.3   171  THR171      0.0376
     29  N         20.7910   19.2970  129.5170 N.am  172  THR172     -0.1952
     30  CA        20.0980   20.1060  128.5240 C.3   172  THR172      0.1897
     31  C         21.0610   21.1890  128.0420 C.2   172  THR172      0.2313
     32  O         21.5870   21.9610  128.8390 O.2   172  THR172     -0.2863
     33  CB        18.8240   20.7250  129.1090 C.3   172  THR172      0.1794
     34  OG1       18.0610   19.6920  129.7290 O.3   172  THR172     -0.2208
     35  CG2       17.9710   21.3830  128.0200 C.3   172  THR172      0.0378
     36  N         20.2700   27.0050  125.5990 N.3   175  HIS175     -0.1241
     37  CA        19.1920   27.5050  124.7730 C.3   175  HIS175      0.1621
     38  C         18.4940   28.6360  125.5340 C.2   175  HIS175      0.2264
     39  O         18.8910   28.9770  126.6510 O.2   175  HIS175     -0.2867
     40  CB        18.1930   26.3940  124.5040 C.3   175  HIS175      0.0745
     41  CG        17.4180   26.0060  125.7200 C.ar  175  HIS175      0.0817
     42  ND1       18.0120   25.4330  126.8250 N.ar  175  HIS175     -0.2268
     43  CD2       16.1110   26.1580  126.0290 C.ar  175  HIS175      0.1154
     44  CE1       17.0960   25.2200  127.7510 C.ar  175  HIS175      0.1986
     45  NE2       15.9350   25.6540  127.2930 N.ar  175  HIS175     -0.2212
     46  N         14.2580   30.2250  126.3180 N.3   177  ASP177     -0.1239
     47  CA        12.8200   30.0310  126.1340 C.3   177  ASP177      0.1674
     48  C         12.1410   31.3780  125.9430 C.2   177  ASP177      0.2266
     49  O         12.6960   32.4310  126.2770 O.2   177  ASP177     -0.2867
     50  CB        12.1970   29.2330  127.2960 C.3   177  ASP177      0.1410
     51  CG        12.6510   27.7760  127.3110 C.2   177  ASP177      0.3668
     52  OD1       12.1720   26.9720  126.4890 O.co2 177  ASP177     -0.2456
     53  OD2       13.4950   27.4310  128.1420 O.co2 177  ASP177     -0.2456
     54  N          9.6460   31.5150  133.1200 N.3   181  ALA181     -0.1245
     55  CA         9.3110   30.2200  133.7220 C.3   181  ALA181      0.1562
     56  C          9.8620   30.1040  135.1230 C.2   181  ALA181      0.2260
     57  O         10.7990   30.8230  135.4940 O.2   181  ALA181     -0.2867
     58  CB         9.8360   29.0810  132.8800 C.3   181  ALA181      0.0290
     59  N         11.1900   26.7830  137.4240 N.3   183  ASN183     -0.1240
     60  CA        11.5330   25.3730  137.3590 C.3   183  ASN183      0.1653
     61  C         11.7930   24.8790  138.7640 C.2   183  ASN183      0.2266
     62  O         12.7100   25.3440  139.4270 O.2   183  ASN183     -0.2867
     63  CB        12.7750   25.1740  136.4950 C.3   183  ASN183      0.1155
     64  CG        13.2440   23.7360  136.4710 C.2   183  ASN183      0.2627
     65  OD1       13.5060   23.1350  137.5190 O.2   183  ASN183     -0.2716
     66  ND2       13.3410   23.1660  135.2730 N.am  183  ASN183     -0.0877
     67  N         23.2170   24.6180  136.9510 N.3   229  TRP229     -0.1241
     68  CA        22.7360   25.4980  135.9070 C.3   229  TRP229      0.1605
     69  C         23.7640   26.5620  135.6080 C.2   229  TRP229      0.2264
     70  O         24.4170   27.0720  136.5190 O.2   229  TRP229     -0.2867
     71  CB        21.4960   26.2650  136.3900 C.3   229  TRP229      0.0550
     72  CG        20.2590   25.4610  136.5600 C.ar  229  TRP229      0.0003
     73  CD1       20.0240   24.4970  137.4970 C.ar  229  TRP229      0.0946
     74  CD2       19.0640   25.5810  135.7940 C.ar  229  TRP229      0.0152
     75  NE1       18.7590   23.9990  137.3500 N.ar  229  TRP229     -0.2442
     76  CE2       18.1470   24.6390  136.3040 C.ar  229  TRP229      0.0810
     77  CE3       18.6770   26.3890  134.7150 C.ar  229  TRP229      0.0012
     78  CZ2       16.8620   24.4870  135.7800 C.ar  229  TRP229      0.0191
     79  CZ3       17.4040   26.2260  134.1860 C.ar  229  TRP229      0.0001
     80  CH2       16.5090   25.2880  134.7220 C.ar  229  TRP229      0.0015
     81  N         13.5950   31.7570  135.5870 N.3   295  ILE295     -0.1245
     82  CA        14.4060   31.9730  134.3960 C.3   295  ILE295      0.1561
     83  C         13.6890   33.0110  133.5740 C.2   295  ILE295      0.2260
     84  O         12.5650   32.7600  133.1210 O.2   295  ILE295     -0.2867
     85  CB        14.4970   30.6720  133.5580 C.3   295  ILE295      0.0252
     86  CG1       14.8600   29.4670  134.4510 C.3   295  ILE295      0.0019
     87  CG2       15.4720   30.8450  132.4010 C.3   295  ILE295      0.0019
     88  CD1       14.2270   28.1650  134.0020 C.3   295  ILE295      0.0001
     89  N         20.2640   29.5860  128.8980 N.3   301  HIS301     -0.1241
     90  CA        20.5740   28.7000  130.0020 C.3   301  HIS301      0.1621
     91  C         20.8380   27.2730  129.5540 C.2   301  HIS301      0.2264
     92  O         20.3110   26.8210  128.5290 O.2   301  HIS301     -0.2867
     93  CB        19.4440   28.7170  131.0420 C.3   301  HIS301      0.0745
     94  CG        18.1030   28.3230  130.5000 C.ar  301  HIS301      0.0817
     95  ND1       17.3040   29.1970  129.7970 N.ar  301  HIS301     -0.2268
     96  CD2       17.4100   27.1610  130.5800 C.ar  301  HIS301      0.1154
     97  CE1       16.1830   28.5860  129.4470 C.ar  301  HIS301      0.1986
     98  NE2       16.2250   27.3480  129.9030 N.ar  301  HIS301     -0.2212
     99  N         21.6450   23.1840  131.5010 N.3   303  VAL303     -0.1245
    100  CA        21.4970   22.3960  132.7320 C.3   303  VAL303      0.1561
    101  C         22.3170   21.1020  132.6810 C.2   303  VAL303      0.2260
    102  O         22.4160   20.4450  131.6430 O.2   303  VAL303     -0.2867
    103  CB        20.0140   22.0860  133.0180 C.3   303  VAL303      0.0252
    104  CG1       19.8510   21.4420  134.3940 C.3   303  VAL303      0.0019
    105  CG2       19.1720   23.3690  132.9040 C.3   303  VAL303      0.0019
    106  N         12.2040   17.4340  137.7000 N.3   311  LYS311     -0.1245
    107  CA        11.9270   18.8570  137.6580 C.3   311  LYS311      0.1561
    108  C         10.5930   19.1040  136.9660 C.2   311  LYS311      0.2260
    109  O         10.2630   18.4510  135.9640 O.2   311  LYS311     -0.2867
    110  CB        13.0250   19.6210  136.9120 C.3   311  LYS311      0.0271
    111  CG        14.4520   19.3560  137.3740 C.3   311  LYS311      0.0035
    112  CD        15.3880   20.3920  136.7720 C.3   311  LYS311      0.0206
    113  CE        16.8260   19.9080  136.6740 C.3   311  LYS311      0.1093
    114  NZ        17.0180   19.1230  135.4170 N.3   311  LYS311     -0.1314
    115  N          8.3840   22.5280  135.5440 N.3   313  ALA313     -0.1245
    116  CA         8.4260   23.9600  135.2600 C.3   313  ALA313      0.1562
    117  C          7.0620   24.5150  134.8360 C.2   313  ALA313      0.2260
    118  O          6.3140   23.8540  134.1120 O.2   313  ALA313     -0.2867
    119  CB         9.4500   24.2560  134.1800 C.3   313  ALA313      0.0290
@<TRIPOS>BOND
     1    40    37    1
     2    40    41    1
     3    37    38    1
     4    37    36    1
     5    38    39    2
     6    41    43   ar
     7    41    42   ar
     8    48    47    1
     9    48    49    2
    10    43    45   ar
    11    47    46    1
    12    47    50    1
    13    52    51   ar
    14    42    44   ar
    15     9     8    1
    16    45    44   ar
    17     8     7    1
    18    50    51    1
    19    51    53   ar
    20     4     3    2
    21    35    33    1
    22    31    30    1
    23    31    32    2
    24     7     6    1
    25    30    33    1
    26    30    29    1
    27     6     5    1
    28    92    91    2
    29    25    24    2
    30    89    90    1
    31     3     2    1
    32     5     2    1
    33    33    34    1
    34    24    29   am
    35    24    23    1
    36    97    95   ar
    37    97    98   ar
    38     1     2    1
    39    91    90    1
    40    95    94   ar
    41    21    20    1
    42    98    96   ar
    43    90    93    1
    44    19    20   ar
    45    19    17   ar
    46    22    23    1
    47    23    26    1
    48    94    96   ar
    49    94    93    1
    50    20    18   ar
    51    17    15   ar
    52    99   100    1
    53   102   101    2
    54    26    28    1
    55    26    27    1
    56    18    16   ar
    57    15    16   ar
    58    15    14    1
    59    87    85    1
    60   101   100    1
    61   100   103    1
    62    58    55    1
    63   105   103    1
    64    11    14    1
    65    11    10    1
    66    11    12    1
    67   103   104    1
    68    54    55    1
    69    84    83    2
    70    85    82    1
    71    85    86    1
    72    83    82    1
    73    55    56    1
    74    12    13    2
    75    88    86    1
    76   118   117    2
    77   119   116    1
    78    79    77   ar
    79    79    80   ar
    80    82    81    1
    81    77    74   ar
    82    80    78   ar
    83   117   116    1
    84    56    57    2
    85   116   115    1
    86    66    64   am
    87   114   113    1
    88    69    68    1
    89    69    70    2
    90    78    76   ar
    91    74    76   ar
    92    74    72   ar
    93    68    71    1
    94    68    67    1
    95   109   108    2
    96    76    75   ar
    97    71    72    1
    98    64    63    1
    99    64    65    2
   100    63    60    1
   101    72    73   ar
   102   113   112    1
   103   112   111    1
   104   110   111    1
   105   110   107    1
   106   108   107    1
   107    75    73   ar
   108    60    59    1
   109    60    61    1
   110   107   106    1
   111    61    62    2
