@<TRIPOS>MOLECULE
tmp/4c8eA01.pdb
 123 119 0 0 0
SMALL
GASTEIGER

@<TRIPOS>ATOM
      1  N        -18.5500  -10.7760    3.0280 N.3    10  ASP10      -0.1239
      2  CA       -18.0510  -10.3200    1.7190 C.3    10  ASP10       0.1674
      3  C        -16.6150   -9.8300    1.8480 C.2    10  ASP10       0.2266
      4  O        -16.1550   -9.5010    2.9550 O.2    10  ASP10      -0.2867
      5  CB       -18.9770   -9.2540    1.1000 C.3    10  ASP10       0.1410
      6  CG       -18.7220   -9.0140   -0.3920 C.2    10  ASP10       0.3668
      7  OD1      -18.2370   -9.9530   -1.1180 O.co2  10  ASP10      -0.2456
      8  OD2      -18.9900   -7.8640   -0.8710 O.co2  10  ASP10      -0.2456
      9  N        -13.6090   -7.6000   -0.8660 N.3    12  HIS12      -0.1241
     10  CA       -13.1560   -7.0680   -2.1610 C.3    12  HIS12       0.1621
     11  C        -11.7300   -6.6400   -2.0690 C.2    12  HIS12       0.2264
     12  O        -11.2870   -6.2010   -1.0000 O.2    12  HIS12      -0.2867
     13  CB       -14.0200   -5.8940   -2.6130 C.3    12  HIS12       0.0745
     14  CG       -15.3810   -6.3080   -3.1020 C.ar   12  HIS12       0.0817
     15  ND1      -15.6390   -6.5390   -4.3970 N.ar   12  HIS12      -0.2268
     16  CD2      -16.5760   -6.5330   -2.4150 C.ar   12  HIS12       0.1154
     17  CE1      -16.9300   -6.9220   -4.5410 C.ar   12  HIS12       0.1986
     18  NE2      -17.4980   -6.9410   -3.3270 N.ar   12  HIS12      -0.2212
     19  N        -14.7240   -4.5760   -8.1450 N.3    35  GLY35      -0.1210
     20  CA       -15.8860   -5.3720   -8.4150 C.3    35  GLY35       0.1956
     21  C        -16.8420   -4.6040   -9.3120 C.2    35  GLY35       0.2612
     22  O        -16.6020   -3.4260   -9.6640 O.2    35  GLY35      -0.2717
     23  N        -17.9470   -5.2570   -9.6450 N.am   36  HIS36      -0.1961
     24  CA       -18.9730   -4.6410  -10.4640 C.3    36  HIS36       0.1787
     25  C        -19.6070   -3.4610   -9.7590 C.2    36  HIS36       0.2620
     26  O        -19.8670   -3.5030   -8.5530 O.2    36  HIS36      -0.2715
     27  CB       -20.0290   -5.6640  -10.8450 C.3    36  HIS36       0.0785
     28  CG       -20.9860   -5.1640  -11.8950 C.ar   36  HIS36       0.0821
     29  ND1      -22.3190   -5.1370  -11.7100 N.ar   36  HIS36      -0.2267
     30  CD2      -20.7500   -4.6290  -13.1600 C.ar   36  HIS36       0.1154
     31  CE1      -22.9080   -4.6320  -12.8040 C.ar   36  HIS36       0.1986
     32  NE2      -21.9430   -4.3230  -13.6930 N.ar   36  HIS36      -0.2212
     33  N        -19.8410   -2.3910  -10.5230 N.am   37  SER37      -0.1950
     34  CA       -20.4500   -1.1660  -10.0120 C.3    37  SER37       0.1924
     35  C        -19.6690   -0.6640   -8.7890 C.2    37  SER37       0.2314
     36  O        -18.4410   -0.5310   -8.8600 O.2    37  SER37      -0.2863
     37  CB       -21.9480   -1.3610   -9.7260 C.3    37  SER37       0.2116
     38  OG       -22.1790   -1.9620   -8.4630 O.3    37  SER37      -0.2180
     39  N        -23.1870   -5.6350    0.4970 N.3    44  HIS44      -0.1241
     40  CA       -23.3310   -7.0140   -0.0100 C.3    44  HIS44       0.1621
     41  C        -23.4480   -8.0160    1.1130 C.2    44  HIS44       0.2264
     42  O        -24.2760   -8.9320    1.0360 O.2    44  HIS44      -0.2867
     43  CB       -22.1630   -7.4010   -0.9400 C.3    44  HIS44       0.0745
     44  CG       -22.0760   -6.5580   -2.1650 C.ar   44  HIS44       0.0817
     45  ND1      -20.9690   -6.4990   -2.9500 N.ar   44  HIS44      -0.2268
     46  CD2      -23.0030   -5.6810   -2.7220 C.ar   44  HIS44       0.1154
     47  CE1      -21.2120   -5.6680   -3.9760 C.ar   44  HIS44       0.1986
     48  NE2      -22.4530   -5.1620   -3.8260 N.ar   44  HIS44      -0.2212
     49  N        -26.9900  -13.7750   -2.6670 N.3    59  ILE59      -0.1231
     50  CA       -27.0390  -12.5750   -3.4960 C.3    59  ILE59       0.1692
     51  C        -26.7920  -12.9360   -4.9630 C.2    59  ILE59       0.2592
     52  O        -27.4910  -12.4500   -5.8400 O.2    59  ILE59      -0.2718
     53  CB       -26.0360  -11.5120   -2.9420 C.3    59  ILE59       0.0266
     54  CG1      -26.2640  -10.1320   -3.5640 C.3    59  ILE59       0.0019
     55  CG2      -24.5860  -11.9790   -3.0830 C.3    59  ILE59       0.0020
     56  CD1      -25.3850   -9.0470   -2.9620 C.3    59  ILE59       0.0001
     57  N        -25.8330  -13.8330   -5.2080 N.am   60  GLY60      -0.1957
     58  CA       -25.5810  -14.3620   -6.5530 C.3    60  GLY60       0.1869
     59  C        -26.7830  -15.0040   -7.2230 C.2    60  GLY60       0.2309
     60  O        -27.0660  -14.7430   -8.3900 O.2    60  GLY60      -0.2863
     61  N        -29.3920  -12.2390   -8.0870 N.3    63  PHE63      -0.1227
     62  CA       -29.0220  -11.1120   -8.9320 C.3    63  PHE63       0.1736
     63  C        -27.9600  -11.5270   -9.9370 C.2    63  PHE63       0.2596
     64  O        -26.7560  -11.4180   -9.6780 O.2    63  PHE63      -0.2718
     65  CB       -28.5520   -9.9330   -8.0800 C.3    63  PHE63       0.0547
     66  CG       -29.5730   -9.4610   -7.0750 C.ar   63  PHE63      -0.0202
     67  CD1      -30.8630   -9.1330   -7.4710 C.ar   63  PHE63      -0.0042
     68  CD2      -29.2380   -9.3230   -5.7360 C.ar   63  PHE63      -0.0042
     69  CE1      -31.8020   -8.6930   -6.5510 C.ar   63  PHE63      -0.0003
     70  CE2      -30.1660   -8.8700   -4.8120 C.ar   63  PHE63      -0.0003
     71  CZ       -31.4520   -8.5530   -5.2170 C.ar   63  PHE63      -0.0000
     72  N        -28.4410  -11.9990  -11.0870 N.am   64  SER64      -0.1938
     73  CA       -27.5970  -12.4190  -12.2100 C.3    64  SER64       0.2055
     74  C        -27.1490  -11.2330  -13.0730 C.2    64  SER64       0.2643
     75  O        -27.7480  -10.1580  -13.0420 O.2    64  SER64      -0.2714
     76  CB       -28.3490  -13.4460  -13.0750 C.3    64  SER64       0.2130
     77  OG       -27.6850  -13.6790  -14.3100 O.3    64  SER64      -0.2179
     78  N        -26.1000  -11.4660  -13.8600 N.am   65  ASP65      -0.1971
     79  CA       -25.5150  -10.4440  -14.7330 C.3    65  ASP65       0.1709
     80  C        -26.4660  -10.0840  -15.8770 C.2    65  ASP65       0.2293
     81  O        -26.4140   -8.9720  -16.4090 O.2    65  ASP65      -0.2864
     82  CB       -24.1770  -10.9260  -15.3250 C.3    65  ASP65       0.1436
     83  CG       -23.2210  -11.4930  -14.2720 C.2    65  ASP65       0.3671
     84  OD1      -23.6710  -12.2480  -13.3810 O.co2  65  ASP65      -0.2456
     85  OD2      -22.0080  -11.2050  -14.3520 O.co2  65  ASP65      -0.2456
     86  N        -32.3470   -5.4330  -13.1620 N.3    70  PHE70      -0.1241
     87  CA       -31.2170   -4.8670  -12.4140 C.3    70  PHE70       0.1605
     88  C        -30.0000   -4.5240  -13.2650 C.2    70  PHE70       0.2264
     89  O        -28.8680   -4.5240  -12.7770 O.2    70  PHE70      -0.2867
     90  CB       -30.8550   -5.7980  -11.2550 C.3    70  PHE70       0.0534
     91  CG       -32.0080   -6.0350  -10.3270 C.ar   70  PHE70      -0.0203
     92  CD1      -32.3860   -5.0620   -9.4100 C.ar   70  PHE70      -0.0042
     93  CD2      -32.7590   -7.1980  -10.4120 C.ar   70  PHE70      -0.0042
     94  CE1      -33.4720   -5.2600   -8.5740 C.ar   70  PHE70      -0.0003
     95  CE2      -33.8410   -7.4000   -9.5790 C.ar   70  PHE70      -0.0003
     96  CZ       -34.2020   -6.4300   -8.6600 C.ar   70  PHE70      -0.0000
     97  N        -28.1380   -1.5900  -11.8360 N.3    73  ALA73      -0.1231
     98  CA       -28.3280   -1.5930  -10.3700 C.3    73  ALA73       0.1694
     99  C        -26.9880   -1.3920   -9.6640 C.2    73  ALA73       0.2592
    100  O        -25.9720   -1.9620  -10.0510 O.2    73  ALA73      -0.2718
    101  CB       -28.9820   -2.8870   -9.9000 C.3    73  ALA73       0.0304
    102  N        -26.9700   -0.5300   -8.6560 N.am   74  ASP74      -0.1960
    103  CA       -25.8480   -0.5180   -7.7290 C.3    74  ASP74       0.1840
    104  C        -26.2670   -1.2130   -6.4350 C.2    74  ASP74       0.2622
    105  O        -27.3710   -1.7480   -6.3550 O.2    74  ASP74      -0.2715
    106  CB       -25.3200    0.9010   -7.5060 C.3    74  ASP74       0.1450
    107  CG       -26.3030    1.8160   -6.8350 C.2    74  ASP74       0.3671
    108  OD1      -27.3190    1.3690   -6.2520 O.co2  74  ASP74      -0.2456
    109  OD2      -26.0180    3.0300   -6.8870 O.co2  74  ASP74      -0.2456
    110  N        -25.3950   -1.1860   -5.4360 N.am   75  SER75      -0.1950
    111  CA       -25.5680   -1.9590   -4.2150 C.3    75  SER75       0.1924
    112  C        -26.7540   -1.5720   -3.3330 C.2    75  SER75       0.2314
    113  O        -27.3740   -2.4310   -2.6710 O.2    75  SER75      -0.2863
    114  CB       -24.2800   -1.8830   -3.4250 C.3    75  SER75       0.2116
    115  OG       -23.2080   -2.4420   -4.1970 O.3    75  SER75      -0.2180
    116  N        -29.8430   -3.1760   -4.9600 N.3    78  LEU78      -0.1245
    117  CA       -29.9060   -4.6090   -4.5920 C.3    78  LEU78       0.1561
    118  C        -30.3660   -4.7740   -3.1610 C.2    78  LEU78       0.2260
    119  O        -31.0810   -5.7430   -2.8540 O.2    78  LEU78      -0.2867
    120  CB       -28.5590   -5.2860   -4.7770 C.3    78  LEU78       0.0270
    121  CG       -27.8510   -5.1800   -6.1330 C.3    78  LEU78       0.0019
    122  CD1      -26.7140   -6.2000   -6.2160 C.3    78  LEU78       0.0001
    123  CD2      -28.7760   -5.2900   -7.3230 C.3    78  LEU78       0.0001
@<TRIPOS>BOND
     1    81    80    2
     2    80    79    1
     3    82    79    1
     4    82    83    1
     5    79    78    1
     6    85    83   ar
     7    77    76    1
     8    83    84   ar
     9    78    74   am
    10    32    30   ar
    11    32    31   ar
    12    88    89    2
    13    88    87    1
    14    86    87    1
    15    30    28   ar
    16    76    73    1
    17    74    75    2
    18    74    73    1
    19    31    29   ar
    20    87    90    1
    21    73    72    1
    22    28    29   ar
    23    28    27    1
    24    97    98    1
    25    90    91    1
    26    72    63   am
    27    27    24    1
    28    33    34    1
    29    33    25   am
    30    24    25    1
    31    24    23    1
    32    93    91   ar
    33    93    95   ar
    34    98   101    1
    35    98    99    1
    36    91    92   ar
    37   100    99    2
    38    34    37    1
    39    34    35    1
    40    63    64    2
    41    63    62    1
    42    25    26    2
    43    37    38    1
    44    22    21    2
    45    99   102   am
    46    23    21   am
    47    95    96   ar
    48    92    94   ar
    49    21    20    1
    50    62    61    1
    51    62    65    1
    52    36    35    2
    53    96    94   ar
    54   102   103    1
    55    20    19    1
    56    60    59    2
    57    65    66    1
    58   103   106    1
    59   103   104    1
    60   106   107    1
    61    67    66   ar
    62    67    69   ar
    63   123   121    1
    64    59    58    1
    65    66    68   ar
    66   109   107   ar
    67   107   108   ar
    68    58    57    1
    69    69    71   ar
    70   104   105    2
    71   104   110   am
    72   122   121    1
    73   121   120    1
    74    52    51    2
    75    68    70   ar
    76   110   111    1
    77    71    70   ar
    78    57    51   am
    79    51    50    1
    80   116   117    1
    81   120   117    1
    82   117   118    1
    83    17    15   ar
    84    17    18   ar
    85    15    14   ar
    86   111   114    1
    87   111   112    1
    88   115   114    1
    89    47    48   ar
    90    47    45   ar
    91    48    46   ar
    92    54    56    1
    93    54    53    1
    94    50    53    1
    95    50    49    1
    96   112   113    2
    97    18    16   ar
    98   118   119    2
    99    14    13    1
   100    14    16   ar
   101    55    53    1
   102    45    44   ar
   103    46    44   ar
   104    13    10    1
   105    44    43    1
   106    10    11    1
   107    10     9    1
   108    11    12    2
   109     7     6   ar
   110    43    40    1
   111     8     6   ar
   112     6     5    1
   113    40    39    1
   114    40    41    1
   115    42    41    2
   116     5     2    1
   117     2     3    1
   118     2     1    1
   119     3     4    2
