@<TRIPOS>MOLECULE
tmp/4c8eA00.pdb
 73 70 0 0 0
SMALL
GASTEIGER

@<TRIPOS>ATOM
      1  N        -11.1450   -3.0880    7.9710 N.3   102  ALA102     -0.1231
      2  CA       -10.2310   -2.3390    7.1270 C.3   102  ALA102      0.1694
      3  C         -9.0940   -1.7860    7.9520 C.2   102  ALA102      0.2591
      4  O         -9.3270   -1.0820    8.9450 O.2   102  ALA102     -0.2718
      5  CB       -10.9690   -1.1840    6.4510 C.3   102  ALA102      0.0304
      6  N         -7.8720   -2.0550    7.5070 N.am  103  GLN103     -0.1979
      7  CA        -6.7070   -1.5720    8.1960 C.3   103  GLN103      0.1601
      8  C         -6.7300   -0.0530    8.1760 C.2   103  GLN103      0.2287
      9  O         -6.4550    0.5960    9.1820 O.2   103  GLN103     -0.2864
     10  CB        -5.4490   -2.1250    7.5300 C.3   103  GLN103      0.0394
     11  CG        -4.1670   -1.9220    8.3000 C.3   103  GLN103      0.0908
     12  CD        -4.1910   -2.5110    9.6920 C.2   103  GLN103      0.2608
     13  OE1       -4.6360   -3.6410    9.9040 O.2   103  GLN103     -0.2717
     14  NE2       -3.7020   -1.7400   10.6600 N.am  103  GLN103     -0.0878
     15  N         -8.9710    3.2150    5.5500 N.3   105  PRO105     -0.2102
     16  CA        -8.8690    4.3640    6.4450 C.3   105  PRO105      0.1504
     17  C         -9.7510    4.2760    7.6940 C.2   105  PRO105      0.2576
     18  O        -10.3860    3.2540    7.9180 O.2   105  PRO105     -0.2718
     19  CB        -9.3240    5.5270    5.5560 C.3   105  PRO105      0.0282
     20  CG       -10.3130    4.9140    4.6370 C.3   105  PRO105      0.0208
     21  CD        -9.8390    3.5010    4.3910 C.3   105  PRO105      0.0893
     22  N         -9.7660    5.3440    8.5070 N.am  106  LYS106     -0.1966
     23  CA       -10.6590    5.4110    9.6570 C.3   106  LYS106      0.1728
     24  C        -12.1080    5.5920    9.2250 C.2   106  LYS106      0.2616
     25  O        -12.4510    6.5040    8.4610 O.2   106  LYS106     -0.2715
     26  CB       -10.2440    6.4890   10.6640 C.3   106  LYS106      0.0311
     27  CG       -10.8520    6.2500   12.0490 C.3   106  LYS106      0.0038
     28  CD        -9.9350    6.6190   13.2160 C.3   106  LYS106      0.0206
     29  CE       -10.7030    6.6500   14.5470 C.3   106  LYS106      0.1093
     30  NZ       -10.8810    5.3220   15.2020 N.3   106  LYS106     -0.1314
     31  N        -12.9670    4.7140    9.7230 N.am  107  LEU107     -0.1963
     32  CA       -14.3490    4.6380    9.2840 C.3   107  LEU107      0.1728
     33  C        -15.2920    5.2330   10.2860 C.2   107  LEU107      0.2616
     34  O        -16.4300    5.4750    9.9350 O.2   107  LEU107     -0.2715
     35  CB       -14.7540    3.1680    9.0100 C.3   107  LEU107      0.0311
     36  CG       -13.9450    2.4800    7.9240 C.3   107  LEU107      0.0022
     37  CD1      -14.4340    1.0480    7.6590 C.3   107  LEU107      0.0001
     38  CD2      -13.9580    3.2940    6.6420 C.3   107  LEU107      0.0001
     39  N        -14.8400    5.4630   11.5300 N.am  108  ALA108     -0.1977
     40  CA       -15.7300    5.8840   12.6320 C.3   108  ALA108      0.1597
     41  C        -16.5670    7.1310   12.3060 C.2   108  ALA108      0.2287
     42  O        -17.7610    7.1880   12.6620 O.2   108  ALA108     -0.2864
     43  CB       -14.9420    6.1070   13.9210 C.3   108  ALA108      0.0319
     44  N        -16.3680   -0.9800   13.1280 N.3   133  ALA133     -0.1231
     45  CA       -15.1660   -0.9880   12.3090 C.3   133  ALA133      0.1694
     46  C        -14.0360   -1.6500   13.0910 C.2   133  ALA133      0.2592
     47  O        -13.9270   -1.4890   14.2910 O.2   133  ALA133     -0.2718
     48  CB       -14.7760    0.4350   11.9340 C.3   133  ALA133      0.0304
     49  N        -13.1880   -2.3960   12.4030 N.am  134  LYS134     -0.1966
     50  CA       -12.0180   -2.9560   13.0310 C.3   134  LYS134      0.1728
     51  C        -10.8530   -2.9710   12.0350 C.2   134  LYS134      0.2616
     52  O        -11.0760   -3.2250   10.8720 O.2   134  LYS134     -0.2715
     53  CB       -12.3140   -4.3900   13.4750 C.3   134  LYS134      0.0311
     54  CG       -13.2600   -4.4980   14.6690 C.3   134  LYS134      0.0038
     55  CD       -12.5910   -4.1350   15.9890 C.3   134  LYS134      0.0206
     56  CE       -11.5310   -5.1450   16.3750 C.3   134  LYS134      0.1093
     57  NZ       -11.0670   -4.9210   17.7540 N.3   134  LYS134     -0.1314
     58  N         -9.6370   -2.7270   12.5110 N.am  135  THR135     -0.1951
     59  CA        -8.4460   -3.0300   11.7440 C.3   135  THR135      0.1897
     60  C         -8.2150   -4.5490   11.8160 C.2   135  THR135      0.2313
     61  O         -8.9170   -5.2360   12.5700 O.2   135  THR135     -0.2863
     62  CB        -7.1880   -2.3040   12.2560 C.3   135  THR135      0.1794
     63  OG1       -6.6580   -2.9670   13.4100 O.3   135  THR135     -0.2208
     64  CG2       -7.4330   -0.7950   12.5860 C.3   135  THR135      0.0378
     65  N         -4.9210   -5.4850   12.5960 N.3   137  GLU137     -0.1245
     66  CA        -3.6620   -5.4900   13.3260 C.3   137  GLU137      0.1567
     67  C         -2.4600   -5.8500   12.4580 C.2   137  GLU137      0.2260
     68  O         -1.5770   -6.6010   12.9090 O.2   137  GLU137     -0.2867
     69  CB        -3.7440   -6.4310   14.5430 C.3   137  GLU137      0.0388
     70  CG        -4.7500   -6.0110   15.5840 C.3   137  GLU137      0.1160
     71  CD        -4.2340   -4.9320   16.5010 C.2   137  GLU137      0.3649
     72  OE1       -3.0330   -4.5880   16.4600 O.co2 137  GLU137     -0.2457
     73  OE2       -5.0290   -4.4150   17.2820 O.co2 137  GLU137     -0.2457
@<TRIPOS>BOND
     1    21    20    1
     2    21    15    1
     3    20    19    1
     4    15    16    1
     5    19    16    1
     6    16    17    1
     7     5     2    1
     8    38    36    1
     9     2     3    1
    10     2     1    1
    11     6     3   am
    12     6     7    1
    13    10     7    1
    14    10    11    1
    15    37    36    1
    16    17    18    2
    17    17    22   am
    18    36    35    1
    19     3     4    2
    20     8     7    1
    21     8     9    2
    22    11    12    1
    23    25    24    2
    24    22    23    1
    25    35    32    1
    26    24    23    1
    27    24    31   am
    28    32    31    1
    29    32    33    1
    30    23    26    1
    31    12    13    2
    32    12    14   am
    33    34    33    2
    34    33    39   am
    35    26    27    1
    36    52    51    2
    37    39    40    1
    38    59    60    1
    39    59    62    1
    40    59    58    1
    41    60    61    2
    42    48    45    1
    43    51    58   am
    44    51    50    1
    45    27    28    1
    46    62    64    1
    47    62    63    1
    48    41    40    1
    49    41    42    2
    50    45    46    1
    51    45    44    1
    52    49    50    1
    53    49    46   am
    54    67    68    2
    55    67    66    1
    56    65    66    1
    57    40    43    1
    58    50    53    1
    59    46    47    2
    60    28    29    1
    61    66    69    1
    62    53    54    1
    63    69    70    1
    64    29    30    1
    65    54    55    1
    66    70    71    1
    67    55    56    1
    68    56    57    1
    69    72    71   ar
    70    71    73   ar
