@<TRIPOS>MOLECULE
tmp/4c8iA00.pdb
 80 76 0 0 0
SMALL
GASTEIGER

@<TRIPOS>ATOM
      1  N          6.6030   10.0460   17.7750 N.3    10  ASP10      -0.1239
      2  CA         5.2870   10.6880   17.6040 C.3    10  ASP10       0.1674
      3  C          4.2180    9.8050   18.2230 C.2    10  ASP10       0.2266
      4  O          4.3980    8.6000   18.2870 O.2    10  ASP10      -0.2867
      5  CB         5.0160   10.9070   16.1260 C.3    10  ASP10       0.1410
      6  CG         3.8720   11.9150   15.8860 C.2    10  ASP10       0.3668
      7  OD1        3.6180   12.8060   16.7690 O.co2  10  ASP10      -0.2456
      8  OD2        3.2210   11.7950   14.8170 O.co2  10  ASP10      -0.2456
      9  N         -0.3770    9.6020   18.2260 N.3    12  HIS12      -0.1241
     10  CA        -1.6840   10.2510   17.9720 C.3    12  HIS12       0.1621
     11  C         -2.7630    9.3800   18.5510 C.2    12  HIS12       0.2264
     12  O         -2.5850    8.1570   18.6910 O.2    12  HIS12      -0.2867
     13  CB        -1.8910   10.4520   16.4860 C.3    12  HIS12       0.0745
     14  CG        -1.0650   11.5650   15.9390 C.ar   12  HIS12       0.0817
     15  ND1       -1.4870   12.8400   15.9330 N.ar   12  HIS12      -0.2268
     16  CD2        0.2140   11.5640   15.3780 C.ar   12  HIS12       0.1154
     17  CE1       -0.5170   13.6360   15.4330 C.ar   12  HIS12       0.1986
     18  NE2        0.5250   12.8470   15.0810 N.ar   12  HIS12      -0.2212
     19  N         -5.2780   14.2150   14.1940 N.3    35  GLY35      -0.1210
     20  CA        -4.3000   15.2850   14.1840 C.3    35  GLY35       0.1956
     21  C         -4.7060   16.3360   13.1730 C.2    35  GLY35       0.2612
     22  O         -5.7420   16.1920   12.5490 O.2    35  GLY35      -0.2717
     23  N         -3.8800   17.3760   13.0030 N.am   36  HIS36      -0.1961
     24  CA        -4.1210   18.4760   12.0210 C.3    36  HIS36       0.1787
     25  C         -3.8860   17.9840   10.6240 C.2    36  HIS36       0.2620
     26  O         -4.7470   18.1170    9.7580 O.2    36  HIS36      -0.2715
     27  CB        -3.2220   19.6980   12.2980 C.3    36  HIS36       0.0785
     28  CG        -3.3890   20.8540   11.3010 C.ar   36  HIS36       0.0821
     29  ND1       -3.3380   20.6810    9.9510 N.ar   36  HIS36      -0.2267
     30  CD2       -3.5840   22.2240   11.5090 C.ar   36  HIS36       0.1154
     31  CE1       -3.5110   21.8680    9.3400 C.ar   36  HIS36       0.1986
     32  NE2       -3.6610   22.8100   10.2960 N.ar   36  HIS36      -0.2212
     33  N         -2.6940   17.4120   10.3810 N.am   37  SER37      -0.1950
     34  CA        -2.3730   16.7520    9.1090 C.3    37  SER37       0.1924
     35  C         -3.1640   15.4590    9.1350 C.2    37  SER37       0.2314
     36  O         -4.0150   15.2780   10.0190 O.2    37  SER37      -0.2863
     37  CB        -0.8550   16.4570    8.9760 C.3    37  SER37       0.2116
     38  OG        -0.4310   15.4910    9.9380 O.3    37  SER37      -0.2180
     39  N         -2.0940   12.9660   10.2870 N.3    39  ALA39      -0.1245
     40  CA        -1.7040   12.3790   11.5760 C.3    39  ALA39       0.1562
     41  C         -0.8880   11.0710   11.3870 C.2    39  ALA39       0.2260
     42  O         -1.0050   10.1770   12.1850 O.2    39  ALA39      -0.2867
     43  CB        -2.9520   12.0880   12.4120 C.3    39  ALA39       0.0290
     44  N          5.8180   11.1270   10.5480 N.3    44  HIS44      -0.1241
     45  CA         6.1640   12.2700   11.4350 C.3    44  HIS44       0.1621
     46  C          7.3940   11.9120   12.2540 C.2    44  HIS44       0.2264
     47  O          8.2770   12.7480   12.4150 O.2    44  HIS44      -0.2867
     48  CB         5.0370   12.6150   12.4140 C.3    44  HIS44       0.0745
     49  CG         3.8310   13.2590   11.7590 C.ar   44  HIS44       0.0817
     50  ND1        2.6910   13.5170   12.4410 N.ar   44  HIS44      -0.2268
     51  CD2        3.5830   13.6040   10.4120 C.ar   44  HIS44       0.1154
     52  CE1        1.7600   14.0580   11.5910 C.ar   44  HIS44       0.1986
     53  NE2        2.3060   14.0940   10.3440 N.ar   44  HIS44      -0.2212
     54  N          9.7510   19.0860   13.3640 N.3    59  ILE59      -0.1245
     55  CA         8.5890   19.1510   12.4710 C.3    59  ILE59       0.1561
     56  C          7.7670   20.4600   12.6780 C.2    59  ILE59       0.2260
     57  O          7.4380   21.1500   11.7080 O.2    59  ILE59      -0.2867
     58  CB         7.8240   17.8030   12.5540 C.3    59  ILE59       0.0252
     59  CG1        6.9750   17.5500   11.3240 C.3    59  ILE59       0.0019
     60  CG2        7.1160   17.5810   13.9120 C.3    59  ILE59       0.0019
     61  CD1        6.4190   16.1320   11.3390 C.3    59  ILE59       0.0001
     62  N          6.9420   22.9140    9.6060 N.3    63  PHE63      -0.1241
     63  CA         5.6540   22.4670    9.0660 C.3    63  PHE63       0.1605
     64  C          4.5230   22.4880   10.1160 C.2    63  PHE63       0.2264
     65  O          4.0620   23.5530   10.5400 O.2    63  PHE63      -0.2867
     66  CB         5.7890   21.0350    8.5300 C.3    63  PHE63       0.0534
     67  CG         6.8650   20.8540    7.4700 C.ar   63  PHE63      -0.0203
     68  CD1        7.0100   21.7840    6.4070 C.ar   63  PHE63      -0.0042
     69  CD2        7.7200   19.7140    7.5000 C.ar   63  PHE63      -0.0042
     70  CE1        7.9930   21.6140    5.4330 C.ar   63  PHE63      -0.0003
     71  CE2        8.7150   19.5320    6.5100 C.ar   63  PHE63      -0.0003
     72  CZ         8.8510   20.4930    5.4920 C.ar   63  PHE63      -0.0000
     73  N          5.3620   16.4660    3.4680 N.3    68  LEU68      -0.1245
     74  CA         6.2360   17.0160    4.4980 C.3    68  LEU68       0.1561
     75  C          7.5200   16.2200    4.5080 C.2    68  LEU68       0.2260
     76  O          8.5730   16.7920    4.7630 O.2    68  LEU68      -0.2867
     77  CB         5.6030   16.9590    5.9040 C.3    68  LEU68       0.0270
     78  CG         4.2420   17.6830    6.1410 C.3    68  LEU68       0.0019
     79  CD1        3.7900   17.5800    7.6100 C.3    68  LEU68       0.0001
     80  CD2        4.2480   19.1440    5.7140 C.3    68  LEU68       0.0001
@<TRIPOS>BOND
     1    73    74    1
     2    74    75    1
     3    74    77    1
     4    75    76    2
     5    70    72   ar
     6    70    68   ar
     7    72    71   ar
     8    80    78    1
     9    77    78    1
    10    78    79    1
    11    68    67   ar
    12    71    69   ar
    13    67    69   ar
    14    67    66    1
    15    66    63    1
    16    37    34    1
    17    37    38    1
    18    63    62    1
    19    63    64    1
    20    34    35    1
    21    34    33    1
    22    35    36    2
    23    31    29   ar
    24    31    32   ar
    25    26    25    2
    26    29    28   ar
    27    64    65    2
    28    39    40    1
    29    32    30   ar
    30    53    51   ar
    31    53    52   ar
    32    33    25   am
    33    51    49   ar
    34    44    45    1
    35    25    24    1
    36    28    30   ar
    37    28    27    1
    38    59    61    1
    39    59    58    1
    40    41    40    1
    41    41    42    2
    42    45    46    1
    43    45    48    1
    44    40    43    1
    45    52    50   ar
    46    57    56    2
    47    49    48    1
    48    49    50   ar
    49    24    27    1
    50    24    23    1
    51    46    47    2
    52    55    58    1
    53    55    56    1
    54    55    54    1
    55    22    21    2
    56    58    60    1
    57    23    21   am
    58    21    20    1
    59    20    19    1
    60     8     6   ar
    61    18    16   ar
    62    18    17   ar
    63    16    14   ar
    64    17    15   ar
    65     6     5    1
    66     6     7   ar
    67    15    14   ar
    68    14    13    1
    69     5     2    1
    70    13    10    1
    71     2     1    1
    72     2     3    1
    73    10     9    1
    74    10    11    1
    75     3     4    2
    76    11    12    2
