@<TRIPOS>MOLECULE
tmp/4c8kA00.pdb
 136 127 0 0 0
SMALL
GASTEIGER

@<TRIPOS>ATOM
      1  N         26.6420  -33.7670  -11.1910 N.3   281  ARG281     -0.1245
      2  CA        27.3130  -32.5120  -11.5140 C.3   281  ARG281      0.1563
      3  C         28.8070  -32.7320  -11.7270 C.2   281  ARG281      0.2260
      4  O         29.3990  -33.6680  -11.1710 O.2   281  ARG281     -0.2867
      5  CB        27.1200  -31.4860  -10.4020 C.3   281  ARG281      0.0307
      6  CG        25.8890  -30.6380  -10.5310 C.3   281  ARG281      0.0489
      7  CD        25.9300  -29.5280   -9.5070 C.3   281  ARG281      0.2205
      8  NE        24.8240  -28.5900   -9.6650 N.pl3 281  ARG281     -0.0865
      9  CZ        24.7340  -27.4370   -9.0120 C.cat 281  ARG281      0.5346
     10  NH1       25.6920  -27.0780   -8.1630 N.pl3 281  ARG281      0.1354
     11  NH2       23.6930  -26.6400   -9.2110 N.pl3 281  ARG281      0.1354
     12  N         29.0330  -11.7350   -6.9930 N.3   295  ARG295     -0.1245
     13  CA        27.8690  -11.1200   -6.3520 C.3   295  ARG295      0.1563
     14  C         28.1150   -9.7120   -5.8070 C.2   295  ARG295      0.2260
     15  O         27.2730   -8.8320   -5.9740 O.2   295  ARG295     -0.2867
     16  CB        27.3640  -12.0250   -5.2280 C.3   295  ARG295      0.0307
     17  CG        26.8780  -13.3870   -5.7160 C.3   295  ARG295      0.0489
     18  CD        25.5540  -13.2830   -6.4710 C.3   295  ARG295      0.2205
     19  NE        25.2930  -14.4500   -7.3150 N.pl3 295  ARG295     -0.0865
     20  CZ        24.1660  -14.6460   -7.9940 C.cat 295  ARG295      0.5346
     21  NH1       23.1810  -13.7580   -7.9290 N.pl3 295  ARG295      0.1354
     22  NH2       24.0170  -15.7330   -8.7370 N.pl3 295  ARG295      0.1354
     23  N         16.6550  -20.4870  -14.7800 N.3   321  GLN321     -0.1245
     24  CA        15.9000  -21.3090  -13.8320 C.3   321  GLN321      0.1566
     25  C         15.7730  -22.7640  -14.2510 C.2   321  GLN321      0.2260
     26  O         14.6620  -23.2890  -14.3150 O.2   321  GLN321     -0.2867
     27  CB        14.4890  -20.7420  -13.6290 C.3   321  GLN321      0.0367
     28  CG        14.4430  -19.3380  -13.0630 C.3   321  GLN321      0.0905
     29  CD        14.4890  -18.2640  -14.1270 C.2   321  GLN321      0.2608
     30  OE1       14.1420  -18.4990  -15.2860 O.2   321  GLN321     -0.2717
     31  NE2       14.9130  -17.0670  -13.7350 N.am  321  GLN321     -0.0878
     32  N         16.5030  -25.6220  -12.8220 N.3   323  GLU323     -0.1245
     33  CA        16.0300  -26.5730  -11.8330 C.3   323  GLU323      0.1567
     34  C         14.5150  -26.5220  -11.6980 C.2   323  GLU323      0.2260
     35  O         13.8600  -27.5570  -11.6170 O.2   323  GLU323     -0.2867
     36  CB        16.6940  -26.3120  -10.4820 C.3   323  GLU323      0.0388
     37  CG        18.1220  -26.8350  -10.3900 C.3   323  GLU323      0.1160
     38  CD        18.6960  -26.7120   -8.9900 C.2   323  GLU323      0.3649
     39  OE1       18.1250  -25.9500   -8.1740 O.co2 323  GLU323     -0.2457
     40  OE2       19.7140  -27.3780   -8.7010 O.co2 323  GLU323     -0.2457
     41  N         10.0780  -16.3600  -10.4010 N.3   347  HIS347     -0.1241
     42  CA        10.4690  -15.5960   -9.2240 C.3   347  HIS347      0.1621
     43  C          9.6020  -14.3500   -9.0840 C.2   347  HIS347      0.2264
     44  O          9.2820  -13.9320   -7.9760 O.2   347  HIS347     -0.2867
     45  CB        11.9480  -15.2170   -9.2970 C.3   347  HIS347      0.0745
     46  CG        12.8700  -16.3880   -9.1840 C.ar  347  HIS347      0.0817
     47  ND1       12.5680  -17.4990   -8.4240 N.ar  347  HIS347     -0.2268
     48  CD2       14.0800  -16.6320   -9.7390 C.ar  347  HIS347      0.1154
     49  CE1       13.5550  -18.3720   -8.5110 C.ar  347  HIS347      0.1986
     50  NE2       14.4860  -17.8700   -9.3040 N.ar  347  HIS347     -0.2212
     51  N         11.3640   -9.8500   -5.0550 N.3   367  ARG367     -0.1231
     52  CA        11.8680  -10.9390   -5.8840 C.3   367  ARG367      0.1694
     53  C         12.9690  -11.6840   -5.1290 C.2   367  ARG367      0.2591
     54  O         13.1930  -12.8750   -5.3470 O.2   367  ARG367     -0.2718
     55  CB        12.3900  -10.4110   -7.2220 C.3   367  ARG367      0.0321
     56  CG        12.6260  -11.4950   -8.2670 C.3   367  ARG367      0.0489
     57  CD        13.0570  -10.9040   -9.6000 C.3   367  ARG367      0.2205
     58  NE        13.2530  -11.9330  -10.6210 N.pl3 367  ARG367     -0.0865
     59  CZ        14.3800  -12.6190  -10.7990 C.cat 367  ARG367      0.5346
     60  NH1       15.4350  -12.4020  -10.0250 N.pl3 367  ARG367      0.1354
     61  NH2       14.4530  -13.5330  -11.7560 N.pl3 367  ARG367      0.1354
     62  N         13.6470  -10.9710   -4.2350 N.am  368  ARG368     -0.1980
     63  CA        14.6490  -11.5720   -3.3660 C.3   368  ARG368      0.1597
     64  C         13.9830  -12.5370   -2.3900 C.2   368  ARG368      0.2287
     65  O         14.5630  -13.5580   -2.0100 O.2   368  ARG368     -0.2864
     66  CB        15.4140  -10.4860   -2.6080 C.3   368  ARG368      0.0334
     67  CG        16.5580  -10.9920   -1.7430 C.3   368  ARG368      0.0492
     68  CD        17.6430  -11.6600   -2.5730 C.3   368  ARG368      0.2205
     69  NE        18.9540  -11.5590   -1.9350 N.pl3 368  ARG368     -0.0865
     70  CZ        19.4040  -12.3820   -0.9910 C.cat 368  ARG368      0.5346
     71  NH1       18.6550  -13.3880   -0.5540 N.pl3 368  ARG368      0.1354
     72  NH2       20.6140  -12.1960   -0.4790 N.pl3 368  ARG368      0.1354
     73  N         12.7020  -15.6870   -4.3830 N.3   371  LYS371     -0.1231
     74  CA        13.8440  -16.5870   -4.4980 C.3   371  LYS371      0.1693
     75  C         13.9170  -17.5180   -3.2920 C.2   371  LYS371      0.2592
     76  O         14.1350  -18.7210   -3.4350 O.2   371  LYS371     -0.2718
     77  CB        15.1530  -15.7960   -4.6090 C.3   371  LYS371      0.0285
     78  CG        15.4740  -15.2310   -5.9870 C.3   371  LYS371      0.0035
     79  CD        16.7470  -14.3850   -5.9290 C.3   371  LYS371      0.0206
     80  CE        17.1010  -13.7650   -7.2740 C.3   371  LYS371      0.1093
     81  NZ        17.8400  -14.7060   -8.1550 N.3   371  LYS371     -0.1314
     82  N         13.7280  -16.9490   -2.1050 N.am  372  THR372     -0.1953
     83  CA        13.8720  -17.6960   -0.8630 C.3   372  THR372      0.1897
     84  C         12.8440  -18.8180   -0.7700 C.2   372  THR372      0.2313
     85  O         13.1970  -19.9680   -0.5010 O.2   372  THR372     -0.2863
     86  CB        13.7310  -16.7730    0.3720 C.3   372  THR372      0.1794
     87  OG1       14.7300  -15.7470    0.3280 O.3   372  THR372     -0.2208
     88  CG2       13.8960  -17.5600    1.6630 C.3   372  THR372      0.0378
     89  N         13.4340  -21.5930   -3.8730 N.3   375  PHE375     -0.1241
     90  CA        14.5760  -22.4760   -3.6390 C.3   375  PHE375      0.1605
     91  C         14.4530  -23.1950   -2.2990 C.2   375  PHE375      0.2264
     92  O         14.9160  -24.3250   -2.1490 O.2   375  PHE375     -0.2867
     93  CB        15.8930  -21.6950   -3.6950 C.3   375  PHE375      0.0534
     94  CG        16.3320  -21.3480   -5.0920 C.ar  375  PHE375     -0.0203
     95  CD1       16.6630  -22.3490   -5.9980 C.ar  375  PHE375     -0.0042
     96  CD2       16.4160  -20.0280   -5.5010 C.ar  375  PHE375     -0.0042
     97  CE1       17.0630  -22.0370   -7.2870 C.ar  375  PHE375     -0.0003
     98  CE2       16.8180  -19.7100   -6.7890 C.ar  375  PHE375     -0.0003
     99  CZ        17.1420  -20.7160   -7.6810 C.ar  375  PHE375     -0.0000
    100  N         14.7660  -27.3470   -1.8060 N.3   379  TYR379     -0.1241
    101  CA        15.8470  -27.9110   -1.0090 C.3   379  TYR379      0.1605
    102  C         15.3950  -28.3430    0.3910 C.2   379  TYR379      0.2264
    103  O         16.2020  -28.8080    1.1850 O.2   379  TYR379     -0.2867
    104  CB        16.9860  -26.8940   -0.8980 C.3   379  TYR379      0.0534
    105  CG        17.5810  -26.4670   -2.2270 C.ar  379  TYR379     -0.0201
    106  CD1       17.5830  -27.3220   -3.3230 C.ar  379  TYR379     -0.0009
    107  CD2       18.1530  -25.2090   -2.3810 C.ar  379  TYR379     -0.0009
    108  CE1       18.1310  -26.9350   -4.5340 C.ar  379  TYR379      0.0417
    109  CE2       18.7050  -24.8110   -3.5900 C.ar  379  TYR379      0.0417
    110  CZ        18.6910  -25.6790   -4.6630 C.ar  379  TYR379      0.1957
    111  OH        19.2370  -25.2910   -5.8660 O.3   379  TYR379     -0.2866
    112  N         13.7770  -26.4220    2.8520 N.3   381  MET381     -0.1245
    113  CA        13.8940  -25.4090    3.8900 C.3   381  MET381      0.1570
    114  C         12.8190  -25.5690    4.9650 C.2   381  MET381      0.2261
    115  O         11.6540  -25.8320    4.6660 O.2   381  MET381     -0.2867
    116  CB        13.8090  -24.0150    3.2700 C.3   381  MET381      0.0387
    117  CG        13.7880  -22.8940    4.2940 C.3   381  MET381      0.0595
    118  SD        14.0850  -21.2610    3.5940 S.3   381  MET381     -0.1393
    119  CE        15.8020  -21.4000    3.1180 C.3   381  MET381      0.0692
    120  N         25.1610  -24.4800  -14.5960 N.3   493  ASP493     -0.1239
    121  CA        24.1390  -24.1230  -15.5790 C.3   493  ASP493      0.1674
    122  C         24.6080  -22.9850  -16.5030 C.2   493  ASP493      0.2266
    123  O         23.7890  -22.3030  -17.1150 O.2   493  ASP493     -0.2867
    124  CB        22.8180  -23.7540  -14.8810 C.3   493  ASP493      0.1410
    125  CG        22.9610  -22.6100  -13.8850 C.2   493  ASP493      0.3668
    126  OD1       23.9480  -21.8490  -13.9600 O.co2 493  ASP493     -0.2456
    127  OD2       22.0640  -22.4710  -13.0190 O.co2 493  ASP493     -0.2456
    128  N         19.9480  -17.3120  -21.6770 N.3   528  GLU528     -0.1245
    129  CA        20.4900  -15.9660  -21.7600 C.3   528  GLU528      0.1567
    130  C         21.8840  -16.0450  -22.3580 C.2   528  GLU528      0.2260
    131  O         22.7240  -16.8120  -21.8840 O.2   528  GLU528     -0.2867
    132  CB        20.5410  -15.3050  -20.3810 C.3   528  GLU528      0.0388
    133  CG        19.1800  -14.9490  -19.7990 C.3   528  GLU528      0.1160
    134  CD        19.2590  -14.5350  -18.3360 C.2   528  GLU528      0.3649
    135  OE1       20.3870  -14.4320  -17.7990 O.co2 528  GLU528     -0.2457
    136  OE2       18.1910  -14.3170  -17.7210 O.co2 528  GLU528     -0.2457
@<TRIPOS>BOND
     1   130   131    2
     2   130   129    1
     3   129   128    1
     4   129   132    1
     5   132   133    1
     6   133   134    1
     7   134   135   ar
     8   134   136   ar
     9   123   122    2
    10   122   121    1
    11   121   124    1
    12   121   120    1
    13    30    29    2
    14   124   125    1
    15    23    24    1
    16    26    25    2
    17    25    24    1
    18    29    31   am
    19    29    28    1
    20   126   125   ar
    21   125   127   ar
    22    24    27    1
    23    27    28    1
    24    32    33    1
    25    33    34    1
    26    33    36    1
    27    61    59    1
    28     3     2    1
    29     3     4    2
    30    34    35    2
    31     2     1    1
    32     2     5    1
    33    59    58    2
    34    59    60    1
    35    58    57    1
    36     6     5    1
    37     6     7    1
    38    36    37    1
    39    41    42    1
    40    37    38    1
    41    48    50   ar
    42    48    46   ar
    43     8     7    1
    44     8     9    2
    45    57    56    1
    46    50    49   ar
    47    45    42    1
    48    45    46    1
    49    42    43    1
    50    11     9    1
    51    46    47   ar
    52    43    44    2
    53     9    10    1
    54    38    40   ar
    55    38    39   ar
    56    22    20    1
    57    49    47   ar
    58    56    55    1
    59    81    80    1
    60    20    21    1
    61    20    19    2
    62    99    97   ar
    63    99    98   ar
    64    19    18    1
    65    97    95   ar
    66    80    79    1
    67    55    52    1
    68    12    13    1
    69    98    96   ar
    70    18    17    1
    71    13    14    1
    72    13    16    1
    73    95    94   ar
    74    78    79    1
    75    78    77    1
    76    15    14    2
    77    52    53    1
    78    52    51    1
    79   111   110    1
    80    17    16    1
    81    96    94   ar
    82    54    53    2
    83    53    62   am
    84    94    93    1
    85   110   108   ar
    86   110   109   ar
    87    77    74    1
    88   108   106   ar
    89    74    73    1
    90    74    75    1
    91    62    63    1
    92    89    90    1
    93    93    90    1
    94    90    91    1
    95   109   107   ar
    96    76    75    2
    97    63    66    1
    98    63    64    1
    99   106   105   ar
   100    75    82   am
   101    66    67    1
   102    68    69    1
   103    68    67    1
   104    64    65    2
   105   107   105   ar
   106    91    92    2
   107   105   104    1
   108    82    83    1
   109    69    70    2
   110   100   101    1
   111   101   104    1
   112   101   102    1
   113    70    71    1
   114    70    72    1
   115    83    84    1
   116    83    86    1
   117    84    85    2
   118    87    86    1
   119    86    88    1
   120   102   103    2
   121   112   113    1
   122   119   118    1
   123   116   113    1
   124   116   117    1
   125   118   117    1
   126   113   114    1
   127   115   114    2
