@<TRIPOS>MOLECULE
tmp/4c8rC00.pdb
 152 146 0 0 0
SMALL
GASTEIGER

@<TRIPOS>ATOM
      1  N        -18.7520   16.7520   37.5820 N.3   177  TYR177     -0.1241
      2  CA       -19.7160   15.6640   37.7070 C.3   177  TYR177      0.1605
      3  C        -19.9760   14.9960   36.3660 C.2   177  TYR177      0.2264
      4  O        -20.9270   14.2300   36.2190 O.2   177  TYR177     -0.2867
      5  CB       -21.0280   16.1670   38.3080 C.3   177  TYR177      0.0534
      6  CG       -20.8910   16.5380   39.7580 C.ar  177  TYR177     -0.0201
      7  CD1      -20.4960   15.5870   40.7020 C.ar  177  TYR177     -0.0009
      8  CD2      -21.1080   17.8450   40.1850 C.ar  177  TYR177     -0.0009
      9  CE1      -20.3110   15.9250   42.0400 C.ar  177  TYR177      0.0417
     10  CE2      -20.9280   18.2000   41.5200 C.ar  177  TYR177      0.0417
     11  CZ       -20.5250   17.2330   42.4450 C.ar  177  TYR177      0.1957
     12  OH       -20.3130   17.5770   43.7640 O.3   177  TYR177     -0.2866
     13  N        -25.1490   14.3190   35.2630 N.3   181  TRP181     -0.1241
     14  CA       -25.1380   13.6510   36.5540 C.3   181  TRP181      0.1605
     15  C        -26.5090   13.0440   36.8210 C.2   181  TRP181      0.2264
     16  O        -27.4990   13.4340   36.2040 O.2   181  TRP181     -0.2867
     17  CB       -24.7770   14.6230   37.6780 C.3   181  TRP181      0.0550
     18  CG       -25.1880   16.0320   37.4440 C.ar  181  TRP181      0.0003
     19  CD1      -24.5260   16.9570   36.7020 C.ar  181  TRP181      0.0946
     20  CD2      -26.3380   16.6950   37.9840 C.ar  181  TRP181      0.0152
     21  NE1      -25.1860   18.1640   36.7490 N.ar  181  TRP181     -0.2442
     22  CE2      -26.3030   18.0280   37.5310 C.ar  181  TRP181      0.0810
     23  CE3      -27.3930   16.2920   38.8100 C.ar  181  TRP181      0.0012
     24  CZ2      -27.2830   18.9630   37.8750 C.ar  181  TRP181      0.0191
     25  CZ3      -28.3700   17.2270   39.1530 C.ar  181  TRP181      0.0001
     26  CH2      -28.3040   18.5430   38.6860 C.ar  181  TRP181      0.0015
     27  N        -29.2910   12.0210   39.9330 N.3   183  VAL183     -0.1245
     28  CA       -29.5930   12.1110   41.3570 C.3   183  VAL183      0.1561
     29  C        -30.6200   11.0610   41.7210 C.2   183  VAL183      0.2260
     30  O        -31.8150   11.3170   41.6810 O.2   183  VAL183     -0.2867
     31  CB       -30.1400   13.5040   41.7430 C.3   183  VAL183      0.0252
     32  CG1      -30.4650   13.5930   43.2300 C.3   183  VAL183      0.0019
     33  CG2      -29.0730   14.5540   41.4210 C.3   183  VAL183      0.0019
     34  N        -34.4530   21.5690   51.7610 N.3   199  LEU199     -0.1245
     35  CA       -33.2790   22.1380   51.0990 C.3   199  LEU199      0.1561
     36  C        -33.5470   23.6190   50.9170 C.2   199  LEU199      0.2260
     37  O        -34.5410   24.0190   50.3080 O.2   199  LEU199     -0.2867
     38  CB       -33.0290   21.4960   49.7360 C.3   199  LEU199      0.0270
     39  CG       -32.2950   20.1630   49.8030 C.3   199  LEU199      0.0019
     40  CD1      -32.3040   19.5080   48.4430 C.3   199  LEU199      0.0001
     41  CD2      -30.8690   20.3880   50.2960 C.3   199  LEU199      0.0001
     42  N        -30.8510   28.1880   46.9530 N.3   202  HIS202     -0.1241
     43  CA       -29.4510   28.3200   46.5950 C.3   202  HIS202      0.1621
     44  C        -29.2810   28.2810   45.0950 C.2   202  HIS202      0.2264
     45  O        -30.2160   28.0000   44.3440 O.2   202  HIS202     -0.2867
     46  CB       -28.6600   27.1680   47.1710 C.3   202  HIS202      0.0745
     47  CG       -29.1240   25.8510   46.6550 C.ar  202  HIS202      0.0817
     48  ND1      -30.4410   25.4610   46.7410 N.ar  202  HIS202     -0.2268
     49  CD2      -28.4850   24.8810   45.9620 C.ar  202  HIS202      0.1154
     50  CE1      -30.5950   24.3050   46.1180 C.ar  202  HIS202      0.1986
     51  NE2      -29.4240   23.9330   45.6360 N.ar  202  HIS202     -0.2212
     52  N        -26.4790   26.6940   42.1670 N.3   204  ASP204     -0.1225
     53  CA       -25.4920   25.6230   42.0970 C.3   204  ASP204      0.1805
     54  C        -24.1040   26.0770   41.7480 C.2   204  ASP204      0.2597
     55  O        -23.9150   27.0430   41.0130 O.2   204  ASP204     -0.2718
     56  CB       -25.9000   24.5600   41.0840 C.3   204  ASP204      0.1424
     57  CG       -27.0490   23.7330   41.5610 C.2   204  ASP204      0.3668
     58  OD1      -27.6460   24.1350   42.5820 O.co2 204  ASP204     -0.2456
     59  OD2      -27.3530   22.6960   40.9240 O.co2 204  ASP204     -0.2456
     60  N        -23.1430   25.3430   42.2990 N.am  205  TYR205     -0.1976
     61  CA       -21.7240   25.5460   42.0720 C.3   205  TYR205      0.1639
     62  C        -21.1510   26.9440   42.1850 C.2   205  TYR205      0.2290
     63  O        -20.5640   27.4430   41.2460 O.2   205  TYR205     -0.2864
     64  CB       -21.3540   24.9720   40.7100 C.3   205  TYR205      0.0560
     65  CG       -20.4960   23.7500   40.8050 C.ar  205  TYR205     -0.0198
     66  CD1      -19.2760   23.7890   41.4890 C.ar  205  TYR205     -0.0009
     67  CD2      -20.8800   22.5530   40.1940 C.ar  205  TYR205     -0.0009
     68  CE1      -18.4530   22.6720   41.5620 C.ar  205  TYR205      0.0417
     69  CE2      -20.0640   21.4190   40.2580 C.ar  205  TYR205      0.0417
     70  CZ       -18.8510   21.4870   40.9440 C.ar  205  TYR205      0.1957
     71  OH       -18.0300   20.3850   41.0130 O.3   205  TYR205     -0.2866
     72  N        -29.3140   25.4150   33.9860 N.3   215  GLN215     -0.1245
     73  CA       -29.3980   24.0740   34.5560 C.3   215  GLN215      0.1566
     74  C        -30.4510   23.2320   33.8470 C.2   215  GLN215      0.2260
     75  O        -31.4810   23.7480   33.4110 O.2   215  GLN215     -0.2867
     76  CB       -29.7240   24.1680   36.0490 C.3   215  GLN215      0.0367
     77  CG       -29.5440   22.8610   36.8030 C.3   215  GLN215      0.0905
     78  CD       -29.4830   23.0630   38.3080 C.2   215  GLN215      0.2608
     79  OE1      -28.7420   23.9180   38.8140 O.2   215  GLN215     -0.2717
     80  NE2      -30.2540   22.2690   39.0350 N.am  215  GLN215     -0.0878
     81  N        -32.6560   19.7750   34.4350 N.3   217  LEU217     -0.1245
     82  CA       -33.0460   18.7280   35.3520 C.3   217  LEU217      0.1561
     83  C        -34.1650   17.9100   34.7620 C.2   217  LEU217      0.2260
     84  O        -35.2910   18.3810   34.6280 O.2   217  LEU217     -0.2867
     85  CB       -33.5040   19.3450   36.6600 C.3   217  LEU217      0.0270
     86  CG       -33.3890   18.3960   37.8330 C.3   217  LEU217      0.0019
     87  CD1      -31.9110   18.1480   38.1060 C.3   217  LEU217      0.0001
     88  CD2      -34.0730   18.9880   39.0460 C.3   217  LEU217      0.0001
     89  N        -24.7590   29.6100   48.0670 N.3   292  ASN292     -0.1240
     90  CA       -24.9970   28.2430   48.4760 C.3   292  ASN292      0.1653
     91  C        -24.4160   28.1380   49.8710 C.2   292  ASN292      0.2266
     92  O        -23.2030   27.9690   50.0570 O.2   292  ASN292     -0.2867
     93  CB       -24.3200   27.2200   47.5780 C.3   292  ASN292      0.1155
     94  CG       -24.8210   25.8130   47.8560 C.2   292  ASN292      0.2627
     95  OD1      -25.0640   25.4470   49.0110 O.2   292  ASN292     -0.2716
     96  ND2      -24.9870   25.0220   46.8030 N.am  292  ASN292     -0.0877
     97  N        -33.1300   27.6880   43.6870 N.3   347  HIS347     -0.1226
     98  CA       -34.0570   26.5640   43.8430 C.3   347  HIS347      0.1752
     99  C        -33.9710   25.9010   45.2010 C.2   347  HIS347      0.2597
    100  O        -33.0270   26.1110   45.9580 O.2   347  HIS347     -0.2718
    101  CB       -33.7880   25.5170   42.7710 C.3   347  HIS347      0.0759
    102  CG       -32.3370   25.1830   42.6240 C.ar  347  HIS347      0.0818
    103  ND1      -31.3670   26.1530   42.5160 N.ar  347  HIS347     -0.2268
    104  CD2      -31.6960   23.9940   42.5280 C.ar  347  HIS347      0.1154
    105  CE1      -30.1880   25.5780   42.3540 C.ar  347  HIS347      0.1986
    106  NE2      -30.3600   24.2690   42.3560 N.ar  347  HIS347     -0.2212
    107  N        -34.9710   25.0890   45.4960 N.am  348  GLY348     -0.1942
    108  CA       -35.0030   24.3930   46.7600 C.3   348  GLY348      0.2014
    109  C        -36.2180   23.4960   46.8050 C.2   348  GLY348      0.2638
    110  O        -36.8130   23.1810   45.7720 O.2   348  GLY348     -0.2714
    111  N        -36.5990   23.0830   48.0040 N.am  349  ARG349     -0.1977
    112  CA       -37.7600   22.2230   48.1420 C.3   349  ARG349      0.1597
    113  C        -38.1510   22.0240   49.5960 C.2   349  ARG349      0.2287
    114  O        -37.3030   22.0940   50.4870 O.2   349  ARG349     -0.2864
    115  CB       -37.4820   20.8690   47.5070 C.3   349  ARG349      0.0334
    116  CG       -36.2860   20.1970   48.0760 C.3   349  ARG349      0.0492
    117  CD       -36.3690   18.7120   47.8630 C.3   349  ARG349      0.2205
    118  NE       -36.1650   18.0390   49.1340 N.pl3 349  ARG349     -0.0865
    119  CZ       -35.4570   16.9300   49.2820 C.cat 349  ARG349      0.5346
    120  NH1      -34.8890   16.3640   48.2240 N.pl3 349  ARG349      0.1354
    121  NH2      -35.2990   16.4110   50.4940 N.pl3 349  ARG349      0.1354
    122  N        -37.0800    8.7520   43.7690 N.3   360  ARG360     -0.1245
    123  CA       -36.8470    9.8160   42.8130 C.3   360  ARG360      0.1563
    124  C        -35.5510    9.5960   42.0530 C.2   360  ARG360      0.2260
    125  O        -34.4950    9.4580   42.6540 O.2   360  ARG360     -0.2867
    126  CB       -36.8020   11.1530   43.5490 C.3   360  ARG360      0.0307
    127  CG       -36.7680   12.3720   42.6490 C.3   360  ARG360      0.0489
    128  CD       -36.5990   13.6470   43.4680 C.3   360  ARG360      0.2205
    129  NE       -35.3410   13.6510   44.2090 N.pl3 360  ARG360     -0.0865
    130  CZ       -34.9790   14.6040   45.0610 C.cat 360  ARG360      0.5346
    131  NH1      -35.7830   15.6340   45.2830 N.pl3 360  ARG360      0.1354
    132  NH2      -33.8130   14.5290   45.6880 N.pl3 360  ARG360      0.1354
    133  N        -33.3660   11.3690   39.0410 N.3   362  LEU362     -0.1245
    134  CA       -33.1850   12.5440   38.1930 C.3   362  LEU362      0.1561
    135  C        -31.8890   12.5390   37.3520 C.2   362  LEU362      0.2260
    136  O        -30.9500   11.7820   37.6180 O.2   362  LEU362     -0.2867
    137  CB       -33.2100   13.8020   39.0760 C.3   362  LEU362      0.0270
    138  CG       -34.5180   14.4680   39.5340 C.3   362  LEU362      0.0019
    139  CD1      -35.6860   13.5020   39.6300 C.3   362  LEU362      0.0001
    140  CD2      -34.2440   15.1040   40.8690 C.3   362  LEU362      0.0001
    141  N        -25.4770   20.9380   32.8930 N.3   366  TYR366     -0.1241
    142  CA       -25.2600   22.3770   32.8940 C.3   366  TYR366      0.1605
    143  C        -24.9090   22.8350   31.4870 C.2   366  TYR366      0.2264
    144  O        -24.3980   22.0550   30.6730 O.2   366  TYR366     -0.2867
    145  CB       -24.1290   22.7570   33.8620 C.3   366  TYR366      0.0534
    146  CG       -24.4280   22.5110   35.3230 C.ar  366  TYR366     -0.0201
    147  CD1      -25.4410   23.2130   35.9790 C.ar  366  TYR366     -0.0009
    148  CD2      -23.6730   21.6100   36.0590 C.ar  366  TYR366     -0.0009
    149  CE1      -25.6840   23.0290   37.3380 C.ar  366  TYR366      0.0417
    150  CE2      -23.9040   21.4150   37.4180 C.ar  366  TYR366      0.0417
    151  CZ       -24.9050   22.1260   38.0570 C.ar  366  TYR366      0.1957
    152  OH       -25.0980   21.9560   39.4170 O.3   366  TYR366     -0.2866
@<TRIPOS>BOND
     1   144   143    2
     2   143   142    1
     3   141   142    1
     4   142   145    1
     5    75    74    2
     6    74    73    1
     7   145   146    1
     8    72    73    1
     9    81    82    1
    10    73    76    1
    11    84    83    2
    12    83    82    1
    13    13    14    1
    14   146   147   ar
    15   146   148   ar
    16    82    85    1
    17   147   149   ar
    18    76    77    1
    19   148   150   ar
    20    16    15    2
    21     4     3    2
    22     3     2    1
    23    14    15    1
    24    14    17    1
    25    85    86    1
    26    19    21   ar
    27    19    18   ar
    28    21    22   ar
    29    77    78    1
    30   149   151   ar
    31   135   136    2
    32   135   134    1
    33   150   151   ar
    34    18    17    1
    35    18    20   ar
    36    22    24   ar
    37    22    20   ar
    38     1     2    1
    39     2     5    1
    40    86    87    1
    41    86    88    1
    42    24    26   ar
    43    20    23   ar
    44   151   152    1
    45   134   133    1
    46   134   137    1
    47     5     6    1
    48    78    79    2
    49    78    80   am
    50    26    25   ar
    51    23    25   ar
    52   137   138    1
    53   138   139    1
    54   138   140    1
    55     6     8   ar
    56     6     7   ar
    57    27    28    1
    58     8    10   ar
    59    67    69   ar
    60    67    65   ar
    61    69    70   ar
    62     7     9   ar
    63    64    65    1
    64    64    61    1
    65    65    66   ar
    66    59    57   ar
    67    70    71    1
    68    70    68   ar
    69    55    54    2
    70    56    57    1
    71    56    53    1
    72    63    62    2
    73    28    29    1
    74    28    31    1
    75    33    31    1
    76    66    68   ar
    77    10    11   ar
    78    57    58   ar
    79    30    29    2
    80    31    32    1
    81    54    53    1
    82    54    60   am
    83     9    11   ar
    84   124   125    2
    85   124   123    1
    86    61    62    1
    87    61    60    1
    88    53    52    1
    89   105   106   ar
    90   105   103   ar
    91   106   104   ar
    92    11    12    1
    93   103   102   ar
    94   104   102   ar
    95   102   101    1
    96   127   128    1
    97   127   126    1
    98   101    98    1
    99   123   126    1
   100   123   122    1
   101   128   129    1
   102    97    98    1
   103    98    99    1
   104   129   130    2
   105    45    44    2
   106   130   131    1
   107   130   132    1
   108    44    43    1
   109    99   107   am
   110    99   100    2
   111   107   108    1
   112    51    49   ar
   113    51    50   ar
   114   110   109    2
   115    49    47   ar
   116    50    48   ar
   117    43    42    1
   118    43    46    1
   119    47    48   ar
   120    47    46    1
   121   108   109    1
   122    96    94   am
   123   109   111   am
   124   115   116    1
   125   115   112    1
   126    93    94    1
   127    93    90    1
   128    94    95    2
   129   117   116    1
   130   117   118    1
   131   111   112    1
   132    89    90    1
   133   112   113    1
   134   120   119    1
   135    40    39    1
   136    90    91    1
   137   118   119    2
   138   119   121    1
   139   113   114    2
   140    38    39    1
   141    38    35    1
   142    39    41    1
   143    91    92    2
   144    37    36    2
   145    36    35    1
   146    35    34    1
