@<TRIPOS>MOLECULE
tmp/4c91A01.pdb
 146 146 0 0 0
SMALL
GASTEIGER

@<TRIPOS>ATOM
      1  N         -9.5170   15.4490   33.3950 N.3   172  PHE172     -0.1241
      2  CA        -8.6950   14.5080   32.6700 C.3   172  PHE172      0.1605
      3  C         -8.1270   13.5100   33.6480 C.2   172  PHE172      0.2264
      4  O         -7.3360   13.8420   34.5410 O.2   172  PHE172     -0.2867
      5  CB        -7.6090   15.2750   31.9690 C.3   172  PHE172      0.0534
      6  CG        -6.5870   14.4420   31.2740 C.ar  172  PHE172     -0.0203
      7  CD1       -6.8690   13.2110   30.7520 C.ar  172  PHE172     -0.0042
      8  CD2       -5.2910   14.9340   31.1490 C.ar  172  PHE172     -0.0042
      9  CE1       -5.8910   12.5070   30.0550 C.ar  172  PHE172     -0.0003
     10  CE2       -4.3500   14.2550   30.4420 C.ar  172  PHE172     -0.0003
     11  CZ        -4.6410   13.0390   29.9080 C.ar  172  PHE172     -0.0000
     12  N         -5.5940   10.9960   34.4550 N.3   174  ASN174     -0.1225
     13  CA        -4.2350   10.8980   33.9000 C.3   174  ASN174      0.1785
     14  C         -3.2410   10.4570   34.9570 C.2   174  ASN174      0.2597
     15  O         -3.5560   10.4540   36.1620 O.2   174  ASN174     -0.2718
     16  CB        -3.8510   12.2540   33.3280 C.3   174  ASN174      0.1169
     17  CG        -2.5640   12.2320   32.5200 C.2   174  ASN174      0.2627
     18  OD1       -1.6880   13.0700   32.7420 O.2   174  ASN174     -0.2716
     19  ND2       -2.4510   11.3040   31.5820 N.am  174  ASN174     -0.0877
     20  N         -2.0260   10.0850   34.5430 N.am  175  ASP175     -0.1974
     21  CA        -1.0330    9.5910   35.5330 C.3   175  ASP175      0.1709
     22  C         -1.6970    8.4560   36.3210 C.2   175  ASP175      0.2293
     23  O         -1.4380    8.2460   37.5090 O.2   175  ASP175     -0.2864
     24  CB        -0.5760   10.7400   36.4700 C.3   175  ASP175      0.1436
     25  CG        -0.2040   12.0010   35.6770 C.2   175  ASP175      0.3671
     26  OD1        0.3150   11.8140   34.5740 O.co2 175  ASP175     -0.2456
     27  OD2       -0.4260   13.1600   36.1320 O.co2 175  ASP175     -0.2456
     28  N        -11.7150   14.0630   29.5460 N.3   214  TRP214     -0.1241
     29  CA       -10.6630   13.3940   28.8070 C.3   214  TRP214      0.1605
     30  C        -10.3920   12.0880   29.5550 C.2   214  TRP214      0.2264
     31  O         -9.9380   12.1010   30.6900 O.2   214  TRP214     -0.2867
     32  CB        -9.3730   14.1640   28.7790 C.3   214  TRP214      0.0550
     33  CG        -9.3240   15.3580   27.9530 C.ar  214  TRP214      0.0003
     34  CD1      -10.3040   15.8530   27.1240 C.ar  214  TRP214      0.0946
     35  CD2       -8.2320   16.2440   27.8510 C.ar  214  TRP214      0.0152
     36  NE1       -9.8530   16.9930   26.5200 N.ar  214  TRP214     -0.2442
     37  CE2       -8.5900   17.2610   26.9620 C.ar  214  TRP214      0.0810
     38  CE3       -6.9780   16.2910   28.4530 C.ar  214  TRP214      0.0012
     39  CZ2       -7.7180   18.3110   26.6200 C.ar  214  TRP214      0.0191
     40  CZ3       -6.1230   17.3540   28.1310 C.ar  214  TRP214      0.0001
     41  CH2       -6.5000   18.3330   27.2360 C.ar  214  TRP214      0.0015
     42  N         -5.7910    7.4710   29.3220 N.3   217  MET217     -0.1230
     43  CA        -5.2120    7.1560   28.0070 C.3   217  MET217      0.1702
     44  C         -3.8060    6.5790   28.0520 C.2   217  MET217      0.2592
     45  O         -3.2180    6.4140   27.0070 O.2   217  MET217     -0.2718
     46  CB        -5.2420    8.4000   27.0990 C.3   217  MET217      0.0401
     47  CG        -4.7290    9.7070   27.6900 C.3   217  MET217      0.0596
     48  SD        -2.9490    9.7630   28.0310 S.3   217  MET217     -0.1393
     49  CE        -2.2730    9.7000   26.3930 C.3   217  MET217      0.0692
     50  N         -3.2720    6.2800   29.2430 N.am  218  TRP218     -0.1976
     51  CA        -1.9000    5.7320   29.3700 C.3   218  TRP218      0.1640
     52  C         -1.8250    4.3090   28.8450 C.2   218  TRP218      0.2290
     53  O         -1.0210    4.0090   28.0170 O.2   218  TRP218     -0.2864
     54  CB        -1.4070    5.7370   30.8380 C.3   218  TRP218      0.0576
     55  CG        -0.6030    6.9620   31.2400 C.ar  218  TRP218      0.0006
     56  CD1       -0.5320    8.1530   30.5940 C.ar  218  TRP218      0.0946
     57  CD2        0.1880    7.1080   32.4390 C.ar  218  TRP218      0.0152
     58  NE1        0.2760    9.0350   31.2910 N.ar  218  TRP218     -0.2442
     59  CE2        0.7330    8.4140   32.4300 C.ar  218  TRP218      0.0810
     60  CE3        0.4910    6.2520   33.5040 C.ar  218  TRP218      0.0012
     61  CZ2        1.5860    8.8700   33.4200 C.ar  218  TRP218      0.0191
     62  CZ3        1.3190    6.6890   34.4880 C.ar  218  TRP218      0.0001
     63  CH2        1.8720    8.0100   34.4520 C.ar  218  TRP218      0.0015
     64  N         -6.8800   14.0110   24.9980 N.3   243  SER243     -0.1202
     65  CA        -5.8390   14.9260   25.4810 C.3   243  SER243      0.2020
     66  C         -5.1570   15.5330   24.2670 C.2   243  SER243      0.2619
     67  O         -5.3900   15.0840   23.1400 O.2   243  SER243     -0.2717
     68  CB        -4.8400   14.1980   26.3810 C.3   243  SER243      0.2103
     69  OG        -4.1260   13.2410   25.6390 O.3   243  SER243     -0.2182
     70  N         -4.3140   16.5330   24.5230 N.am  244  HIS244     -0.1961
     71  CA        -3.8270   17.3950   23.4670 C.3   244  HIS244      0.1787
     72  C         -2.8890   16.7030   22.4900 C.2   244  HIS244      0.2620
     73  O         -2.7610   17.2090   21.3940 O.2   244  HIS244     -0.2715
     74  CB        -3.2570   18.7150   23.9640 C.3   244  HIS244      0.0785
     75  CG        -2.2690   18.5790   25.0460 C.ar  244  HIS244      0.0821
     76  ND1       -1.2080   17.7150   24.9520 N.ar  244  HIS244     -0.2267
     77  CD2       -2.1610   19.2020   26.2410 C.ar  244  HIS244      0.1154
     78  CE1       -0.4950   17.7890   26.0610 C.ar  244  HIS244      0.1986
     79  NE2       -1.0560   18.6790   26.8590 N.ar  244  HIS244     -0.2212
     80  N         -2.3460   15.5370   22.8500 N.am  245  HIS245     -0.1973
     81  CA        -1.4900   14.7120   22.0080 C.3   245  HIS245      0.1656
     82  C         -2.2400   13.5500   21.3470 C.2   245  HIS245      0.2291
     83  O         -1.6190   12.5990   20.8630 O.2   245  HIS245     -0.2864
     84  CB        -0.3410   14.0980   22.8560 C.3   245  HIS245      0.0771
     85  CG         0.7310   15.0790   23.2340 C.ar  245  HIS245      0.0820
     86  ND1        0.9720   15.4710   24.5440 N.ar  245  HIS245     -0.2267
     87  CD2        1.6330   15.7430   22.4730 C.ar  245  HIS245      0.1154
     88  CE1        1.9770   16.3280   24.5680 C.ar  245  HIS245      0.1986
     89  NE2        2.3900   16.5170   23.3260 N.ar  245  HIS245     -0.2212
     90  N          1.9060   22.9840   34.1320 N.3   355  ASN355     -0.1240
     91  CA         1.8010   21.7090   34.8370 C.3   355  ASN355      0.1653
     92  C          1.8170   21.8290   36.3480 C.2   355  ASN355      0.2266
     93  O          1.7380   20.8290   37.0260 O.2   355  ASN355     -0.2867
     94  CB         2.8890   20.7310   34.3860 C.3   355  ASN355      0.1155
     95  CG         2.9020   20.5510   32.8810 C.2   355  ASN355      0.2627
     96  OD1        1.8470   20.3260   32.2580 O.2   355  ASN355     -0.2716
     97  ND2        4.0820   20.6960   32.2800 N.am  355  ASN355     -0.0877
     98  N         -5.9920   24.2900   30.2210 N.3   377  TYR377     -0.1241
     99  CA        -5.7210   22.9820   30.7140 C.3   377  TYR377      0.1605
    100  C         -4.8880   23.2010   31.9410 C.2   377  TYR377      0.2264
    101  O         -3.7710   23.6730   31.8370 O.2   377  TYR377     -0.2867
    102  CB        -4.9560   22.1900   29.6640 C.3   377  TYR377      0.0534
    103  CG        -4.4330   20.8530   30.1160 C.ar  377  TYR377     -0.0201
    104  CD1       -5.1530   20.0540   30.9810 C.ar  377  TYR377     -0.0009
    105  CD2       -3.2370   20.3560   29.6170 C.ar  377  TYR377     -0.0009
    106  CE1       -4.6820   18.8320   31.3940 C.ar  377  TYR377      0.0417
    107  CE2       -2.7660   19.0980   30.0110 C.ar  377  TYR377      0.0417
    108  CZ        -3.5120   18.3620   30.9100 C.ar  377  TYR377      0.1957
    109  OH        -3.0710   17.1750   31.3450 O.3   377  TYR377     -0.2866
    110  N         -3.4200   21.8230   35.8450 N.3   379  HIS379     -0.1241
    111  CA        -2.9290   20.6110   36.5400 C.3   379  HIS379      0.1621
    112  C         -3.0210   20.7200   38.0350 C.2   379  HIS379      0.2264
    113  O         -2.6080   21.7210   38.6030 O.2   379  HIS379     -0.2867
    114  CB        -1.4460   20.3930   36.2320 C.3   379  HIS379      0.0745
    115  CG        -1.1900   19.8160   34.8940 C.ar  379  HIS379      0.0817
    116  ND1       -1.2050   20.5790   33.7590 N.ar  379  HIS379     -0.2268
    117  CD2       -0.9390   18.5420   34.4970 C.ar  379  HIS379      0.1154
    118  CE1       -0.9450   19.8100   32.7050 C.ar  379  HIS379      0.1986
    119  NE2       -0.7800   18.5650   33.1270 N.ar  379  HIS379     -0.2212
    120  N          0.7140   15.8070   38.1280 N.3   382  TYR382     -0.1227
    121  CA         1.6450   15.8800   36.9780 C.3   382  TYR382      0.1736
    122  C          2.7320   14.8340   37.0300 C.2   382  TYR382      0.2595
    123  O          3.3070   14.5820   38.0750 O.2   382  TYR382     -0.2718
    124  CB         2.3230   17.2640   36.9350 C.3   382  TYR382      0.0548
    125  CG         3.1880   17.4420   35.7340 C.ar  382  TYR382     -0.0200
    126  CD1        2.6670   17.2250   34.4700 C.ar  382  TYR382     -0.0009
    127  CD2        4.5280   17.8410   35.8310 C.ar  382  TYR382     -0.0009
    128  CE1        3.4290   17.4080   33.3360 C.ar  382  TYR382      0.0417
    129  CE2        5.3020   18.0290   34.6810 C.ar  382  TYR382      0.0417
    130  CZ         4.7370   17.7850   33.4560 C.ar  382  TYR382      0.1957
    131  OH         5.4310   17.9190   32.3170 O.3   382  TYR382     -0.2866
    132  N          2.9960   14.2280   35.8800 N.am  383  VAL383     -0.1980
    133  CA         4.1390   13.3390   35.7110 C.3   383  VAL383      0.1595
    134  C          5.0640   13.9860   34.6960 C.2   383  VAL383      0.2287
    135  O          4.7340   14.1010   33.5220 O.2   383  VAL383     -0.2864
    136  CB         3.7020   11.9580   35.2470 C.3   383  VAL383      0.0276
    137  CG1        4.9040   11.1100   34.8370 C.3   383  VAL383      0.0022
    138  CG2        2.9240   11.2800   36.3790 C.3   383  VAL383      0.0022
    139  N         -6.3700   18.2950   34.8560 N.3   419  ASN419     -0.1240
    140  CA        -5.7190   17.0280   35.0600 C.3   419  ASN419      0.1653
    141  C         -5.8850   16.6410   36.5350 C.2   419  ASN419      0.2266
    142  O         -5.3430   17.3120   37.4120 O.2   419  ASN419     -0.2867
    143  CB        -4.2270   17.1070   34.7320 C.3   419  ASN419      0.1155
    144  CG        -3.6030   15.7740   34.7060 C.2   419  ASN419      0.2627
    145  OD1       -3.9020   14.9430   35.5360 O.2   419  ASN419     -0.2716
    146  ND2       -2.8230   15.4910   33.6630 N.am  419  ASN419     -0.0877
@<TRIPOS>BOND
     1    83    82    2
     2    82    81    1
     3    73    72    2
     4    81    80    1
     5    81    84    1
     6    87    85   ar
     7    87    89   ar
     8    72    80   am
     9    72    71    1
    10    84    85    1
    11    67    66    2
    12    85    86   ar
    13    89    88   ar
    14    71    74    1
    15    71    70    1
    16    74    75    1
    17    66    70   am
    18    66    65    1
    19    86    88   ar
    20    76    75   ar
    21    76    78   ar
    22    64    65    1
    23    75    77   ar
    24    65    68    1
    25    69    68    1
    26    78    79   ar
    27    77    79   ar
    28    49    48    1
    29    36    37   ar
    30    36    34   ar
    31    39    37   ar
    32    39    41   ar
    33    37    35   ar
    34    45    44    2
    35    46    47    1
    36    46    43    1
    37    34    33   ar
    38    41    40   ar
    39    47    48    1
    40    35    33   ar
    41    35    38   ar
    42    33    32    1
    43    43    44    1
    44    43    42    1
    45    53    52    2
    46    44    50   am
    47    40    38   ar
    48    32    29    1
    49    29    28    1
    50    29    30    1
    51    52    51    1
    52    50    51    1
    53    51    54    1
    54    30    31    2
    55   105   107   ar
    56   105   103   ar
    57   102   103    1
    58   102    99    1
    59    11     9   ar
    60    11    10   ar
    61   107   108   ar
    62     9     7   ar
    63   103   104   ar
    64    98    99    1
    65    10     8   ar
    66    56    55   ar
    67    56    58   ar
    68    99   100    1
    69     7     6   ar
    70    54    55    1
    71   108   109    1
    72   108   106   ar
    73   104   106   ar
    74     8     6   ar
    75    55    57   ar
    76     6     5    1
    77    58    59   ar
    78    19    17   am
    79   101   100    2
    80     5     2    1
    81    96    95    2
    82    97    95   am
    83   131   130    1
    84    59    57   ar
    85    59    61   ar
    86    57    60   ar
    87    17    18    2
    88    17    16    1
    89     2     1    1
    90     2     3    1
    91   118   119   ar
    92   118   116   ar
    93    95    94    1
    94   119   117   ar
    95    16    13    1
    96   128   130   ar
    97   128   126   ar
    98    61    63   ar
    99   130   129   ar
   100    60    62   ar
   101   135   134    2
   102     3     4    2
   103   146   144   am
   104   116   115   ar
   105    13    12    1
   106    13    14    1
   107    90    91    1
   108    94    91    1
   109    63    62   ar
   110   126   125   ar
   111   117   115   ar
   112    20    14   am
   113    20    21    1
   114    26    25   ar
   115   129   127   ar
   116   134   133    1
   117   144   143    1
   118   144   145    2
   119   143   140    1
   120   137   136    1
   121    91    92    1
   122   139   140    1
   123   115   114    1
   124    14    15    2
   125   140   141    1
   126   136   133    1
   127   136   138    1
   128    21    22    1
   129    21    24    1
   130    25    27   ar
   131    25    24    1
   132   133   132    1
   133   125   127   ar
   134   125   124    1
   135   110   111    1
   136   132   122   am
   137   114   111    1
   138    22    23    2
   139    92    93    2
   140   141   142    2
   141   111   112    1
   142   124   121    1
   143   121   122    1
   144   121   120    1
   145   122   123    2
   146   112   113    2
