@<TRIPOS>MOLECULE
tmp/4c94E00.pdb
 160 148 0 0 0
SMALL
GASTEIGER

@<TRIPOS>ATOM
      1  N        -41.7880  -62.5370   74.3680 N.3    25  PHE25      -0.1241
      2  CA       -40.6100  -61.8500   73.8090 C.3    25  PHE25       0.1605
      3  C        -40.8820  -60.4230   73.5540 C.2    25  PHE25       0.2264
      4  O        -40.0080  -59.5980   73.6810 O.2    25  PHE25      -0.2867
      5  CB       -40.1920  -62.4210   72.4540 C.3    25  PHE25       0.0534
      6  CG       -38.9260  -61.8390   71.9060 C.ar   25  PHE25      -0.0203
      7  CD1      -37.7120  -62.2360   72.3900 C.ar   25  PHE25      -0.0042
      8  CD2      -38.9520  -60.9270   70.8950 C.ar   25  PHE25      -0.0042
      9  CE1      -36.5280  -61.7190   71.8830 C.ar   25  PHE25      -0.0003
     10  CE2      -37.7750  -60.3920   70.3800 C.ar   25  PHE25      -0.0003
     11  CZ       -36.5510  -60.7860   70.8710 C.ar   25  PHE25      -0.0000
     12  N        -40.3270  -59.0690   77.4580 N.3    29  ALA29      -0.1231
     13  CA       -38.9800  -59.5760   77.6840 C.3    29  ALA29       0.1694
     14  C        -38.2750  -58.7120   78.6700 C.2    29  ALA29       0.2592
     15  O        -37.2890  -59.0730   79.3020 O.2    29  ALA29      -0.2718
     16  CB       -38.1750  -59.6570   76.3780 C.3    29  ALA29       0.0304
     17  N        -38.7590  -57.5220   78.8010 N.am   30  ASP30      -0.1974
     18  CA       -37.8990  -56.6070   79.4230 C.3    30  ASP30       0.1709
     19  C        -38.1000  -56.6060   80.8670 C.2    30  ASP30       0.2293
     20  O        -37.2260  -56.1830   81.5590 O.2    30  ASP30      -0.2864
     21  CB       -37.8910  -55.2640   78.6720 C.3    30  ASP30       0.1436
     22  CG       -37.0500  -55.3810   77.3470 C.2    30  ASP30       0.3671
     23  OD1      -36.3060  -56.3970   77.0910 O.co2  30  ASP30      -0.2456
     24  OD2      -37.1350  -54.4530   76.5440 O.co2  30  ASP30      -0.2456
     25  N        -36.7000  -61.1220   81.4550 N.3    33  ILE33      -0.1245
     26  CA       -35.3240  -61.5480   81.4250 C.3    33  ILE33       0.1561
     27  C        -34.4700  -61.1660   82.6470 C.2    33  ILE33       0.2260
     28  O        -33.6530  -61.9200   83.1100 O.2    33  ILE33      -0.2867
     29  CB       -34.7140  -61.2770   80.0760 C.3    33  ILE33       0.0252
     30  CG1      -35.5600  -62.0960   79.1190 C.3    33  ILE33       0.0019
     31  CG2      -33.3020  -61.8640   79.9920 C.3    33  ILE33       0.0019
     32  CD1      -35.0110  -62.0420   77.7330 C.3    33  ILE33       0.0001
     33  N        -27.9770  -62.2760   80.9930 N.3    40  ALA40      -0.1231
     34  CA       -28.2140  -61.9570   79.6330 C.3    40  ALA40       0.1694
     35  C        -28.6170  -60.4490   79.5790 C.2    40  ALA40       0.2591
     36  O        -28.0270  -59.6620   78.8550 O.2    40  ALA40      -0.2718
     37  CB       -29.3220  -62.8490   79.1410 C.3    40  ALA40       0.0304
     38  N        -29.5870  -60.0590   80.3940 N.am   41  VAL41      -0.1980
     39  CA       -29.9170  -58.7050   80.5050 C.3    41  VAL41       0.1595
     40  C        -30.1350  -58.3050   81.9640 C.2    41  VAL41       0.2287
     41  O        -31.0200  -58.8340   82.5660 O.2    41  VAL41      -0.2864
     42  CB       -31.2100  -58.5170   79.7880 C.3    41  VAL41       0.0276
     43  CG1      -31.8180  -57.1390   80.0720 C.3    41  VAL41       0.0022
     44  CG2      -31.0150  -58.7250   78.3140 C.3    41  VAL41       0.0022
     45  N        -30.4460  -50.6810   77.2360 N.3    59  ILE59      -0.1245
     46  CA       -30.4580  -52.0890   77.6520 C.3    59  ILE59       0.1561
     47  C        -29.1790  -52.4770   78.2960 C.2    59  ILE59       0.2260
     48  O        -28.1620  -52.5560   77.6400 O.2    59  ILE59      -0.2867
     49  CB       -30.7630  -52.9600   76.4440 C.3    59  ILE59       0.0252
     50  CG1      -32.2570  -52.8500   76.2580 C.3    59  ILE59       0.0019
     51  CG2      -30.4210  -54.4290   76.6430 C.3    59  ILE59       0.0019
     52  CD1      -32.6570  -53.7240   75.1200 C.3    59  ILE59       0.0001
     53  N        -26.9480  -54.8810   79.5890 N.3    61  LEU61      -0.1245
     54  CA       -26.5710  -56.3040   79.4940 C.3    61  LEU61       0.1561
     55  C        -25.7340  -56.9090   80.6360 C.2    61  LEU61       0.2260
     56  O        -25.1380  -56.2070   81.4730 O.2    61  LEU61      -0.2867
     57  CB       -25.7490  -56.5240   78.2290 C.3    61  LEU61       0.0270
     58  CG       -26.1140  -55.7930   76.9400 C.3    61  LEU61       0.0019
     59  CD1      -24.9670  -55.8220   75.8700 C.3    61  LEU61       0.0001
     60  CD2      -27.3860  -56.3790   76.3960 C.3    61  LEU61       0.0001
     61  N        -22.5630  -61.4970   78.8550 N.3    65  SER65      -0.1217
     62  CA       -21.8790  -60.7090   77.8480 C.3    65  SER65       0.1889
     63  C        -20.8550  -59.7550   78.4160 C.2    65  SER65       0.2288
     64  O        -21.1140  -58.9630   79.3630 O.2    65  SER65      -0.2866
     65  CB       -22.8110  -59.8410   76.9940 C.3    65  SER65       0.2089
     66  OG       -22.1810  -59.5740   75.7280 O.3    65  SER65      -0.2183
     67  N        -20.1850  -57.0410   77.1780 N.3    67  TYR67      -0.1241
     68  CA       -20.4620  -55.7240   76.6920 C.3    67  TYR67       0.1605
     69  C        -21.2370  -54.7890   77.6310 C.2    67  TYR67       0.2264
     70  O        -21.1320  -53.5670   77.5820 O.2    67  TYR67      -0.2867
     71  CB       -21.1480  -55.8330   75.3150 C.3    67  TYR67       0.0534
     72  CG       -20.2680  -56.1210   74.1180 C.ar   67  TYR67      -0.0201
     73  CD1      -18.9630  -55.6130   74.0210 C.ar   67  TYR67      -0.0009
     74  CD2      -20.7900  -56.8340   73.0240 C.ar   67  TYR67      -0.0009
     75  CE1      -18.1800  -55.8700   72.8990 C.ar   67  TYR67       0.0417
     76  CE2      -20.0300  -57.0610   71.8910 C.ar   67  TYR67       0.0417
     77  CZ       -18.7310  -56.5940   71.8470 C.ar   67  TYR67       0.1957
     78  OH       -17.9870  -56.8340   70.7450 O.3    67  TYR67      -0.2866
     79  N        -26.5810  -51.5020   75.1860 N.3    70  VAL70      -0.1245
     80  CA       -26.9770  -51.1400   73.8330 C.3    70  VAL70       0.1561
     81  C        -28.2960  -50.3890   73.8280 C.2    70  VAL70       0.2260
     82  O        -29.0990  -50.5800   74.7490 O.2    70  VAL70      -0.2867
     83  CB       -27.1130  -52.3320   72.9020 C.3    70  VAL70       0.0252
     84  CG1      -25.8600  -53.1420   72.8380 C.3    70  VAL70       0.0019
     85  CG2      -28.2390  -53.1730   73.3060 C.3    70  VAL70       0.0019
     86  N        -31.9680  -49.7360   71.9520 N.3    72  HIS72      -0.1241
     87  CA       -32.9020  -50.2790   70.9550 C.3    72  HIS72       0.1621
     88  C        -33.8820  -49.2210   70.5060 C.2    72  HIS72       0.2264
     89  O        -34.3000  -48.3350   71.2960 O.2    72  HIS72      -0.2867
     90  CB       -33.7520  -51.4450   71.4910 C.3    72  HIS72       0.0745
     91  CG       -33.0380  -52.7560   71.5790 C.ar   72  HIS72       0.0817
     92  ND1      -33.6410  -53.8640   72.1130 N.ar   72  HIS72      -0.2268
     93  CD2      -31.7880  -53.1460   71.2120 C.ar   72  HIS72       0.1154
     94  CE1      -32.7990  -54.8910   72.0520 C.ar   72  HIS72       0.1986
     95  NE2      -31.6630  -54.4800   71.5220 N.ar   72  HIS72      -0.2212
     96  N        -42.1400  -58.5680   64.6220 N.3    84  TYR84      -0.1241
     97  CA       -41.5430  -57.5730   65.5050 C.3    84  TYR84       0.1605
     98  C        -40.2950  -57.1640   64.8780 C.2    84  TYR84       0.2264
     99  O        -39.6010  -58.0230   64.3020 O.2    84  TYR84      -0.2867
    100  CB       -41.1930  -58.2110   66.8440 C.3    84  TYR84       0.0534
    101  CG       -40.5350  -57.3180   67.8640 C.ar   84  TYR84      -0.0201
    102  CD1      -41.2320  -56.2800   68.4390 C.ar   84  TYR84      -0.0009
    103  CD2      -39.2400  -57.5560   68.3010 C.ar   84  TYR84      -0.0009
    104  CE1      -40.6670  -55.4650   69.4080 C.ar   84  TYR84       0.0417
    105  CE2      -38.6350  -56.7300   69.2590 C.ar   84  TYR84       0.0417
    106  CZ       -39.3630  -55.6900   69.8240 C.ar   84  TYR84       0.1957
    107  OH       -38.8520  -54.8840   70.8160 O.3    84  TYR84      -0.2866
    108  N        -36.7950  -54.2960   65.2630 N.3    86  TYR86      -0.1241
    109  CA       -36.1050  -53.3800   66.2280 C.3    86  TYR86       0.1605
    110  C        -34.7400  -53.1890   65.7680 C.2    86  TYR86       0.2264
    111  O        -34.2570  -53.8960   64.8930 O.2    86  TYR86      -0.2867
    112  CB       -36.0250  -53.9040   67.6950 C.3    86  TYR86       0.0534
    113  CG       -35.2170  -55.1930   67.9130 C.ar   86  TYR86      -0.0201
    114  CD1      -35.7700  -56.4160   67.6350 C.ar   86  TYR86      -0.0009
    115  CD2      -33.9300  -55.1970   68.3980 C.ar   86  TYR86      -0.0009
    116  CE1      -35.0620  -57.6030   67.7960 C.ar   86  TYR86       0.0417
    117  CE2      -33.2100  -56.4130   68.5540 C.ar   86  TYR86       0.0417
    118  CZ       -33.7940  -57.6160   68.2470 C.ar   86  TYR86       0.1957
    119  OH       -33.2370  -58.8910   68.3500 O.3    86  TYR86      -0.2866
    120  N        -30.5780  -52.1310   66.7590 N.3    88  ILE88      -0.1245
    121  CA       -29.5060  -51.7640   67.6680 C.3    88  ILE88       0.1561
    122  C        -28.8130  -50.5590   67.0940 C.2    88  ILE88       0.2260
    123  O        -27.9220  -50.6250   66.2670 O.2    88  ILE88      -0.2867
    124  CB       -28.5090  -52.8850   67.9340 C.3    88  ILE88       0.0252
    125  CG1      -29.1740  -54.0570   68.6620 C.3    88  ILE88       0.0019
    126  CG2      -27.3840  -52.3920   68.8240 C.3    88  ILE88       0.0019
    127  CD1      -28.3260  -55.3310   68.5710 C.3    88  ILE88       0.0001
    128  N        -21.6130  -53.4260   69.9670 N.3    93  ALA93      -0.1245
    129  CA       -21.7120  -54.2770   68.7070 C.3    93  ALA93       0.1562
    130  C        -21.7700  -53.4930   67.2910 C.2    93  ALA93       0.2260
    131  O        -21.4110  -54.0100   66.1900 O.2    93  ALA93      -0.2867
    132  CB       -22.8520  -55.2970   68.8520 C.3    93  ALA93       0.0290
    133  N        -23.9980  -62.5110   67.2870 N.3   138  GLY138     -0.1225
    134  CA       -25.1570  -61.6540   67.4820 C.3   138  GLY138      0.1811
    135  C        -26.4450  -62.3500   67.2420 C.2   138  GLY138      0.2280
    136  O        -27.4630  -61.9900   67.8430 O.2   138  GLY138     -0.2866
    137  N        -27.0230  -64.4050   70.4050 N.3   141  ARG141     -0.1231
    138  CA       -27.6050  -63.5980   71.4710 C.3   141  ARG141      0.1694
    139  C        -29.0790  -63.4210   71.2440 C.2   141  ARG141      0.2591
    140  O        -29.8240  -63.5900   72.1600 O.2   141  ARG141     -0.2718
    141  CB       -26.9510  -62.2160   71.6690 C.3   141  ARG141      0.0321
    142  CG       -25.4230  -62.1690   71.5400 C.3   141  ARG141      0.0489
    143  CD       -24.7060  -63.0100   72.5570 C.3   141  ARG141      0.2205
    144  NE       -25.3690  -62.7780   73.8290 N.pl3 141  ARG141     -0.0865
    145  CZ       -24.8080  -62.9070   75.0160 C.cat 141  ARG141      0.5346
    146  NH1      -23.5420  -63.2530   75.1380 N.pl3 141  ARG141      0.1354
    147  NH2      -25.5390  -62.6760   76.0900 N.pl3 141  ARG141      0.1354
    148  N        -29.5230  -63.0590   70.0430 N.am  142  ALA142     -0.1980
    149  CA       -30.9990  -62.8950   69.7890 C.3   142  ALA142      0.1597
    150  C        -31.7220  -64.2320   70.0250 C.2   142  ALA142      0.2287
    151  O        -32.8070  -64.2610   70.5610 O.2   142  ALA142     -0.2864
    152  CB       -31.3080  -62.3680   68.3760 C.3   142  ALA142      0.0319
    153  N        -31.9750  -65.9320   73.6710 N.3   145  LEU145     -0.1245
    154  CA       -32.8000  -65.2270   74.5770 C.3   145  LEU145      0.1561
    155  C        -34.1910  -65.8430   74.4120 C.2   145  LEU145      0.2260
    156  O        -35.1340  -65.5650   75.1260 O.2   145  LEU145     -0.2867
    157  CB       -32.6440  -63.7570   74.1690 C.3   145  LEU145      0.0270
    158  CG       -33.4820  -62.6610   74.7160 C.3   145  LEU145      0.0019
    159  CD1      -32.7040  -62.3490   75.9350 C.3   145  LEU145      0.0001
    160  CD2      -33.5510  -61.4190   73.8290 C.3   145  LEU145      0.0001
@<TRIPOS>BOND
     1    99    98    2
     2    96    97    1
     3    98    97    1
     4   111   110    2
     5   108   109    1
     6    97   100    1
     7   110   109    1
     8   131   130    2
     9   109   112    1
    10   123   122    2
    11   120   121    1
    12   100   101    1
    13   122   121    1
    14   135   134    1
    15   135   136    2
    16   133   134    1
    17   130   129    1
    18   114   116   ar
    19   114   113   ar
    20   121   124    1
    21   112   113    1
    22   116   118   ar
    23   101   103   ar
    24   101   102   ar
    25   113   115   ar
    26   124   125    1
    27   124   126    1
    28   118   119    1
    29   118   117   ar
    30   103   105   ar
    31   152   149    1
    32   115   117   ar
    33   102   104   ar
    34   127   125    1
    35   129   132    1
    36   129   128    1
    37   105   106   ar
    38   104   106   ar
    39   149   150    1
    40   149   148    1
    41   106   107    1
    42   150   151    2
    43   148   139   am
    44    10    11   ar
    45    10     8   ar
    46   137   138    1
    47    88    87    1
    48    88    89    2
    49    78    77    1
    50    11     9   ar
    51     8     6   ar
    52    87    90    1
    53    87    86    1
    54    93    95   ar
    55    93    91   ar
    56   139   138    1
    57   139   140    2
    58   138   141    1
    59    90    91    1
    60    95    94   ar
    61   142   141    1
    62   142   143    1
    63    91    92   ar
    64    77    76   ar
    65    77    75   ar
    66     9     7   ar
    67    76    74   ar
    68     6     7   ar
    69     6     5    1
    70    94    92   ar
    71     5     2    1
    72   143   144    1
    73    84    83    1
    74    75    73   ar
    75    83    85    1
    76    83    80    1
    77    74    72   ar
    78     3     4    2
    79     3     2    1
    80   153   154    1
    81     2     1    1
    82    81    80    1
    83    81    82    2
    84   144   145    2
    85   160   158    1
    86    80    79    1
    87    73    72   ar
    88    72    71    1
    89   157   154    1
    90   157   158    1
    91   155   154    1
    92   155   156    2
    93   158   159    1
    94   145   146    1
    95   145   147    1
    96    52    50    1
    97    71    68    1
    98    66    65    1
    99    59    58    1
   100    50    49    1
   101    16    13    1
   102    60    58    1
   103    49    51    1
   104    49    46    1
   105    24    22   ar
   106    68    67    1
   107    68    69    1
   108    58    57    1
   109    65    62    1
   110    23    22   ar
   111    45    46    1
   112    22    21    1
   113    12    13    1
   114    70    69    2
   115    48    47    2
   116    46    47    1
   117    13    14    1
   118    32    30    1
   119    62    63    1
   120    62    61    1
   121    57    54    1
   122    44    42    1
   123    63    64    2
   124    14    17   am
   125    14    15    2
   126    21    18    1
   127    17    18    1
   128    36    35    2
   129    30    29    1
   130    37    34    1
   131    18    19    1
   132    54    53    1
   133    54    55    1
   134    35    34    1
   135    35    38   am
   136    34    33    1
   137    42    43    1
   138    42    39    1
   139    31    29    1
   140    29    26    1
   141    38    39    1
   142    39    40    1
   143    55    56    2
   144    19    20    2
   145    26    25    1
   146    26    27    1
   147    40    41    2
   148    27    28    2
