@<TRIPOS>MOLECULE
tmp/4c9fA00.pdb
 107 99 0 0 0
SMALL
GASTEIGER

@<TRIPOS>ATOM
      1  N         14.2550   10.1340    9.3820 N.3    61  PRO61      -0.2116
      2  CA        13.8450    8.7870    9.0350 C.3    61  PRO61       0.1372
      3  C         14.4140    7.7330   10.0120 C.2    61  PRO61       0.2244
      4  O         15.5660    7.8800   10.4940 O.2    61  PRO61      -0.2868
      5  CB        14.4140    8.5900    7.6300 C.3    61  PRO61       0.0268
      6  CG        14.9550    9.9000    7.1970 C.3    61  PRO61       0.0207
      7  CD        15.2390   10.6710    8.4370 C.3    61  PRO61       0.0892
      8  N          3.3240    5.6600   -3.6020 N.3    94  GLY94      -0.1210
      9  CA         4.5570    5.3940   -4.3280 C.3    94  GLY94       0.1956
     10  C          5.4510    4.3760   -3.6450 C.2    94  GLY94       0.2611
     11  O          6.6230    4.2720   -3.9850 O.2    94  GLY94      -0.2717
     12  N          4.8830    3.6480   -2.6820 N.am   95  GLU95      -0.1979
     13  CA         5.6270    2.7580   -1.7810 C.3    95  GLU95       0.1602
     14  C          4.7710    1.5270   -1.4550 C.2    95  GLU95       0.2287
     15  O          3.5670    1.6170   -1.3290 O.2    95  GLU95      -0.2864
     16  CB         5.9320    3.4760   -0.4500 C.3    95  GLU95       0.0415
     17  CG         6.7690    4.7370   -0.5470 C.3    95  GLU95       0.1163
     18  CD         8.2320    4.4570   -0.7730 C.2    95  GLU95       0.3649
     19  OE1        8.6280    3.3250   -0.4430 O.co2  95  GLU95      -0.2457
     20  OE2        8.9910    5.3610   -1.2440 O.co2  95  GLU95      -0.2457
     21  N          8.1830    0.5530   -3.4050 N.3    97  ASN97      -0.1225
     22  CA         8.6120    0.4870   -4.7950 C.3    97  ASN97       0.1785
     23  C         10.0300   -0.1010   -4.8220 C.2    97  ASN97       0.2597
     24  O         10.4710   -0.6380   -3.7960 O.2    97  ASN97      -0.2718
     25  CB         8.6210    1.9110   -5.3360 C.3    97  ASN97       0.1169
     26  CG         9.7280    2.7040   -4.7560 C.2    97  ASN97       0.2627
     27  OD1       10.5310    2.1670   -4.0170 O.2    97  ASN97      -0.2716
     28  ND2        9.7960    3.9610   -5.0720 N.am   97  ASN97      -0.0877
     29  N         10.7580    0.0380   -5.9400 N.am   98  ASN98      -0.1974
     30  CA        12.0940   -0.5430   -6.0830 C.3    98  ASN98       0.1688
     31  C         12.2660   -1.9000   -5.4350 C.2    98  ASN98       0.2292
     32  O         13.2830   -2.1570   -4.7600 O.2    98  ASN98      -0.2864
     33  CB        13.1080    0.4070   -5.5070 C.3    98  ASN98       0.1181
     34  CG        13.3780    1.5480   -6.4260 C.2    98  ASN98       0.2629
     35  OD1       13.8230    1.3070   -7.5380 O.2    98  ASN98      -0.2716
     36  ND2       13.1140    2.8000   -5.9910 N.am   98  ASN98      -0.0877
     37  N         15.3980   -2.4360   -2.5670 N.3   102  GLU102     -0.1245
     38  CA        15.1100   -1.8120   -1.2210 C.3   102  GLU102      0.1567
     39  C         14.2880   -2.6890   -0.3220 C.2   102  GLU102      0.2260
     40  O         13.0780   -2.8960   -0.5470 O.2   102  GLU102     -0.2867
     41  CB        14.3920   -0.5030   -1.3820 C.3   102  GLU102      0.0388
     42  CG        15.2770    0.5690   -1.9610 C.3   102  GLU102      0.1160
     43  CD        14.4910    1.8100   -2.2990 C.2   102  GLU102      0.3649
     44  OE1       13.2430    1.7890   -2.2510 O.co2 102  GLU102     -0.2457
     45  OE2       15.1010    2.8270   -2.6050 O.co2 102  GLU102     -0.2457
     46  N         11.2170    1.8660    6.6340 N.3   106  GLU106     -0.1245
     47  CA        11.4900    2.9650    7.5350 C.3   106  GLU106      0.1567
     48  C         10.2280    3.7990    7.7030 C.2   106  GLU106      0.2260
     49  O          9.3590    3.7390    6.8620 O.2   106  GLU106     -0.2867
     50  CB        12.5430    3.8800    6.9270 C.3   106  GLU106      0.0388
     51  CG        12.0280    4.6090    5.6970 C.3   106  GLU106      0.1160
     52  CD        12.9820    5.6500    5.1930 C.2   106  GLU106      0.3649
     53  OE1       14.1370    5.5940    5.6460 O.co2 106  GLU106     -0.2457
     54  OE2       12.5700    6.4950    4.3450 O.co2 106  GLU106     -0.2457
     55  N          8.8420    7.4400    7.2230 N.3   108  ALA108     -0.1245
     56  CA         9.1910    8.6930    6.5340 C.3   108  ALA108      0.1562
     57  C          7.9330    9.5100    6.2740 C.2   108  ALA108      0.2260
     58  O          6.9990    9.0340    5.6520 O.2   108  ALA108     -0.2867
     59  CB         9.9120    8.4070    5.2300 C.3   108  ALA108      0.0290
     60  N          8.1780    3.9100    4.1170 N.3   113  ASN113     -0.1225
     61  CA         8.9180    3.6410    2.8980 C.3   113  ASN113      0.1785
     62  C          9.6940    2.3450    3.0180 C.2   113  ASN113      0.2597
     63  O         10.0220    1.9280    4.1280 O.2   113  ASN113     -0.2718
     64  CB         9.9440    4.7370    2.6390 C.3   113  ASN113      0.1169
     65  CG         9.3360    5.9740    2.0350 C.2   113  ASN113      0.2627
     66  OD1        8.1270    6.0650    1.8670 O.2   113  ASN113     -0.2716
     67  ND2       10.1810    6.9430    1.7140 N.am  113  ASN113     -0.0877
     68  N          9.9920    1.7310    1.8710 N.am  114  ASP114     -0.1960
     69  CA        11.1100    0.7920    1.7900 C.3   114  ASP114      0.1840
     70  C         12.4150    1.5200    1.4000 C.2   114  ASP114      0.2623
     71  O         12.4370    2.4900    0.6180 O.2   114  ASP114     -0.2715
     72  CB        10.8070   -0.4470    0.9260 C.3   114  ASP114      0.1450
     73  CG        10.4440   -0.1410   -0.5360 C.2   114  ASP114      0.3671
     74  OD1       10.2650    1.0290   -0.9300 O.co2 114  ASP114     -0.2456
     75  OD2       10.3260   -1.1350   -1.3060 O.co2 114  ASP114     -0.2456
     76  N         13.5060    1.1140    2.0160 N.am  115  SER115     -0.1936
     77  CA        14.7530    1.8220    1.7980 C.3   115  SER115      0.2055
     78  C         15.8100    0.7770    1.6850 C.2   115  SER115      0.2642
     79  O         15.5290   -0.4010    1.9390 O.2   115  SER115     -0.2714
     80  CB        15.0470    2.7820    2.9560 C.3   115  SER115      0.2130
     81  OG        14.0570    3.7870    3.0540 O.3   115  SER115     -0.2179
     82  N         17.0000    1.2040    1.2550 N.am  116  LYS116     -0.1977
     83  CA        18.1450    0.2790    1.1190 C.3   116  LYS116      0.1596
     84  C         18.5750   -0.0350    2.5570 C.2   116  LYS116      0.2287
     85  O         18.7340    0.8960    3.3460 O.2   116  LYS116     -0.2864
     86  CB        19.3140    0.9230    0.3350 C.3   116  LYS116      0.0298
     87  CG        19.1700    1.0680   -1.1890 C.3   116  LYS116      0.0038
     88  CD        20.2970    1.9360   -1.7560 C.3   116  LYS116      0.0206
     89  CE        20.3800    1.8960   -3.2790 C.3   116  LYS116      0.1093
     90  NZ        21.6660    2.4860   -3.8000 N.3   116  LYS116     -0.1314
     91  N         21.6400    1.7190    4.6950 N.3   119  LEU119     -0.1245
     92  CA        21.6560    3.1130    5.1410 C.3   119  LEU119      0.1561
     93  C         21.5070    3.2920    6.6330 C.2   119  LEU119      0.2260
     94  O         20.7160    2.5920    7.3150 O.2   119  LEU119     -0.2867
     95  CB        20.5480    3.8850    4.4420 C.3   119  LEU119      0.0270
     96  CG        20.7750    3.9440    2.9230 C.3   119  LEU119      0.0019
     97  CD1       19.4900    4.3640    2.2460 C.3   119  LEU119      0.0001
     98  CD2       21.9320    4.8740    2.5680 C.3   119  LEU119      0.0001
     99  N         20.1060    4.8620    9.7510 N.3   121  LYS121     -0.1245
    100  CA        18.9160    5.5940   10.2320 C.3   121  LYS121      0.1561
    101  C         18.7570    5.4810   11.7340 C.2   121  LYS121      0.2260
    102  O         19.3780    4.6510   12.4000 O.2   121  LYS121     -0.2867
    103  CB        17.6390    5.0540    9.6050 C.3   121  LYS121      0.0271
    104  CG        17.7870    4.7100    8.1300 C.3   121  LYS121      0.0035
    105  CD        16.7530    5.3930    7.2480 C.3   121  LYS121      0.0206
    106  CE        16.8400    4.8670    5.8310 C.3   121  LYS121      0.1093
    107  NZ        16.6400    5.9320    4.8190 N.3   121  LYS121     -0.1314
@<TRIPOS>BOND
     1    35    34    2
     2    34    36   am
     3    34    33    1
     4    30    29    1
     5    30    33    1
     6    30    31    1
     7    29    23   am
     8    31    32    2
     9    25    22    1
    10    25    26    1
    11    28    26   am
    12    23    22    1
    13    23    24    2
    14    22    21    1
    15    26    27    2
    16     9    10    1
    17     9     8    1
    18    11    10    2
    19    90    89    1
    20    10    12   am
    21    89    88    1
    22    12    13    1
    23    45    43   ar
    24    37    38    1
    25    43    44   ar
    26    43    42    1
    27    42    41    1
    28    13    14    1
    29    13    16    1
    30    88    87    1
    31    14    15    2
    32    41    38    1
    33    75    73   ar
    34    20    18   ar
    35    38    39    1
    36    87    86    1
    37    74    73   ar
    38    18    17    1
    39    18    19   ar
    40    40    39    2
    41    17    16    1
    42    73    72    1
    43    86    83    1
    44    71    70    2
    45    72    69    1
    46    83    82    1
    47    83    84    1
    48    82    78   am
    49    70    69    1
    50    70    76   am
    51    78    77    1
    52    78    79    2
    53    67    65   am
    54    69    68    1
    55    77    76    1
    56    77    80    1
    57    66    65    2
    58    68    62   am
    59    65    64    1
    60    97    96    1
    61    84    85    2
    62    98    96    1
    63    64    61    1
    64    61    62    1
    65    61    60    1
    66    96    95    1
    67    80    81    1
    68    62    63    2
    69    54    52   ar
    70    95    92    1
    71    91    92    1
    72   107   106    1
    73    92    93    1
    74    52    53   ar
    75    52    51    1
    76    59    56    1
    77    58    57    2
    78    51    50    1
    79   106   105    1
    80    57    56    1
    81    56    55    1
    82    93    94    2
    83    46    47    1
    84    49    48    2
    85    50    47    1
    86     6     5    1
    87     6     7    1
    88   105   104    1
    89    47    48    1
    90     5     2    1
    91   104   103    1
    92     7     1    1
    93     2     1    1
    94     2     3    1
    95   103   100    1
    96    99   100    1
    97     3     4    2
    98   100   101    1
    99   101   102    2
