@<TRIPOS>MOLECULE
tmp/4c9fC00.pdb
 141 133 0 0 0
SMALL
GASTEIGER

@<TRIPOS>ATOM
      1  N         29.5160   -6.8030   19.0070 N.3    23  GLN23      -0.1245
      2  CA        30.7500   -6.0490   18.8690 C.3    23  GLN23       0.1566
      3  C         30.5680   -4.8020   18.0420 C.2    23  GLN23       0.2260
      4  O         29.7910   -4.8060   17.1300 O.2    23  GLN23      -0.2867
      5  CB        31.8240   -6.9330   18.2580 C.3    23  GLN23       0.0367
      6  CG        31.9130   -8.2470   18.9910 C.3    23  GLN23       0.0905
      7  CD        33.0390   -9.1210   18.5030 C.2    23  GLN23       0.2608
      8  OE1       34.1820   -8.7010   18.4110 O.2    23  GLN23      -0.2717
      9  NE2       32.7190  -10.3520   18.2160 N.am   23  GLN23      -0.0878
     10  N         36.0670  -14.3030   29.5020 N.3    58  ALA58      -0.1231
     11  CA        35.0720  -15.2980   29.0970 C.3    58  ALA58       0.1694
     12  C         34.3510  -14.9490   27.8100 C.2    58  ALA58       0.2592
     13  O         33.7230  -15.7970   27.2240 O.2    58  ALA58      -0.2718
     14  CB        34.0460  -15.4670   30.1930 C.3    58  ALA58       0.0304
     15  N         34.4150  -13.6990   27.3820 N.am   59  LYS59      -0.1966
     16  CA        33.6610  -13.2080   26.2360 C.3    59  LYS59       0.1728
     17  C         34.5880  -13.0020   25.0870 C.2    59  LYS59       0.2617
     18  O         34.3800  -13.5630   24.0310 O.2    59  LYS59      -0.2715
     19  CB        32.9760  -11.8660   26.5680 C.3    59  LYS59       0.0311
     20  CG        31.4660  -11.9350   26.4900 C.3    59  LYS59       0.0038
     21  CD        30.7290  -10.8550   27.2520 C.3    59  LYS59       0.0206
     22  CE        29.2500  -10.9870   26.8920 C.3    59  LYS59       0.1093
     23  NZ        28.3420  -10.0890   27.6560 N.3    59  LYS59      -0.1314
     24  N         35.6190  -12.1880   25.2910 N.am   60  GLY60      -0.1941
     25  CA        36.6130  -11.9280   24.2600 C.3    60  GLY60       0.1998
     26  C         37.1510  -10.5320   24.3940 C.2    60  GLY60       0.2480
     27  O         36.7210   -9.7950   25.2490 O.2    60  GLY60      -0.2729
     28  N         38.0760  -10.1390   23.5330 N.am   61  PRO61      -0.2726
     29  CA        38.5910   -8.8080   23.6960 C.3    61  PRO61       0.1402
     30  C         37.4770   -7.7660   23.6560 C.2    61  PRO61       0.2269
     31  O         36.5670   -7.8750   22.8140 O.2    61  PRO61      -0.2865
     32  CB        39.5450   -8.6440   22.5350 C.3    61  PRO61       0.0296
     33  CG        39.7350   -9.9990   21.9620 C.3    61  PRO61       0.0237
     34  CD        38.5070  -10.7550   22.2870 C.3    61  PRO61       0.0939
     35  N         52.9320   -3.7810   26.1950 N.3    95  GLU95      -0.1245
     36  CA        51.8260   -2.8460   25.9690 C.3    95  GLU95       0.1567
     37  C         52.0190   -1.6020   26.8250 C.2    95  GLU95       0.2260
     38  O         52.5500   -1.6860   27.9350 O.2    95  GLU95      -0.2867
     39  CB        50.5100   -3.5550   26.3290 C.3    95  GLU95       0.0388
     40  CG        50.2960   -4.8090   25.4990 C.3    95  GLU95       0.1160
     41  CD        49.9170   -4.4830   24.0800 C.2    95  GLU95       0.3649
     42  OE1       49.4930   -3.3670   23.8330 O.co2  95  GLU95      -0.2457
     43  OE2       50.0090   -5.3120   23.1790 O.co2  95  GLU95      -0.2457
     44  N         52.1760   -0.6070   22.7920 N.3    97  ASN97      -0.1225
     45  CA        53.1740   -0.5440   21.7260 C.3    97  ASN97       0.1785
     46  C         52.5350    0.0890   20.4570 C.2    97  ASN97       0.2597
     47  O         51.5050    0.7640   20.5760 O.2    97  ASN97      -0.2718
     48  CB        53.6590   -1.9490   21.4360 C.3    97  ASN97       0.1169
     49  CG        52.5510   -2.8150   20.9500 C.2    97  ASN97       0.2627
     50  OD1       51.4140   -2.3560   20.9130 O.2    97  ASN97      -0.2716
     51  ND2       52.8360   -4.0430   20.6010 N.am   97  ASN97      -0.0877
     52  N         53.1230   -0.1380   19.2670 N.am   98  ASN98      -0.1974
     53  CA        52.6690    0.4870   18.0050 C.3    98  ASN98       0.1688
     54  C         51.9300    1.8070   18.2090 C.2    98  ASN98       0.2292
     55  O         50.7950    1.9940   17.7150 O.2    98  ASN98      -0.2864
     56  CB        51.8090   -0.4730   17.1940 C.3    98  ASN98       0.1181
     57  CG        52.4670   -1.8320   17.0050 C.2    98  ASN98       0.2629
     58  OD1       53.5810   -1.9410   16.4730 O.2    98  ASN98      -0.2716
     59  ND2       51.7690   -2.8870   17.4270 N.am   98  ASN98      -0.0877
     60  N         48.2110    2.2430   16.9490 N.3   102  GLU102     -0.1245
     61  CA        47.1550    1.5980   17.8150 C.3   102  GLU102      0.1567
     62  C         46.7170    2.4770   18.9480 C.2   102  GLU102      0.2260
     63  O         47.4430    2.6740   19.9120 O.2   102  GLU102     -0.2867
     64  CB        47.6410    0.2620   18.3920 C.3   102  GLU102      0.0388
     65  CG        47.7930   -0.8000   17.3070 C.3   102  GLU102      0.1160
     66  CD        48.2020   -2.1400   17.8310 C.2   102  GLU102      0.3649
     67  OE1       48.7770   -2.1680   18.9190 O.co2 102  GLU102     -0.2457
     68  OE2       47.9300   -3.1690   17.1680 O.co2 102  GLU102     -0.2457
     69  N         41.9240   -1.9410   24.9770 N.3   106  GLU106     -0.1245
     70  CA        41.0210   -3.0860   25.1510 C.3   106  GLU106      0.1567
     71  C         41.4940   -3.9330   26.3130 C.2   106  GLU106      0.2260
     72  O         42.6710   -3.8960   26.6100 O.2   106  GLU106     -0.2867
     73  CB        41.0440   -3.9950   23.9430 C.3   106  GLU106      0.0388
     74  CG        42.4210   -4.5590   23.6660 C.3   106  GLU106      0.1160
     75  CD        42.3830   -5.7030   22.7090 C.2   106  GLU106      0.3649
     76  OE1       41.4470   -5.7460   21.9050 O.co2 106  GLU106     -0.2457
     77  OE2       43.2700   -6.5700   22.7830 O.co2 106  GLU106     -0.2457
     78  N         42.5740   -7.4590   27.3870 N.3   108  ALA108     -0.1245
     79  CA        43.0140   -8.7280   26.7730 C.3   108  ALA108      0.1562
     80  C         43.7760   -9.5510   27.7890 C.2   108  ALA108      0.2260
     81  O         44.7210   -9.0360   28.4110 O.2   108  ALA108     -0.2867
     82  CB        43.8910   -8.4790   25.5770 C.3   108  ALA108      0.0290
     83  N         45.7980   -3.8910   26.3990 N.3   113  ASN113     -0.1225
     84  CA        46.5260   -3.6190   25.1720 C.3   113  ASN113      0.1785
     85  C         45.9710   -2.3630   24.5440 C.2   113  ASN113      0.2597
     86  O         44.8140   -2.0570   24.7560 O.2   113  ASN113     -0.2718
     87  CB        46.2840   -4.7100   24.1220 C.3   113  ASN113      0.1169
     88  CG        46.8840   -6.0440   24.4890 C.2   113  ASN113      0.2627
     89  OD1       47.4430   -6.2410   25.5540 O.2   113  ASN113     -0.2716
     90  ND2       46.7550   -6.9800   23.5860 N.am  113  ASN113     -0.0877
     91  N         46.7840   -1.6630   23.7470 N.am  114  ASP114     -0.1960
     92  CA        46.2550   -0.7130   22.7810 C.3   114  ASP114      0.1840
     93  C         45.9930   -1.4240   21.4690 C.2   114  ASP114      0.2623
     94  O         46.7200   -2.3160   21.0990 O.2   114  ASP114     -0.2715
     95  CB        47.1260    0.5490   22.6060 C.3   114  ASP114      0.1450
     96  CG        48.6080    0.2710   22.2370 C.2   114  ASP114      0.3671
     97  OD1       49.1000   -0.8930   22.2120 O.co2 114  ASP114     -0.2456
     98  OD2       49.2860    1.3090   22.0140 O.co2 114  ASP114     -0.2456
     99  N         44.9130   -1.0690   20.7900 N.am  115  SER115     -0.1936
    100  CA        44.4780   -1.7860   19.6050 C.3   115  SER115      0.2055
    101  C         44.1070   -0.7590   18.5740 C.2   115  SER115      0.2642
    102  O         43.9950    0.4630   18.8840 O.2   115  SER115     -0.2714
    103  CB        43.2490   -2.6590   19.9140 C.3   115  SER115      0.2130
    104  OG        43.5470   -3.7990   20.7290 O.3   115  SER115     -0.2179
    105  N         43.8830   -1.2500   17.3530 N.am  116  LYS116     -0.1977
    106  CA        43.3760   -0.3920   16.2810 C.3   116  LYS116      0.1596
    107  C         41.9140   -0.0910   16.5960 C.2   116  LYS116      0.2287
    108  O         41.1360   -1.0060   16.7300 O.2   116  LYS116     -0.2864
    109  CB        43.5090   -1.0710   14.9070 C.3   116  LYS116      0.0298
    110  CG        44.9280   -1.0830   14.3200 C.3   116  LYS116      0.0038
    111  CD        45.0730   -1.9460   13.0660 C.3   116  LYS116      0.0206
    112  CE        46.5410   -2.0790   12.6700 C.3   116  LYS116      0.1093
    113  NZ        46.7780   -2.6360   11.2990 N.3   116  LYS116     -0.1314
    114  N         38.6020   -1.7880   14.8140 N.3   119  LEU119     -0.1245
    115  CA        38.1970   -3.1830   14.9950 C.3   119  LEU119      0.1561
    116  C         36.9830   -3.3770   15.8640 C.2   119  LEU119      0.2260
    117  O         36.7760   -2.6550   16.8610 O.2   119  LEU119     -0.2867
    118  CB        39.3390   -3.9810   15.6250 C.3   119  LEU119      0.0270
    119  CG        40.6180   -4.0720   14.7690 C.3   119  LEU119      0.0019
    120  CD1       41.8440   -4.4650   15.5880 C.3   119  LEU119      0.0001
    121  CD2       40.3920   -5.0520   13.6240 C.3   119  LEU119      0.0001
    122  N         35.1080   -5.0330   18.6800 N.3   121  LYS121     -0.1231
    123  CA        35.2140   -5.7700   19.9440 C.3   121  LYS121      0.1693
    124  C         33.9740   -5.5850   20.7930 C.2   121  LYS121      0.2592
    125  O         33.0880   -4.7520   20.4900 O.2   121  LYS121     -0.2718
    126  CB        36.3710   -5.2600   20.7820 C.3   121  LYS121      0.0285
    127  CG        37.6000   -4.8440   20.0110 C.3   121  LYS121      0.0035
    128  CD        38.8150   -5.7430   20.1450 C.3   121  LYS121      0.0206
    129  CE        39.9780   -4.9890   19.5300 C.3   121  LYS121      0.1093
    130  NZ        41.2040   -5.7590   19.2520 N.3   121  LYS121     -0.1314
    131  N         33.9340   -6.3100   21.8990 N.am  122  PHE122     -0.1976
    132  CA        32.8340   -6.1460   22.8100 C.3   122  PHE122      0.1639
    133  C         33.0590   -4.8230   23.5240 C.2   122  PHE122      0.2290
    134  O         34.1220   -4.1970   23.3600 O.2   122  PHE122     -0.2864
    135  CB        32.7610   -7.2750   23.8220 C.3   122  PHE122      0.0560
    136  CG        32.5040   -8.6020   23.2120 C.ar  122  PHE122     -0.0200
    137  CD1       31.2190   -9.0170   22.9770 C.ar  122  PHE122     -0.0042
    138  CD2       33.5480   -9.4150   22.8580 C.ar  122  PHE122     -0.0042
    139  CE1       30.9760  -10.2410   22.3880 C.ar  122  PHE122     -0.0003
    140  CE2       33.3280  -10.6460   22.2710 C.ar  122  PHE122     -0.0003
    141  CZ        32.0450  -11.0700   22.0400 C.ar  122  PHE122     -0.0000
@<TRIPOS>BOND
     1   113   112    1
     2   112   111    1
     3   111   110    1
     4   121   119    1
     5   110   109    1
     6   119   120    1
     7   119   118    1
     8   114   115    1
     9   109   106    1
    10   115   118    1
    11   115   116    1
    12   116   117    2
    13   106   107    1
    14   106   105    1
    15    58    57    2
    16   107   108    2
    17    60    61    1
    18    57    56    1
    19    57    59   am
    20     4     3    2
    21    68    66   ar
    22    56    53    1
    23    65    66    1
    24    65    64    1
    25   105   101   am
    26    55    54    2
    27    61    64    1
    28    61    62    1
    29    66    67   ar
    30    53    54    1
    31    53    52    1
    32     3     2    1
    33     9     7   am
    34     5     2    1
    35     5     6    1
    36     8     7    2
    37     7     6    1
    38   101   102    2
    39   101   100    1
    40   122   123    1
    41     2     1    1
    42    62    63    2
    43   130   129    1
    44    52    46   am
    45   129   128    1
    46   100   103    1
    47   100    99    1
    48   103   104    1
    49   123   126    1
    50   123   124    1
    51   127   128    1
    52   127   126    1
    53    46    47    2
    54    46    45    1
    55   125   124    2
    56    51    49   am
    57    99    93   am
    58   124   131   am
    59    50    49    2
    60    49    48    1
    61    94    93    2
    62    48    45    1
    63    93    92    1
    64    45    44    1
    65   131   132    1
    66    76    75   ar
    67    33    34    1
    68    33    32    1
    69    98    96   ar
    70   141   140   ar
    71   141   139   ar
    72    97    96   ar
    73    96    95    1
    74   140   138   ar
    75    34    28    1
    76   139   137   ar
    77    32    29    1
    78    95    92    1
    79    75    77   ar
    80    75    74    1
    81    92    91    1
    82   132   133    1
    83   132   135    1
    84    31    30    2
    85   138   136   ar
    86   137   136   ar
    87    43    41   ar
    88   136   135    1
    89   134   133    2
    90    28    29    1
    91    28    26   am
    92    90    88   am
    93    30    29    1
    94    74    73    1
    95    91    85   am
    96    42    41   ar
    97    73    70    1
    98    18    17    2
    99    41    40    1
   100    87    88    1
   101    87    84    1
   102    25    26    1
   103    25    24    1
   104    26    27    2
   105    88    89    2
   106    85    86    2
   107    85    84    1
   108    69    70    1
   109    17    24   am
   110    17    16    1
   111    70    71    1
   112    84    83    1
   113    40    39    1
   114    82    79    1
   115    36    35    1
   116    36    39    1
   117    36    37    1
   118    16    19    1
   119    16    15    1
   120    71    72    2
   121    20    19    1
   122    20    21    1
   123    79    78    1
   124    79    80    1
   125    37    38    2
   126    22    21    1
   127    22    23    1
   128    13    12    2
   129    15    12   am
   130    80    81    2
   131    12    11    1
   132    11    10    1
   133    11    14    1
