@<TRIPOS>MOLECULE
tmp/4c9fB00.pdb
 94 86 0 0 0
SMALL
GASTEIGER

@<TRIPOS>ATOM
      1  N         -4.4630    6.8450   39.5520 N.3    61  PRO61      -0.2116
      2  CA        -4.8790    8.2340   39.5590 C.3    61  PRO61       0.1372
      3  C         -3.7240    9.2120   39.6190 C.2    61  PRO61       0.2244
      4  O         -2.8070    9.0130   40.4200 O.2    61  PRO61      -0.2868
      5  CB        -5.7220    8.3200   40.8310 C.3    61  PRO61       0.0268
      6  CG        -6.3550    6.9650   40.9190 C.3    61  PRO61       0.0207
      7  CD        -5.2250    6.0470   40.5310 C.3    61  PRO61       0.0892
      8  N        -18.9110   13.4840   36.9660 N.3    95  GLU95      -0.1245
      9  CA       -17.8750   14.4730   37.2570 C.3    95  GLU95       0.1567
     10  C        -18.0290   15.7730   36.4480 C.2    95  GLU95       0.2260
     11  O        -18.5670   15.8010   35.3380 O.2    95  GLU95      -0.2867
     12  CB       -16.5050   13.8560   37.0170 C.3    95  GLU95       0.0388
     13  CG       -16.2400   12.5130   37.7070 C.3    95  GLU95       0.1160
     14  CD       -15.8760   12.6250   39.1720 C.2    95  GLU95       0.3649
     15  OE1      -15.5870   13.7400   39.6120 O.co2  95  GLU95      -0.2457
     16  OE2      -15.8520   11.5930   39.8950 O.co2  95  GLU95      -0.2457
     17  N        -18.0240   16.6270   40.5500 N.3    97  ASN97      -0.1225
     18  CA       -19.0010   16.7550   41.6090 C.3    97  ASN97       0.1785
     19  C        -18.2860   17.3800   42.8360 C.2    97  ASN97       0.2597
     20  O        -17.1460   17.8520   42.7240 O.2    97  ASN97      -0.2718
     21  CB       -19.5420   15.3730   41.9420 C.3    97  ASN97       0.1169
     22  CG       -18.4360   14.4620   42.3770 C.2    97  ASN97       0.2627
     23  OD1      -17.3360   14.9570   42.6380 O.2    97  ASN97      -0.2716
     24  ND2      -18.6730   13.1610   42.4450 N.am   97  ASN97      -0.0877
     25  N        -18.9570   17.3800   43.9970 N.am   98  ASN98      -0.1974
     26  CA       -18.4790   18.0580   45.2150 C.3    98  ASN98       0.1688
     27  C        -17.7750   19.4060   44.9900 C.2    98  ASN98       0.2292
     28  O        -16.7080   19.6580   45.5420 O.2    98  ASN98      -0.2864
     29  CB       -17.5660   17.0960   45.9800 C.3    98  ASN98       0.1181
     30  CG       -18.2510   15.7920   46.2520 C.2    98  ASN98       0.2629
     31  OD1      -19.2180   15.7650   46.9540 O.2    98  ASN98      -0.2716
     32  ND2      -17.7830   14.7160   45.6590 N.am   98  ASN98      -0.0877
     33  N        -13.9590   19.6430   46.1590 N.3   102  GLU102     -0.1245
     34  CA       -12.9750   18.9210   45.3330 C.3   102  GLU102      0.1567
     35  C        -12.5200   19.8270   44.2340 C.2   102  GLU102      0.2260
     36  O        -13.2270   20.0610   43.2770 O.2   102  GLU102     -0.2867
     37  CB       -13.5800   17.6390   44.7830 C.3   102  GLU102      0.0388
     38  CG       -13.6610   16.5360   45.8400 C.3   102  GLU102      0.1160
     39  CD       -14.1820   15.2240   45.2900 C.2   102  GLU102      0.3649
     40  OE1      -14.8280   15.2420   44.2310 O.co2 102  GLU102     -0.2457
     41  OE2      -13.9420   14.1710   45.8950 O.co2 102  GLU102     -0.2457
     42  N         -7.8440   15.2400   38.2340 N.3   106  GLU106     -0.1245
     43  CA        -6.9980   14.0870   37.9600 C.3   106  GLU106      0.1567
     44  C         -7.5260   13.2790   36.7390 C.2   106  GLU106      0.2260
     45  O         -8.7310   13.3150   36.3900 O.2   106  GLU106     -0.2867
     46  CB        -6.9680   13.1600   39.1770 C.3   106  GLU106      0.0388
     47  CG        -8.3720   12.8080   39.7010 C.3   106  GLU106      0.1160
     48  CD        -8.4460   11.5460   40.5600 C.2   106  GLU106      0.3649
     49  OE1       -7.5280   11.2950   41.3450 O.co2 106  GLU106     -0.2457
     50  OE2       -9.4370   10.7900   40.4640 O.co2 106  GLU106     -0.2457
     51  N         -8.5300    9.6410   35.7590 N.3   108  ALA108     -0.1245
     52  CA        -8.9990    8.4570   36.5030 C.3   108  ALA108      0.1562
     53  C         -9.6670    7.4520   35.5580 C.2   108  ALA108      0.2260
     54  O        -10.6810    7.7290   34.9960 O.2   108  ALA108     -0.2867
     55  CB        -9.9510    8.8730   37.6110 C.3   108  ALA108      0.0290
     56  N        -11.5430   13.3810   36.7370 N.3   113  ASN113     -0.1225
     57  CA       -12.2940   13.5850   37.9650 C.3   113  ASN113      0.1785
     58  C        -11.8510   14.8130   38.7020 C.2   113  ASN113      0.2597
     59  O        -10.7170   15.2350   38.5260 O.2   113  ASN113     -0.2718
     60  CB       -11.9630   12.4740   38.9020 C.3   113  ASN113      0.1169
     61  CG       -12.7690   11.2590   38.6660 C.2   113  ASN113      0.2627
     62  OD1      -13.4290   11.1270   37.6450 O.2   113  ASN113     -0.2716
     63  ND2      -12.7420   10.3550   39.6510 N.am  113  ASN113     -0.0877
     64  N        -12.6910   15.3630   39.5800 N.am  114  ASP114     -0.1960
     65  CA       -12.1840   16.3400   40.5630 C.3   114  ASP114      0.1840
     66  C        -11.9270   15.6750   41.9020 C.2   114  ASP114      0.2622
     67  O        -12.4950   14.6360   42.2140 O.2   114  ASP114     -0.2715
     68  CB       -12.9650   17.6790   40.6510 C.3   114  ASP114      0.1450
     69  CG       -14.4570   17.5510   40.9970 C.2   114  ASP114      0.3671
     70  OD1      -15.0660   16.5010   40.8370 O.co2 114  ASP114     -0.2456
     71  OD2      -15.0480   18.5820   41.3830 O.co2 114  ASP114     -0.2456
     72  N        -10.9660   16.1750   42.6480 N.am  115  SER115     -0.1950
     73  CA       -10.5180   15.4620   43.8290 C.3   115  SER115      0.1924
     74  C         -9.9910   16.4860   44.8250 C.2   115  SER115      0.2314
     75  O         -9.7880   17.6580   44.4990 O.2   115  SER115     -0.2863
     76  CB        -9.4040   14.4490   43.5010 C.3   115  SER115      0.2116
     77  OG        -9.7100   13.4430   42.5220 O.3   115  SER115     -0.2180
     78  N         -4.8680   15.3050   48.5400 N.3   119  LEU119     -0.1245
     79  CA        -4.5490   13.9020   48.3200 C.3   119  LEU119      0.1561
     80  C         -3.2860   13.7260   47.4900 C.2   119  LEU119      0.2260
     81  O         -2.9700   14.5320   46.6250 O.2   119  LEU119     -0.2867
     82  CB        -5.7320   13.1810   47.6840 C.3   119  LEU119      0.0270
     83  CG        -6.8160   13.0300   48.7460 C.3   119  LEU119      0.0019
     84  CD1       -8.1280   12.7410   48.1030 C.3   119  LEU119      0.0001
     85  CD2       -6.4570   11.9300   49.7290 C.3   119  LEU119      0.0001
     86  N         -1.0440   11.8440   44.7320 N.3   121  LYS121     -0.1245
     87  CA        -1.2010   11.1130   43.4750 C.3   121  LYS121      0.1561
     88  C          0.0340   11.2000   42.5810 C.2   121  LYS121      0.2260
     89  O          0.9890   11.9410   42.8430 O.2   121  LYS121     -0.2867
     90  CB        -2.4160   11.6600   42.7140 C.3   121  LYS121      0.0271
     91  CG        -3.7300   11.4070   43.4250 C.3   121  LYS121      0.0035
     92  CD        -4.8620   12.1740   42.7720 C.3   121  LYS121      0.0206
     93  CE        -6.1260   12.1080   43.6400 C.3   121  LYS121      0.1093
     94  NZ        -6.4110   10.7100   44.0770 N.3   121  LYS121     -0.1314
@<TRIPOS>BOND
     1    54    53    2
     2    11    10    2
     3    53    52    1
     4    51    52    1
     5    45    44    2
     6    10     9    1
     7    52    55    1
     8    56    57    1
     9    44    43    1
    10     8     9    1
    11    12     9    1
    12    12    13    1
    13    62    61    2
    14    13    14    1
    15    43    42    1
    16    43    46    1
    17    57    58    1
    18    57    60    1
    19    59    58    2
    20    61    60    1
    21    61    63   am
    22    58    64   am
    23    14    15   ar
    24    14    16   ar
    25    46    47    1
    26     1     2    1
    27     1     7    1
    28     2     3    1
    29     2     5    1
    30    64    65    1
    31     3     4    2
    32    47    48    1
    33    50    48   ar
    34     7     6    1
    35    17    18    1
    36    48    49   ar
    37    65    68    1
    38    65    66    1
    39    68    69    1
    40     5     6    1
    41    70    69   ar
    42    69    71   ar
    43    18    21    1
    44    18    19    1
    45    66    67    2
    46    66    72   am
    47    21    22    1
    48    22    24   am
    49    22    23    2
    50    77    76    1
    51    88    89    2
    52    88    87    1
    53    72    73    1
    54    90    91    1
    55    90    87    1
    56    20    19    2
    57    92    91    1
    58    92    93    1
    59    19    25   am
    60    36    35    2
    61    87    86    1
    62    76    73    1
    63    93    94    1
    64    73    74    1
    65    25    26    1
    66    40    39   ar
    67    35    34    1
    68    75    74    2
    69    37    34    1
    70    37    38    1
    71    27    26    1
    72    27    28    2
    73    26    29    1
    74    39    38    1
    75    39    41   ar
    76    34    33    1
    77    32    30   am
    78    29    30    1
    79    30    31    2
    80    81    80    2
    81    80    79    1
    82    82    79    1
    83    82    83    1
    84    84    83    1
    85    79    78    1
    86    83    85    1
