@<TRIPOS>MOLECULE
tmp/4c9gA01.pdb
 107 103 0 0 0
SMALL
GASTEIGER

@<TRIPOS>ATOM
      1  N         10.9200   23.5430   -3.4530 N.3    16  THR16      -0.1218
      2  CA        10.0910   22.5760   -2.7400 C.3    16  THR16       0.1862
      3  C          8.6480   22.5980   -3.2420 C.2    16  THR16       0.2287
      4  O          8.0060   21.5530   -3.3550 O.2    16  THR16      -0.2866
      5  CB        10.1250   22.8140   -1.2190 C.3    16  THR16       0.1770
      6  OG1       11.4630   22.6300   -0.7410 O.3    16  THR16      -0.2211
      7  CG2        9.2010   21.8470   -0.4980 C.3    16  THR16       0.0375
      8  N          4.5080   11.5590   -0.5800 N.3    61  ILE61      -0.1245
      9  CA         5.8070   12.0920   -0.1800 C.3    61  ILE61       0.1561
     10  C          6.8250   11.9540   -1.3100 C.2    61  ILE61       0.2260
     11  O          7.7060   12.8010   -1.4860 O.2    61  ILE61      -0.2867
     12  CB         6.3340   11.3670    1.0760 C.3    61  ILE61       0.0252
     13  CG1        5.2850   11.4010    2.1860 C.3    61  ILE61       0.0019
     14  CG2        7.6340   11.9890    1.5580 C.3    61  ILE61       0.0019
     15  CD1        4.8900   12.8010    2.6080 C.3    61  ILE61       0.0001
     16  N          8.3190   14.5770   -3.7150 N.3    64  TRP64      -0.1227
     17  CA         9.3480   15.4990   -3.2620 C.3    64  TRP64       0.1737
     18  C         10.6910   14.8010   -3.1160 C.2    64  TRP64       0.2595
     19  O         11.5980   15.3100   -2.4710 O.2    64  TRP64      -0.2718
     20  CB         8.9250   16.1640   -1.9520 C.3    64  TRP64       0.0564
     21  CG         7.9140   17.2440   -2.1640 C.ar   64  TRP64       0.0003
     22  CD1        8.1580   18.5790   -2.2780 C.ar   64  TRP64       0.0946
     23  CD2        6.4970   17.0810   -2.3120 C.ar   64  TRP64       0.0152
     24  NE1        6.9830   19.2600   -2.4790 N.ar   64  TRP64      -0.2442
     25  CE2        5.9490   18.3650   -2.5040 C.ar   64  TRP64       0.0810
     26  CE3        5.6400   15.9770   -2.2960 C.ar   64  TRP64       0.0012
     27  CZ2        4.5830   18.5750   -2.6780 C.ar   64  TRP64       0.0191
     28  CZ3        4.2810   16.1890   -2.4690 C.ar   64  TRP64       0.0001
     29  CH2        3.7670   17.4770   -2.6580 C.ar   64  TRP64       0.0015
     30  N         10.8130   13.6340   -3.7320 N.am   65  ARG65      -0.1966
     31  CA        12.0500   12.8700   -3.6810 C.3    65  ARG65       0.1729
     32  C         13.1710   13.6020   -4.4150 C.2    65  ARG65       0.2617
     33  O         12.9890   14.0710   -5.5390 O.2    65  ARG65      -0.2715
     34  CB        11.8280   11.4840   -4.2860 C.3    65  ARG65       0.0348
     35  CG        13.0100   10.5440   -4.2030 C.3    65  ARG65       0.0492
     36  CD        12.6110    9.1570   -4.6860 C.3    65  ARG65       0.2205
     37  NE        13.7660    8.2850   -4.8790 N.pl3  65  ARG65      -0.0865
     38  CZ        14.2490    7.4690   -3.9480 C.cat  65  ARG65       0.5346
     39  NH1       13.6770    7.4100   -2.7540 N.pl3  65  ARG65       0.1354
     40  NH2       15.3040    6.7100   -4.2120 N.pl3  65  ARG65       0.1354
     41  N         14.3260   13.7080   -3.7650 N.am   66  GLY66      -0.1940
     42  CA        15.4880   14.3360   -4.3640 C.3    66  GLY66       0.2014
     43  C         15.5170   15.8470   -4.2200 C.2    66  GLY66       0.2639
     44  O         16.5180   16.4820   -4.5420 O.2    66  GLY66      -0.2714
     45  N         14.4260   16.4190   -3.7200 N.am   67  ASN67      -0.1958
     46  CA        14.2770   17.8720   -3.6480 C.3    67  ASN67       0.1819
     47  C         15.2510   18.5800   -2.7010 C.2    67  ASN67       0.2622
     48  O         15.5710   19.7620   -2.8880 O.2    67  ASN67      -0.2715
     49  CB        12.8390   18.2370   -3.2860 C.3    67  ASN67       0.1195
     50  CG        12.5980   19.7260   -3.3160 C.2    67  ASN67       0.2630
     51  OD1       12.3920   20.3100   -4.3790 O.2    67  ASN67      -0.2716
     52  ND2       12.6320   20.3530   -2.1480 N.am   67  ASN67      -0.0877
     53  N         15.7140   17.8570   -1.6850 N.am   68  THR68      -0.1937
     54  CA        16.6870   18.3920   -0.7360 C.3    68  THR68       0.2028
     55  C         17.9390   18.8930   -1.4580 C.2    68  THR68       0.2642
     56  O         18.5150   19.9170   -1.0850 O.2    68  THR68      -0.2714
     57  CB        17.0510   17.3490    0.3460 C.3    68  THR68       0.1808
     58  OG1       15.9650   17.2290    1.2750 O.3    68  THR68      -0.2208
     59  CG2       18.3080   17.7500    1.1020 C.3    68  THR68       0.0379
     60  N         18.3370   18.1780   -2.5060 N.am   69  ALA69      -0.1977
     61  CA        19.4400   18.6050   -3.3590 C.3    69  ALA69       0.1597
     62  C         19.1740   20.0000   -3.9290 C.2    69  ALA69       0.2287
     63  O         20.0320   20.8900   -3.8520 O.2    69  ALA69      -0.2864
     64  CB        19.6550   17.6020   -4.4820 C.3    69  ALA69       0.0319
     65  N         17.2160   22.1990   -2.7280 N.3    71  VAL71      -0.1245
     66  CA        17.2380   23.1390   -1.6140 C.3    71  VAL71       0.1561
     67  C         18.6540   23.5890   -1.2510 C.2    71  VAL71       0.2260
     68  O         18.9310   24.7870   -1.1740 O.2    71  VAL71      -0.2867
     69  CB        16.5500   22.5500   -0.3730 C.3    71  VAL71       0.0252
     70  CG1       16.8250   23.4120    0.8500 C.3    71  VAL71       0.0019
     71  CG2       15.0560   22.4120   -0.6200 C.3    71  VAL71       0.0019
     72  N         17.9190   10.5970   -8.0060 N.3   132  LEU132     -0.1245
     73  CA        16.9150   10.3780   -6.9740 C.3   132  LEU132      0.1561
     74  C         15.5020   10.5450   -7.5180 C.2   132  LEU132      0.2260
     75  O         14.5840    9.8390   -7.0990 O.2   132  LEU132     -0.2867
     76  CB        17.1380   11.3140   -5.7880 C.3   132  LEU132      0.0270
     77  CG        18.3650   10.9950   -4.9370 C.3   132  LEU132      0.0019
     78  CD1       18.3930   11.8610   -3.6880 C.3   132  LEU132      0.0001
     79  CD2       18.3870    9.5210   -4.5740 C.3   132  LEU132      0.0001
     80  N         19.2630    5.2770   -1.9680 N.3   140  ASN140     -0.1225
     81  CA        18.5880    5.5560   -0.7040 C.3   140  ASN140      0.1785
     82  C         18.6350    7.0280   -0.2980 C.2   140  ASN140      0.2598
     83  O         17.7640    7.5060    0.4290 O.2   140  ASN140     -0.2718
     84  CB        19.1580    4.6820    0.4170 C.3   140  ASN140      0.1169
     85  CG        18.9610    3.2010    0.1590 C.2   140  ASN140      0.2627
     86  OD1       18.0680    2.8020   -0.5910 O.2   140  ASN140     -0.2716
     87  ND2       19.7950    2.3750    0.7830 N.am  140  ASN140     -0.0877
     88  N         19.6530    7.7420   -0.7660 N.am  141  GLY141     -0.1942
     89  CA        19.8020    9.1490   -0.4420 C.3   141  GLY141      0.2014
     90  C         20.9730    9.7980   -1.1530 C.2   141  GLY141      0.2639
     91  O         21.6470    9.1610   -1.9630 O.2   141  GLY141     -0.2714
     92  N         21.2090   11.0710   -0.8460 N.am  142  LEU142     -0.1963
     93  CA        22.2950   11.8320   -1.4550 C.3   142  LEU142      0.1728
     94  C         23.6400   11.1430   -1.2490 C.2   142  LEU142      0.2616
     95  O         24.3510   10.8370   -2.2100 O.2   142  LEU142     -0.2715
     96  CB        22.3520   13.2470   -0.8700 C.3   142  LEU142      0.0311
     97  CG        21.4100   14.3370   -1.3940 C.3   142  LEU142      0.0022
     98  CD1       19.9460   14.0240   -1.1150 C.3   142  LEU142      0.0001
     99  CD2       21.7900   15.6750   -0.7860 C.3   142  LEU142      0.0001
    100  N         23.9740   10.8970    0.0130 N.am  143  ILE143     -0.1977
    101  CA        25.2450   10.2840    0.3740 C.3   143  ILE143      0.1596
    102  C         25.3990    8.9140   -0.2790 C.2   143  ILE143      0.2287
    103  O         26.5020    8.5140   -0.6510 O.2   143  ILE143     -0.2864
    104  CB        25.3790   10.1390    1.9010 C.3   143  ILE143      0.0276
    105  CG1       24.8550   11.3940    2.6020 C.3   143  ILE143      0.0022
    106  CG2       26.8240    9.8530    2.2900 C.3   143  ILE143      0.0022
    107  CD1       24.9180   11.3250    4.1110 C.3   143  ILE143      0.0001
@<TRIPOS>BOND
     1    72    73    1
     2    74    75    2
     3    74    73    1
     4    73    76    1
     5    76    77    1
     6    33    32    2
     7    77    79    1
     8    77    78    1
     9    37    36    1
    10    37    38    2
    11    36    35    1
    12    44    43    2
    13    64    61    1
    14    32    41   am
    15    32    31    1
    16    51    50    2
    17    42    43    1
    18    42    41    1
    19    34    35    1
    20    34    31    1
    21    43    45   am
    22    40    38    1
    23    38    39    1
    24    62    63    2
    25    62    61    1
    26    30    31    1
    27    30    18   am
    28    45    46    1
    29    16    17    1
    30    46    49    1
    31    46    47    1
    32     1     2    1
    33    61    60    1
    34     4     3    2
    35    50    49    1
    36    50    52   am
    37    17    18    1
    38    17    20    1
    39     3     2    1
    40    18    19    2
    41    48    47    2
    42     2     5    1
    43    65    66    1
    44    47    53   am
    45    27    29   ar
    46    27    25   ar
    47    29    28   ar
    48    60    55   am
    49    25    24   ar
    50    25    23   ar
    51    24    22   ar
    52    28    26   ar
    53    23    26   ar
    54    23    21   ar
    55    22    21   ar
    56    95    94    2
    57    21    20    1
    58    80    81    1
    59    91    90    2
    60    53    54    1
    61    66    67    1
    62    66    69    1
    63    11    10    2
    64    55    56    2
    65    55    54    1
    66    93    94    1
    67    93    96    1
    68    93    92    1
    69    97    98    1
    70    97    96    1
    71    97    99    1
    72    10     9    1
    73    67    68    2
    74    94   100   am
    75     5     6    1
    76     5     7    1
    77    90    92   am
    78    90    89    1
    79    88    89    1
    80    88    82   am
    81    54    57    1
    82    81    82    1
    83    81    84    1
    84   103   102    2
    85    71    69    1
    86    86    85    2
    87     8     9    1
    88    69    70    1
    89    82    83    2
    90   102   101    1
    91     9    12    1
    92   100   101    1
    93    85    84    1
    94    85    87   am
    95    57    59    1
    96    57    58    1
    97   101   104    1
    98    12    14    1
    99    12    13    1
   100   104   106    1
   101   104   105    1
   102    13    15    1
   103   105   107    1
