@<TRIPOS>MOLECULE
tmp/4c9hB04.pdb
 165 161 0 0 0
SMALL
GASTEIGER

@<TRIPOS>ATOM
      1  N         30.1920   12.9010    2.8270 N.3   120  LEU120     -0.1231
      2  CA        31.4280   13.2950    3.4980 C.3   120  LEU120      0.1693
      3  C         31.3710   14.7580    3.9430 C.2   120  LEU120      0.2592
      4  O         32.0000   15.1390    4.9310 O.2   120  LEU120     -0.2718
      5  CB        32.6330   13.0560    2.5820 C.3   120  LEU120      0.0284
      6  CG        34.0400   13.2260    3.1670 C.3   120  LEU120      0.0019
      7  CD1       34.9840   12.2010    2.5590 C.3   120  LEU120      0.0001
      8  CD2       34.5790   14.6320    2.9400 C.3   120  LEU120      0.0001
      9  N         30.6130   15.5690    3.2100 N.am  121  PHE121     -0.1976
     10  CA        30.4400   16.9770    3.5480 C.3   121  PHE121      0.1639
     11  C         29.0950   17.2670    4.2190 C.2   121  PHE121      0.2290
     12  O         28.9680   18.2290    4.9770 O.2   121  PHE121     -0.2864
     13  CB        30.5780   17.8470    2.2940 C.3   121  PHE121      0.0560
     14  CG        31.9690   17.8860    1.7280 C.ar  121  PHE121     -0.0200
     15  CD1       32.4090   16.8940    0.8670 C.ar  121  PHE121     -0.0042
     16  CD2       32.8370   18.9150    2.0560 C.ar  121  PHE121     -0.0042
     17  CE1       33.6880   16.9280    0.3430 C.ar  121  PHE121     -0.0003
     18  CE2       34.1180   18.9540    1.5360 C.ar  121  PHE121     -0.0003
     19  CZ        34.5440   17.9590    0.6790 C.ar  121  PHE121     -0.0000
     20  N         33.7330   15.4830   16.4600 N.3   158  VAL158     -0.1231
     21  CA        33.2720   15.4040   15.0760 C.3   158  VAL158      0.1692
     22  C         32.6300   14.0540   14.7710 C.2   158  VAL158      0.2591
     23  O         31.6220   13.9810   14.0640 O.2   158  VAL158     -0.2718
     24  CB        34.4230   15.6510   14.0810 C.3   158  VAL158      0.0266
     25  CG1       33.8840   15.7840   12.6660 C.3   158  VAL158      0.0020
     26  CG2       35.2030   16.8970   14.4740 C.3   158  VAL158      0.0020
     27  N         33.2260   12.9890   15.3040 N.am  159  ALA159     -0.1980
     28  CA        32.7350   11.6300   15.0910 C.3   159  ALA159      0.1597
     29  C         31.2680   11.4790   15.4880 C.2   159  ALA159      0.2287
     30  O         30.5370   10.6790   14.9070 O.2   159  ALA159     -0.2864
     31  CB        33.5940   10.6370   15.8590 C.3   159  ALA159      0.0319
     32  N         28.9980   12.4020   12.5960 N.3   162  TYR162     -0.1227
     33  CA        29.0450   11.5140   11.4370 C.3   162  TYR162      0.1736
     34  C         28.7680   10.0540   11.7830 C.2   162  TYR162      0.2595
     35  O         29.1970    9.1530   11.0650 O.2   162  TYR162     -0.2718
     36  CB        30.4050   11.6160   10.7430 C.3   162  TYR162      0.0548
     37  CG        30.5730   12.8290    9.8540 C.ar  162  TYR162     -0.0200
     38  CD1       30.8820   14.0720   10.3900 C.ar  162  TYR162     -0.0009
     39  CD2       30.4340   12.7270    8.4740 C.ar  162  TYR162     -0.0009
     40  CE1       31.0420   15.1820    9.5770 C.ar  162  TYR162      0.0417
     41  CE2       30.5910   13.8300    7.6540 C.ar  162  TYR162      0.0417
     42  CZ        30.8950   15.0540    8.2100 C.ar  162  TYR162      0.1957
     43  OH        31.0510   16.1540    7.3980 O.3   162  TYR162     -0.2866
     44  N         28.0470    9.8160   12.8730 N.am  163  ARG163     -0.1966
     45  CA        27.7920    8.4500   13.3230 C.3   163  ARG163      0.1729
     46  C         26.7580    7.7410   12.4460 C.2   163  ARG163      0.2617
     47  O         25.6650    8.2570   12.2120 O.2   163  ARG163     -0.2715
     48  CB        27.3380    8.4470   14.7830 C.3   163  ARG163      0.0348
     49  CG        27.6220    7.1420   15.5070 C.3   163  ARG163      0.0492
     50  CD        27.4420    7.2870   17.0090 C.3   163  ARG163      0.2205
     51  NE        28.4230    8.1930   17.5970 N.pl3 163  ARG163     -0.0865
     52  CZ        29.6470    7.8280   17.9650 C.cat 163  ARG163      0.5346
     53  NH1       30.0430    6.5730   17.8050 N.pl3 163  ARG163      0.1354
     54  NH2       30.4750    8.7190   18.4930 N.pl3 163  ARG163      0.1354
     55  N         27.1160    6.5520   11.9690 N.am  164  GLY164     -0.1940
     56  CA        26.2540    5.7820   11.0900 C.3   164  GLY164      0.2014
     57  C         26.5770    6.0080    9.6250 C.2   164  GLY164      0.2639
     58  O         25.7430    5.7690    8.7510 O.2   164  GLY164     -0.2714
     59  N         27.7940    6.4720    9.3580 N.am  165  PHE165     -0.1959
     60  CA        28.2140    6.8280    8.0050 C.3   165  PHE165      0.1771
     61  C         28.2990    5.6210    7.0680 C.2   165  PHE165      0.2619
     62  O         27.7950    5.6580    5.9440 O.2   165  PHE165     -0.2715
     63  CB        29.5650    7.5440    8.0560 C.3   165  PHE165      0.0574
     64  CG        30.0370    8.0540    6.7230 C.ar  165  PHE165     -0.0200
     65  CD1       29.6040    9.2780    6.2430 C.ar  165  PHE165     -0.0042
     66  CD2       30.9290    7.3170    5.9590 C.ar  165  PHE165     -0.0042
     67  CE1       30.0420    9.7520    5.0230 C.ar  165  PHE165     -0.0003
     68  CE2       31.3700    7.7850    4.7380 C.ar  165  PHE165     -0.0003
     69  CZ        30.9260    9.0050    4.2690 C.ar  165  PHE165     -0.0000
     70  N         28.9370    4.5550    7.5350 N.am  166  LEU166     -0.1964
     71  CA        29.1460    3.3710    6.7080 C.3   166  LEU166      0.1713
     72  C         27.8470    2.6240    6.3570 C.2   166  LEU166      0.2458
     73  O         27.6460    2.2670    5.1910 O.2   166  LEU166     -0.2730
     74  CB        30.1430    2.4280    7.3880 C.3   166  LEU166      0.0310
     75  CG        31.5400    3.0340    7.5350 C.3   166  LEU166      0.0022
     76  CD1       32.4690    2.0930    8.2770 C.3   166  LEU166      0.0001
     77  CD2       32.1130    3.3870    6.1690 C.3   166  LEU166      0.0001
     78  N         26.9610    2.3810    7.3480 N.am  167  PRO167     -0.2727
     79  CA        25.6880    1.7670    6.9470 C.3   167  PRO167      0.1402
     80  C         24.8750    2.6680    6.0170 C.2   167  PRO167      0.2269
     81  O         24.0540    2.1670    5.2480 O.2   167  PRO167     -0.2865
     82  CB        24.9590    1.5540    8.2780 C.3   167  PRO167      0.0296
     83  CG        25.6230    2.4630    9.2430 C.3   167  PRO167      0.0237
     84  CD        27.0460    2.5410    8.8100 C.3   167  PRO167      0.0939
     85  N         26.2950    4.6050    3.6600 N.3   169  VAL169     -0.1231
     86  CA        26.9230    4.4000    2.3560 C.3   169  VAL169      0.1692
     87  C         26.4490    3.0940    1.7140 C.2   169  VAL169      0.2591
     88  O         25.9930    3.0720    0.5560 O.2   169  VAL169     -0.2718
     89  CB        28.4590    4.3790    2.4720 C.3   169  VAL169      0.0266
     90  CG1       29.0890    3.9540    1.1530 C.3   169  VAL169      0.0020
     91  CG2       28.9770    5.7420    2.9100 C.3   169  VAL169      0.0020
     92  N         26.5610    2.0100    2.4800 N.am  170  VAL170     -0.1980
     93  CA        26.0840    0.7010    2.0460 C.3   170  VAL170      0.1595
     94  C         24.6240    0.7980    1.6260 C.2   170  VAL170      0.2287
     95  O         24.2120    0.2470    0.5990 O.2   170  VAL170     -0.2864
     96  CB        26.2290   -0.3500    3.1630 C.3   170  VAL170      0.0276
     97  CG1       25.6230   -1.6740    2.7320 C.3   170  VAL170      0.0022
     98  CG2       27.6920   -0.5240    3.5420 C.3   170  VAL170      0.0022
     99  N         19.0480   -1.0300    7.0500 N.3   208  LEU208     -0.1245
    100  CA        20.2890   -0.2610    7.0480 C.3   208  LEU208      0.1561
    101  C         20.0440    1.1680    7.5240 C.2   208  LEU208      0.2260
    102  O         20.8140    1.7090    8.3210 O.2   208  LEU208     -0.2867
    103  CB        20.9130   -0.2530    5.6520 C.3   208  LEU208      0.0270
    104  CG        21.4730   -1.5880    5.1580 C.3   208  LEU208      0.0019
    105  CD1       21.8130   -1.5130    3.6790 C.3   208  LEU208      0.0001
    106  CD2       22.6970   -1.9880    5.9730 C.3   208  LEU208      0.0001
    107  N         19.3840    1.1280   11.3170 N.3   211  VAL211     -0.1245
    108  CA        20.6740    1.0110   11.9870 C.3   211  VAL211      0.1561
    109  C         21.4050    2.3500   12.0070 C.2   211  VAL211      0.2260
    110  O         21.8620    2.7970   13.0580 O.2   211  VAL211     -0.2867
    111  CB        21.5680   -0.0440   11.3080 C.3   211  VAL211      0.0252
    112  CG1       22.9840    0.0210   11.8570 C.3   211  VAL211      0.0019
    113  CG2       20.9810   -1.4320   11.4970 C.3   211  VAL211      0.0019
    114  N         22.0290    4.5560   15.3540 N.3   215  MET215     -0.1245
    115  CA        23.4240    4.8690   15.6430 C.3   215  MET215      0.1570
    116  C         23.6090    6.3730   15.8190 C.2   215  MET215      0.2261
    117  O         24.3500    6.8080   16.6990 O.2   215  MET215     -0.2867
    118  CB        24.3470    4.3420   14.5440 C.3   215  MET215      0.0387
    119  CG        24.5950    2.8460   14.6180 C.3   215  MET215      0.0595
    120  SD        25.6720    2.2620   13.2970 S.3   215  MET215     -0.1393
    121  CE        27.2620    2.8020   13.9130 C.3   215  MET215      0.0692
    122  N         28.9940   -0.7430   19.0590 N.3   226  ASP226     -0.1225
    123  CA        30.3480   -0.9370   18.5530 C.3   226  ASP226      0.1805
    124  C         30.3240   -1.2710   17.0650 C.2   226  ASP226      0.2598
    125  O         30.7600   -2.3440   16.6510 O.2   226  ASP226     -0.2718
    126  CB        31.0630   -2.0380   19.3360 C.3   226  ASP226      0.1424
    127  CG        31.1340   -1.7430   20.8240 C.2   226  ASP226      0.3668
    128  OD1       31.4900   -0.6030   21.1880 O.co2 226  ASP226     -0.2456
    129  OD2       30.8320   -2.6490   21.6290 O.co2 226  ASP226     -0.2456
    130  N         29.8190   -0.3350   16.2680 N.am  227  GLY227     -0.1942
    131  CA        29.6980   -0.5290   14.8350 C.3   227  GLY227      0.2014
    132  C         28.3130   -0.9290   14.3610 C.2   227  GLY227      0.2639
    133  O         27.4250   -1.2150   15.1650 O.2   227  GLY227     -0.2714
    134  N         28.1370   -0.9470   13.0420 N.am  228  ALA228     -0.1963
    135  CA        26.8450   -1.2330   12.4250 C.3   228  ALA228      0.1728
    136  C         26.3840   -2.6620   12.6900 C.2   228  ALA228      0.2616
    137  O         25.2240   -2.8900   13.0320 O.2   228  ALA228     -0.2715
    138  CB        26.9090   -0.9730   10.9270 C.3   228  ALA228      0.0334
    139  N         27.2880   -3.6220   12.5180 N.am  229  PHE229     -0.1960
    140  CA        26.9590   -5.0250   12.7490 C.3   229  PHE229      0.1771
    141  C         26.5880   -5.2880   14.2040 C.2   229  PHE229      0.2619
    142  O         25.6740   -6.0600   14.4850 O.2   229  PHE229     -0.2715
    143  CB        28.1210   -5.9300   12.3360 C.3   229  PHE229      0.0574
    144  CG        27.9680   -6.5220   10.9640 C.ar  229  PHE229     -0.0200
    145  CD1       28.3720   -5.8200    9.8390 C.ar  229  PHE229     -0.0042
    146  CD2       27.4170   -7.7820   10.8000 C.ar  229  PHE229     -0.0042
    147  CE1       28.2300   -6.3670    8.5750 C.ar  229  PHE229     -0.0003
    148  CE2       27.2720   -8.3340    9.5390 C.ar  229  PHE229     -0.0003
    149  CZ        27.6790   -7.6250    8.4250 C.ar  229  PHE229     -0.0000
    150  N         27.3080   -4.6530   15.1230 N.am  230  ASP230     -0.1971
    151  CA        27.0160   -4.7810   16.5470 C.3   230  ASP230      0.1709
    152  C         25.6280   -4.2330   16.8580 C.2   230  ASP230      0.2293
    153  O         24.8370   -4.8690   17.5590 O.2   230  ASP230     -0.2864
    154  CB        28.0770   -4.0600   17.3800 C.3   230  ASP230      0.1436
    155  CG        27.7950   -4.1270   18.8670 C.2   230  ASP230      0.3671
    156  OD1       27.9770   -5.2110   19.4620 O.co2 230  ASP230     -0.2456
    157  OD2       27.4000   -3.0920   19.4420 O.co2 230  ASP230     -0.2456
    158  N         23.1050   -3.8690   14.7370 N.3   232  LEU232     -0.1245
    159  CA        22.1930   -4.8380   14.1380 C.3   232  LEU232      0.1561
    160  C         21.9450   -6.0370   15.0440 C.2   232  LEU232      0.2260
    161  O         20.8010   -6.3640   15.3590 O.2   232  LEU232     -0.2867
    162  CB        22.7490   -5.3160   12.7960 C.3   232  LEU232      0.0270
    163  CG        21.9030   -6.3200   12.0150 C.3   232  LEU232      0.0019
    164  CD1       20.5850   -5.6960   11.5820 C.3   232  LEU232      0.0001
    165  CD2       22.6760   -6.8480   10.8180 C.3   232  LEU232      0.0001
@<TRIPOS>BOND
     1    17    19   ar
     2    17    15   ar
     3    88    87    2
     4    95    94    2
     5    19    18   ar
     6    15    14   ar
     7    90    89    1
     8    18    16   ar
     9    94    93    1
    10    87    86    1
    11    87    92   am
    12    14    16   ar
    13    14    13    1
    14    93    92    1
    15    93    96    1
    16    13    10    1
    17    86    89    1
    18    86    85    1
    19    89    91    1
    20     7     6    1
    21     5     6    1
    22     5     2    1
    23    97    96    1
    24     1     2    1
    25     8     6    1
    26    96    98    1
    27     9    10    1
    28     9     3   am
    29     2     3    1
    30    10    11    1
    31   105   104    1
    32     3     4    2
    33    11    12    2
    34    69    68   ar
    35    69    67   ar
    36    68    66   ar
    37    67    65   ar
    38   104   103    1
    39   104   106    1
    40    73    72    2
    41    81    80    2
    42   103   100    1
    43    62    61    2
    44    66    64   ar
    45    80    79    1
    46    77    75    1
    47    65    64   ar
    48    72    71    1
    49    72    78   am
    50    71    74    1
    51    71    70    1
    52    64    63    1
    53    79    78    1
    54    79    82    1
    55   100    99    1
    56   100   101    1
    57    61    70   am
    58    61    60    1
    59    78    84    1
    60    74    75    1
    61    43    42    1
    62   101   102    2
    63    75    76    1
    64    41    42   ar
    65    41    39   ar
    66    60    63    1
    67    60    59    1
    68    42    40   ar
    69    82    83    1
    70   149   147   ar
    71   149   148   ar
    72    39    37   ar
    73   147   145   ar
    74    58    57    2
    75    84    83    1
    76    59    57   am
    77   148   146   ar
    78    40    38   ar
    79    57    56    1
    80   145   144   ar
    81    37    38   ar
    82    37    36    1
    83    36    33    1
    84   146   144   ar
    85   165   163    1
    86   138   135    1
    87   144   143    1
    88    35    34    2
    89    56    55    1
    90   111   113    1
    91   111   112    1
    92   111   108    1
    93   107   108    1
    94    33    34    1
    95    33    32    1
    96   164   163    1
    97    34    44   am
    98    55    46   am
    99   108   109    1
   100   109   110    2
   101   163   162    1
   102    47    46    2
   103   143   140    1
   104   135   136    1
   105   135   134    1
   106    46    45    1
   107   139   136   am
   108   139   140    1
   109    25    24    1
   110   136   137    2
   111   140   141    1
   112   162   159    1
   113    44    45    1
   114   134   132   am
   115   120   121    1
   116   120   119    1
   117    45    48    1
   118    23    22    2
   119    24    26    1
   120    24    21    1
   121   159   158    1
   122   159   160    1
   123   141   142    2
   124   141   150   am
   125   132   131    1
   126   132   133    2
   127   118   119    1
   128   118   115    1
   129    22    21    1
   130    22    27   am
   131    48    49    1
   132   131   130    1
   133    30    29    2
   134   160   161    2
   135    21    20    1
   136    28    27    1
   137    28    29    1
   138    28    31    1
   139   150   151    1
   140   114   115    1
   141    49    50    1
   142   115   116    1
   143   116   117    2
   144   130   124   am
   145   151   152    1
   146   151   154    1
   147   125   124    2
   148   152   153    2
   149    50    51    1
   150   124   123    1
   151   154   155    1
   152    51    52    2
   153    53    52    1
   154    52    54    1
   155   123   122    1
   156   123   126    1
   157   155   157   ar
   158   155   156   ar
   159   126   127    1
   160   127   128   ar
   161   127   129   ar
