@<TRIPOS>MOLECULE
tmp/4c9hA03.pdb
 147 142 0 0 0
SMALL
GASTEIGER

@<TRIPOS>ATOM
      1  N        -31.7430  -12.1580    2.5360 N.3   123  LEU123     -0.1245
      2  CA       -33.0160  -12.4800    3.1780 C.3   123  LEU123      0.1561
      3  C        -33.0620  -13.9420    3.6210 C.2   123  LEU123      0.2260
      4  O        -33.7280  -14.2850    4.5980 O.2   123  LEU123     -0.2867
      5  CB       -34.1860  -12.1820    2.2370 C.3   123  LEU123      0.0270
      6  CG       -35.5900  -12.3110    2.8360 C.3   123  LEU123      0.0019
      7  CD1      -35.7650  -11.3680    4.0180 C.3   123  LEU123      0.0001
      8  CD2      -36.6560  -12.0570    1.7790 C.3   123  LEU123      0.0001
      9  N        -35.5450  -13.7430   16.4940 N.3   159  VAL159     -0.1231
     10  CA       -35.1160  -13.7590   15.0990 C.3   159  VAL159      0.1692
     11  C        -34.2590  -12.5450   14.7580 C.2   159  VAL159      0.2591
     12  O        -33.2710  -12.6570   14.0320 O.2   159  VAL159     -0.2718
     13  CB       -36.3250  -13.8000   14.1400 C.3   159  VAL159      0.0266
     14  CG1      -35.8640  -14.0380   12.7120 C.3   159  VAL159      0.0020
     15  CG2      -37.3070  -14.8770   14.5700 C.3   159  VAL159      0.0020
     16  N        -34.6490  -11.3890   15.2900 N.am  160  ALA160     -0.1980
     17  CA       -33.9500  -10.1310   15.0440 C.3   160  ALA160      0.1597
     18  C        -32.4650  -10.2110   15.3900 C.2   160  ALA160      0.2287
     19  O        -31.6420   -9.5310   14.7770 O.2   160  ALA160     -0.2864
     20  CB       -34.6100   -9.0050   15.8260 C.3   160  ALA160      0.0319
     21  N        -30.5770  -11.3800   12.4150 N.3   163  TYR163     -0.1227
     22  CA       -30.5960  -10.4790   11.2650 C.3   163  TYR163      0.1736
     23  C        -30.1300   -9.0630   11.6020 C.2   163  TYR163      0.2595
     24  O        -30.4850   -8.1110   10.9080 O.2   163  TYR163     -0.2718
     25  CB       -32.0070  -10.4160   10.6680 C.3   163  TYR163      0.0548
     26  CG       -32.3720  -11.6030    9.8040 C.ar  163  TYR163     -0.0200
     27  CD1      -32.7800  -12.8020   10.3740 C.ar  163  TYR163     -0.0009
     28  CD2      -32.3200  -11.5190    8.4200 C.ar  163  TYR163     -0.0009
     29  CE1      -33.1170  -13.8880    9.5880 C.ar  163  TYR163      0.0417
     30  CE2      -32.6550  -12.6000    7.6260 C.ar  163  TYR163      0.0417
     31  CZ       -33.0530  -13.7810    8.2160 C.ar  163  TYR163      0.1957
     32  OH       -33.3870  -14.8600    7.4300 O.3   163  TYR163     -0.2866
     33  N        -29.3350   -8.9240   12.6570 N.am  164  ARG164     -0.1966
     34  CA       -28.8960   -7.6040   13.1050 C.3   164  ARG164      0.1729
     35  C        -27.8040   -7.0180   12.2060 C.2   164  ARG164      0.2617
     36  O        -26.7820   -7.6600   11.9560 O.2   164  ARG164     -0.2715
     37  CB       -28.4040   -7.6800   14.5500 C.3   164  ARG164      0.0348
     38  CG       -28.5120   -6.3720   15.3090 C.3   164  ARG164      0.0492
     39  CD       -28.3030   -6.5860   16.8000 C.3   164  ARG164      0.2205
     40  NE       -29.3560   -7.4020   17.3980 N.pl3 164  ARG164     -0.0865
     41  CZ       -30.5220   -6.9230   17.8170 C.cat 164  ARG164      0.5346
     42  NH1      -30.7910   -5.6300   17.7000 N.pl3 164  ARG164      0.1354
     43  NH2      -31.4220   -7.7370   18.3510 N.pl3 164  ARG164      0.1354
     44  N        -28.0240   -5.7950   11.7290 N.am  165  GLY165     -0.1940
     45  CA       -27.0780   -5.1350   10.8440 C.3   165  GLY165      0.2014
     46  C        -27.3940   -5.3270    9.3710 C.2   165  GLY165      0.2639
     47  O        -26.5220   -5.1790    8.5160 O.2   165  GLY165     -0.2714
     48  N        -28.6480   -5.6560    9.0760 N.am  166  PHE166     -0.1959
     49  CA       -29.0730   -5.9800    7.7160 C.3   166  PHE166      0.1771
     50  C        -28.9960   -4.7800    6.7690 C.2   166  PHE166      0.2619
     51  O        -28.4780   -4.8840    5.6530 O.2   166  PHE166     -0.2715
     52  CB       -30.4980   -6.5400    7.7480 C.3   166  PHE166      0.0574
     53  CG       -30.9910   -7.0420    6.4190 C.ar  166  PHE166     -0.0200
     54  CD1      -30.6900   -8.3260    5.9970 C.ar  166  PHE166     -0.0042
     55  CD2      -31.7730   -6.2400    5.6040 C.ar  166  PHE166     -0.0042
     56  CE1      -31.1480   -8.7960    4.7830 C.ar  166  PHE166     -0.0003
     57  CE2      -32.2340   -6.7060    4.3870 C.ar  166  PHE166     -0.0003
     58  CZ       -31.9200   -7.9860    3.9770 C.ar  166  PHE166     -0.0000
     59  N        -29.5080   -3.6420    7.2220 N.am  167  LEU167     -0.1964
     60  CA       -29.5690   -2.4440    6.3910 C.3   167  LEU167      0.1713
     61  C        -28.1900   -1.8600    6.0410 C.2   167  LEU167      0.2458
     62  O        -27.9450   -1.5400    4.8730 O.2   167  LEU167     -0.2730
     63  CB       -30.4350   -1.3800    7.0730 C.3   167  LEU167      0.0310
     64  CG       -31.8990   -1.7790    7.2550 C.3   167  LEU167      0.0022
     65  CD1      -32.6570   -0.7010    8.0020 C.3   167  LEU167      0.0001
     66  CD2      -32.5470   -2.0610    5.9090 C.3   167  LEU167      0.0001
     67  N        -27.2830   -1.7160    7.0340 N.am  168  PRO168     -0.2727
     68  CA       -25.9460   -1.2550    6.6410 C.3   168  PRO168      0.1402
     69  C        -25.2310   -2.2420    5.7210 C.2   168  PRO168      0.2269
     70  O        -24.3500   -1.8340    4.9670 O.2   168  PRO168     -0.2865
     71  CB       -25.2050   -1.1230    7.9770 C.3   168  PRO168      0.0296
     72  CG       -25.9720   -1.9490    8.9370 C.3   168  PRO168      0.0237
     73  CD       -27.3930   -1.8660    8.4970 C.3   168  PRO168      0.0939
     74  N        -26.8480   -1.4410    2.1600 N.3   171  VAL171     -0.1245
     75  CA       -26.2350   -0.1880    1.7280 C.3   171  VAL171      0.1561
     76  C        -24.7780   -0.4240    1.3430 C.2   171  VAL171      0.2260
     77  O        -24.2930    0.0900    0.3290 O.2   171  VAL171     -0.2867
     78  CB       -26.3140    0.8860    2.8280 C.3   171  VAL171      0.0252
     79  CG1      -25.5820    2.1460    2.3990 C.3   171  VAL171      0.0019
     80  CG2      -27.7640    1.1960    3.1560 C.3   171  VAL171      0.0019
     81  N        -19.1200    0.8270    6.7610 N.3   209  LEU209     -0.1245
     82  CA       -20.4370    0.1980    6.7750 C.3   209  LEU209      0.1561
     83  C        -20.3500   -1.2450    7.2570 C.2   209  LEU209      0.2260
     84  O        -21.1670   -1.6920    8.0630 O.2   209  LEU209     -0.2867
     85  CB       -21.0720    0.2490    5.3850 C.3   209  LEU209      0.0270
     86  CG       -21.4840    1.6360    4.8930 C.3   209  LEU209      0.0019
     87  CD1      -21.8530    1.6000    3.4210 C.3   209  LEU209      0.0001
     88  CD2      -22.6400    2.1660    5.7250 C.3   209  LEU209      0.0001
     89  N        -19.6580   -1.2590   11.0360 N.3   212  VAL212     -0.1245
     90  CA       -20.9200   -0.9880   11.7170 C.3   212  VAL212      0.1561
     91  C        -21.8060   -2.2310   11.7500 C.2   212  VAL212      0.2260
     92  O        -22.3040   -2.6140   12.8080 O.2   212  VAL212     -0.2867
     93  CB       -21.6860    0.1670   11.0440 C.3   212  VAL212      0.0252
     94  CG1      -23.0950    0.2770   11.6080 C.3   212  VAL212      0.0019
     95  CG2      -20.9340    1.4730   11.2230 C.3   212  VAL212      0.0019
     96  N        -22.6630   -4.3360   15.1090 N.3   216  MET216     -0.1245
     97  CA       -24.0820   -4.4890   15.4120 C.3   216  MET216      0.1570
     98  C        -24.4300   -5.9620   15.6120 C.2   216  MET216      0.2261
     99  O        -25.2000   -6.3010   16.5080 O.2   216  MET216     -0.2867
    100  CB       -24.9470   -3.8810   14.3080 C.3   216  MET216      0.0387
    101  CG       -25.0340   -2.3640   14.3540 C.3   216  MET216      0.0595
    102  SD       -26.0360   -1.6800   13.0170 S.3   216  MET216     -0.1393
    103  CE       -27.6910   -2.0230   13.6120 C.3   216  MET216      0.0692
    104  N        -28.9900    1.7390   18.6670 N.3   227  ASP227     -0.1225
    105  CA       -30.3100    2.1100   18.1680 C.3   227  ASP227      0.1805
    106  C        -30.2680    2.3980   16.6700 C.2   227  ASP227      0.2598
    107  O        -30.5680    3.5090   16.2330 O.2   227  ASP227     -0.2718
    108  CB       -30.8470    3.3310   18.9200 C.3   227  ASP227      0.1424
    109  CG       -30.9340    3.1040   20.4190 C.2   227  ASP227      0.3668
    110  OD1      -31.4420    2.0400   20.8340 O.co2 227  ASP227     -0.2456
    111  OD2      -30.4950    3.9910   21.1820 O.co2 227  ASP227     -0.2456
    112  N        -29.9050    1.3880   15.8870 N.am  228  GLY228     -0.1942
    113  CA       -29.7880    1.5460   14.4490 C.3   228  GLY228      0.2014
    114  C        -28.3600    1.7760   13.9910 C.2   228  GLY228      0.2639
    115  O        -27.4570    1.9590   14.8070 O.2   228  GLY228     -0.2714
    116  N        -28.1630    1.7680   12.6760 N.am  229  ALA229     -0.1963
    117  CA       -26.8350    1.8980   12.0810 C.3   229  ALA229      0.1728
    118  C        -26.2060    3.2630   12.3520 C.2   229  ALA229      0.2616
    119  O        -25.0320    3.3500   12.7100 O.2   229  ALA229     -0.2715
    120  CB       -26.9040    1.6440   10.5800 C.3   229  ALA229      0.0334
    121  N        -26.9870    4.3230   12.1680 N.am  230  PHE230     -0.1960
    122  CA       -26.4990    5.6820   12.3810 C.3   230  PHE230      0.1771
    123  C        -26.0910    5.8970   13.8340 C.2   230  PHE230      0.2619
    124  O        -25.0810    6.5420   14.1180 O.2   230  PHE230     -0.2715
    125  CB       -27.5650    6.7020   11.9740 C.3   230  PHE230      0.0574
    126  CG       -27.3950    7.2330   10.5790 C.ar  230  PHE230     -0.0200
    127  CD1      -27.9180    6.5480    9.4940 C.ar  230  PHE230     -0.0042
    128  CD2      -26.7140    8.4170   10.3520 C.ar  230  PHE230     -0.0042
    129  CE1      -27.7640    7.0330    8.2080 C.ar  230  PHE230     -0.0003
    130  CE2      -26.5570    8.9080    9.0670 C.ar  230  PHE230     -0.0003
    131  CZ       -27.0830    8.2150    7.9940 C.ar  230  PHE230     -0.0000
    132  N        -26.8860    5.3500   14.7480 N.am  231  ASP231     -0.1971
    133  CA       -26.5990    5.4250   16.1760 C.3   231  ASP231      0.1709
    134  C        -25.2890    4.7180   16.4960 C.2   231  ASP231      0.2293
    135  O        -24.4350    5.2560   17.2050 O.2   231  ASP231     -0.2864
    136  CB       -27.7490    4.8130   16.9770 C.3   231  ASP231      0.1436
    137  CG       -27.4910    4.8130   18.4690 C.2   231  ASP231      0.3671
    138  OD1      -27.5570    5.8950   19.0890 O.co2 231  ASP231     -0.2456
    139  OD2      -27.2370    3.7230   19.0240 O.co2 231  ASP231     -0.2456
    140  N        -22.7870    4.0510   14.3920 N.3   233  LEU233     -0.1245
    141  CA       -21.7460    4.8890   13.8030 C.3   233  LEU233      0.1561
    142  C        -21.3620    6.0510   14.7150 C.2   233  LEU233      0.2260
    143  O        -20.1890    6.2330   15.0490 O.2   233  LEU233     -0.2867
    144  CB       -22.2110    5.4230   12.4470 C.3   233  LEU233      0.0270
    145  CG       -21.2310    6.2920   11.6610 C.3   233  LEU233      0.0019
    146  CD1      -20.0150    5.4800   11.2660 C.3   233  LEU233      0.0001
    147  CD2      -21.9050    6.8780   10.4330 C.3   233  LEU233      0.0001
@<TRIPOS>BOND
     1    77    76    2
     2    76    75    1
     3    75    74    1
     4    75    78    1
     5     8     6    1
     6     5     6    1
     7     5     2    1
     8    79    78    1
     9     1     2    1
    10    78    80    1
    11     6     7    1
    12     2     3    1
    13    87    86    1
    14     3     4    2
    15    58    57   ar
    16    58    56   ar
    17    57    55   ar
    18    56    54   ar
    19    62    61    2
    20    86    85    1
    21    86    88    1
    22    70    69    2
    23    85    82    1
    24    55    53   ar
    25    51    50    2
    26    69    68    1
    27    66    64    1
    28    54    53   ar
    29    61    60    1
    30    61    67   am
    31    60    63    1
    32    60    59    1
    33    53    52    1
    34    68    67    1
    35    68    71    1
    36    81    82    1
    37    50    59   am
    38    50    49    1
    39    82    83    1
    40    67    73    1
    41    63    64    1
    42    64    65    1
    43    83    84    2
    44    32    31    1
    45    30    31   ar
    46    30    28   ar
    47    49    52    1
    48    49    48    1
    49    71    72    1
    50   131   129   ar
    51   131   130   ar
    52   129   127   ar
    53    31    29   ar
    54    28    26   ar
    55    73    72    1
    56    47    46    2
    57   130   128   ar
    58    48    46   am
    59    46    45    1
    60   127   126   ar
    61    29    27   ar
    62    26    27   ar
    63    26    25    1
    64   128   126   ar
    65   147   145    1
    66   126   125    1
    67   120   117    1
    68    25    22    1
    69    45    44    1
    70    24    23    2
    71    89    90    1
    72    93    95    1
    73    93    94    1
    74    93    90    1
    75    22    23    1
    76    22    21    1
    77   146   145    1
    78    23    33   am
    79   145   144    1
    80    90    91    1
    81    44    35   am
    82    91    92    2
    83    36    35    2
    84   125   122    1
    85   117   118    1
    86   117   116    1
    87   121   118   am
    88   121   122    1
    89    35    34    1
    90   118   119    2
    91   122   123    1
    92   144   141    1
    93    33    34    1
    94   116   114   am
    95    14    13    1
    96   102   103    1
    97   102   101    1
    98    34    37    1
    99   141   140    1
   100   141   142    1
   101   123   124    2
   102   123   132   am
   103   114   113    1
   104   114   115    2
   105    12    11    2
   106    13    15    1
   107    13    10    1
   108   100   101    1
   109   100    97    1
   110   113   112    1
   111    37    38    1
   112   142   143    2
   113   132   133    1
   114    11    10    1
   115    11    16   am
   116    19    18    2
   117    17    16    1
   118    17    18    1
   119    17    20    1
   120    10     9    1
   121    96    97    1
   122    38    39    1
   123    97    98    1
   124    98    99    2
   125   112   106   am
   126   133   134    1
   127   133   136    1
   128   107   106    2
   129   134   135    2
   130   106   105    1
   131    39    40    1
   132   136   137    1
   133    40    41    2
   134    42    41    1
   135    41    43    1
   136   105   104    1
   137   105   108    1
   138   137   139   ar
   139   137   138   ar
   140   108   109    1
   141   109   110   ar
   142   109   111   ar
