@<TRIPOS>MOLECULE
tmp/4c9hA01.pdb
 110 106 0 0 0
SMALL
GASTEIGER

@<TRIPOS>ATOM
      1  N        -11.8300  -21.5630    2.5460 N.3    19  THR19      -0.1218
      2  CA       -11.0260  -22.2800    3.5320 C.3    19  THR19       0.1862
      3  C         -9.6040  -21.7320    3.5680 C.2    19  THR19       0.2287
      4  O         -9.0340  -21.5250    4.6420 O.2    19  THR19      -0.2866
      5  CB       -10.9790  -23.7920    3.2440 C.3    19  THR19       0.1770
      6  OG1      -12.3010  -24.3360    3.3320 O.3    19  THR19      -0.2211
      7  CG2      -10.0810  -24.5040    4.2450 C.3    19  THR19       0.0375
      8  N         -5.5360  -24.7060   14.5530 N.3    64  ILE64      -0.1245
      9  CA        -6.8090  -25.0650   13.9330 C.3    64  ILE64       0.1561
     10  C         -7.8700  -23.9820   14.1600 C.2    64  ILE64       0.2260
     11  O         -8.7670  -23.7920   13.3340 O.2    64  ILE64      -0.2867
     12  CB        -7.3180  -26.4310   14.4590 C.3    64  ILE64       0.0252
     13  CG1       -8.5260  -26.9120   13.6500 C.3    64  ILE64       0.0019
     14  CG2       -7.6310  -26.3660   15.9510 C.3    64  ILE64       0.0019
     15  CD1       -9.0160  -28.2860   14.0470 C.3    64  ILE64       0.0001
     16  N         -9.4630  -21.5720   11.5730 N.3    67  TRP67      -0.1227
     17  CA       -10.5370  -21.9590   10.6620 C.3    67  TRP67       0.1737
     18  C        -11.8860  -22.0000   11.3650 C.2    67  TRP67       0.2595
     19  O        -12.8070  -22.6730   10.9090 O.2    67  TRP67      -0.2718
     20  CB       -10.2440  -23.3180   10.0250 C.3    67  TRP67       0.0564
     21  CG        -9.2310  -23.2450    8.9320 C.ar   67  TRP67       0.0003
     22  CD1       -9.4740  -23.1380    7.5960 C.ar   67  TRP67       0.0946
     23  CD2       -7.8070  -23.2550    9.0840 C.ar   67  TRP67       0.0152
     24  NE1       -8.2890  -23.0890    6.9030 N.ar   67  TRP67      -0.2442
     25  CE2       -7.2500  -23.1580    7.7940 C.ar   67  TRP67       0.0810
     26  CE3       -6.9490  -23.3400   10.1830 C.ar   67  TRP67       0.0012
     27  CZ2       -5.8760  -23.1440    7.5740 C.ar   67  TRP67       0.0191
     28  CZ3       -5.5860  -23.3250    9.9630 C.ar   67  TRP67       0.0001
     29  CH2       -5.0620  -23.2290    8.6690 C.ar   67  TRP67       0.0015
     30  N        -11.9990  -21.2780   12.4750 N.am   68  ARG68      -0.1966
     31  CA       -13.2490  -21.2260   13.2220 C.3    68  ARG68       0.1729
     32  C        -14.3090  -20.4460   12.4520 C.2    68  ARG68       0.2617
     33  O        -14.0400  -19.3590   11.9440 O.2    68  ARG68      -0.2715
     34  CB       -13.0270  -20.5990   14.6000 C.3    68  ARG68       0.0348
     35  CG       -14.2140  -20.7240   15.5380 C.3    68  ARG68       0.0492
     36  CD       -13.8100  -20.4220   16.9710 C.3    68  ARG68       0.2205
     37  NE       -14.9590  -20.3780   17.8700 N.pl3  68  ARG68      -0.0865
     38  CZ       -15.4160  -21.4280   18.5460 C.cat  68  ARG68       0.5346
     39  NH1      -14.8200  -22.6080   18.4250 N.pl3  68  ARG68       0.1354
     40  NH2      -16.4670  -21.2990   19.3430 N.pl3  68  ARG68       0.1354
     41  N        -15.5120  -21.0070   12.3670 N.am   69  GLY69      -0.1940
     42  CA       -16.6140  -20.3500   11.6870 C.3    69  GLY69       0.2014
     43  C        -16.6770  -20.6160   10.1930 C.2    69  GLY69       0.2639
     44  O        -17.6820  -20.3220    9.5460 O.2    69  GLY69      -0.2714
     45  N        -15.6060  -21.1830    9.6460 N.am   70  ASN70      -0.1958
     46  CA       -15.4860  -21.3850    8.2050 C.3    70  ASN70       0.1819
     47  C        -16.5560  -22.3070    7.6120 C.2    70  ASN70       0.2621
     48  O        -16.8100  -22.2770    6.4060 O.2    70  ASN70      -0.2715
     49  CB       -14.0950  -21.9300    7.8770 C.3    70  ASN70       0.1195
     50  CG       -13.7790  -21.8600    6.3990 C.2    70  ASN70       0.2630
     51  OD1      -13.4720  -20.7920    5.8700 O.2    70  ASN70      -0.2716
     52  ND2      -13.8500  -23.0010    5.7230 N.am   70  ASN70      -0.0877
     53  N        -17.1850  -23.1180    8.4580 N.am   71  THR71      -0.1951
     54  CA       -18.2300  -24.0360    8.0090 C.3    71  THR71       0.1897
     55  C        -19.4150  -23.2600    7.4430 C.2    71  THR71       0.2313
     56  O        -20.0040  -23.6580    6.4380 O.2    71  THR71      -0.2863
     57  CB       -18.7080  -24.9600    9.1500 C.3    71  THR71       0.1794
     58  OG1      -17.7120  -25.9570    9.4060 O.3    71  THR71      -0.2208
     59  CG2      -20.0170  -25.6500    8.7890 C.3    71  THR71       0.0378
     60  N        -18.5510  -22.2770    4.0590 N.3    74  VAL74      -0.1245
     61  CA       -18.6240  -23.4110    3.1460 C.3    74  VAL74       0.1561
     62  C        -20.0610  -23.7260    2.7370 C.2    74  VAL74       0.2260
     63  O        -20.3570  -23.8710    1.5500 O.2    74  VAL74      -0.2867
     64  CB       -17.9890  -24.6710    3.7650 C.3    74  VAL74       0.0252
     65  CG1      -18.2870  -25.8930    2.9110 C.3    74  VAL74       0.0019
     66  CG2      -16.4870  -24.4810    3.9240 C.3    74  VAL74       0.0019
     67  N        -18.7440  -16.5800   15.6560 N.3   135  LEU135     -0.1245
     68  CA       -17.7900  -17.6500   15.9340 C.3   135  LEU135      0.1561
     69  C        -16.3500  -17.1740   15.7840 C.2   135  LEU135      0.2260
     70  O        -15.4670  -17.6100   16.5220 O.2   135  LEU135     -0.2867
     71  CB       -18.0390  -18.8510   15.0200 C.3   135  LEU135      0.0270
     72  CG       -19.3030  -19.6680   15.2950 C.3   135  LEU135      0.0019
     73  CD1      -19.4900  -20.7410   14.2350 C.3   135  LEU135      0.0001
     74  CD2      -19.2430  -20.2880   16.6800 C.3   135  LEU135      0.0001
     75  N        -20.3080  -22.5420   21.1320 N.3   144  ASN144     -0.1225
     76  CA       -19.7400  -23.8740   20.9280 C.3   144  ASN144      0.1785
     77  C        -19.9700  -24.4310   19.5240 C.2   144  ASN144      0.2598
     78  O        -19.5350  -25.5390   19.2100 O.2   144  ASN144     -0.2718
     79  CB       -20.3030  -24.8510   21.9630 C.3   144  ASN144      0.1169
     80  CG       -19.9060  -24.4920   23.3810 C.2   144  ASN144      0.2627
     81  OD1      -18.8620  -23.8790   23.6090 O.2   144  ASN144     -0.2716
     82  ND2      -20.7370  -24.8740   24.3450 N.am  144  ASN144     -0.0877
     83  N        -20.6530  -23.6630   18.6810 N.am  145  GLY145     -0.1942
     84  CA       -20.9150  -24.0880   17.3180 C.3   145  GLY145      0.2014
     85  C        -22.0470  -23.3270   16.6580 C.2   145  GLY145      0.2639
     86  O        -22.7010  -22.4990   17.2940 O.2   145  GLY145     -0.2714
     87  N        -22.2680  -23.6080   15.3760 N.am  146  LEU146     -0.1963
     88  CA       -23.3350  -22.9780   14.5990 C.3   146  LEU146      0.1728
     89  C        -24.6930  -23.1080   15.2840 C.2   146  LEU146      0.2616
     90  O        -25.3630  -22.1080   15.5650 O.2   146  LEU146     -0.2715
     91  CB       -23.4120  -23.5880   13.1950 C.3   146  LEU146      0.0311
     92  CG       -22.4320  -23.1140   12.1160 C.3   146  LEU146      0.0022
     93  CD1      -21.0110  -23.5670   12.4130 C.3   146  LEU146      0.0001
     94  CD2      -22.8750  -23.6060   10.7450 C.3   146  LEU146      0.0001
     95  N        -25.0850  -24.3510   15.5510 N.am  147  ILE147     -0.1963
     96  CA       -26.3700  -24.6520   16.1690 C.3   147  ILE147      0.1727
     97  C        -26.4910  -23.9750   17.5310 C.2   147  ILE147      0.2616
     98  O        -27.5570  -23.4800   17.8960 O.2   147  ILE147     -0.2715
     99  CB       -26.5740  -26.1730   16.3270 C.3   147  ILE147      0.0290
    100  CG1      -26.3040  -26.8860   15.0010 C.3   147  ILE147      0.0022
    101  CG2      -27.9790  -26.4800   16.8180 C.3   147  ILE147      0.0023
    102  CD1      -27.2060  -26.4420   13.8690 C.3   147  ILE147      0.0001
    103  N        -25.3900  -23.9580   18.2780 N.am  148  ASP148     -0.1971
    104  CA       -25.3560  -23.2950   19.5750 C.3   148  ASP148      0.1709
    105  C        -25.6200  -21.8030   19.4180 C.2   148  ASP148      0.2293
    106  O        -26.4120  -21.2210   20.1630 O.2   148  ASP148     -0.2864
    107  CB       -24.0100  -23.5260   20.2650 C.3   148  ASP148      0.1436
    108  CG       -23.9900  -22.9960   21.6920 C.2   148  ASP148      0.3671
    109  OD1      -25.0740  -22.7750   22.3410 O.co2 148  ASP148     -0.2456
    110  OD2      -22.8890  -22.9180   22.2550 O.co2 148  ASP148     -0.2456
@<TRIPOS>BOND
     1    63    62    2
     2     1     2    1
     3    62    61    1
     4    65    64    1
     5    61    64    1
     6    61    60    1
     7     5     6    1
     8     5     2    1
     9     5     7    1
    10     2     3    1
    11     3     4    2
    12    64    66    1
    13    52    50   am
    14    51    50    2
    15    50    49    1
    16    48    47    2
    17    56    55    2
    18    24    22   ar
    19    24    25   ar
    20    55    54    1
    21    27    25   ar
    22    27    29   ar
    23    22    21   ar
    24    47    46    1
    25    47    53   am
    26    25    23   ar
    27    49    46    1
    28    54    53    1
    29    54    57    1
    30    46    45    1
    31    29    28   ar
    32    59    57    1
    33    21    23   ar
    34    21    20    1
    35    23    26   ar
    36    57    58    1
    37    44    43    2
    38    45    43   am
    39    28    26   ar
    40    20    17    1
    41    43    42    1
    42    17    18    1
    43    17    16    1
    44    94    92    1
    45    19    18    2
    46    18    30   am
    47    42    41    1
    48    33    32    2
    49    92    93    1
    50    92    91    1
    51    41    32   am
    52    32    31    1
    53    30    31    1
    54    91    88    1
    55    31    34    1
    56    11    10    2
    57    13    15    1
    58    13    12    1
    59   102   100    1
    60     9    10    1
    61     9    12    1
    62     9     8    1
    63    73    72    1
    64    12    14    1
    65    88    89    1
    66    88    87    1
    67    34    35    1
    68   100    99    1
    69    71    72    1
    70    71    68    1
    71    89    95   am
    72    89    90    2
    73    72    74    1
    74    87    85   am
    75    35    36    1
    76    95    96    1
    77    67    68    1
    78    69    68    1
    79    69    70    2
    80    96    99    1
    81    96    97    1
    82    99   101    1
    83    85    86    2
    84    85    84    1
    85    36    37    1
    86    84    83    1
    87    97    98    2
    88    97   103   am
    89    37    38    2
    90   103   104    1
    91    39    38    1
    92    38    40    1
    93    83    77   am
    94    78    77    2
    95   105   104    1
    96   105   106    2
    97    77    76    1
    98   104   107    1
    99   107   108    1
   100    76    75    1
   101    76    79    1
   102   108   110   ar
   103   108   109   ar
   104    79    80    1
   105    80    81    2
   106    80    82   am
