@<TRIPOS>MOLECULE
tmp/4c9hA02.pdb
 113 108 0 0 0
SMALL
GASTEIGER

@<TRIPOS>ATOM
      1  N         -9.6020   -8.1760   15.0230 N.3    31  ILE31      -0.1245
      2  CA        -9.1110   -6.8090   15.1500 C.3    31  ILE31       0.1561
      3  C        -10.2560   -5.8110   14.9790 C.2    31  ILE31       0.2260
      4  O        -10.2970   -4.7730   15.6430 O.2    31  ILE31      -0.2867
      5  CB        -8.0020   -6.5130   14.1150 C.3    31  ILE31       0.0252
      6  CG1       -6.7630   -7.3630   14.3990 C.3    31  ILE31       0.0019
      7  CG2       -7.6320   -5.0410   14.1190 C.3    31  ILE31       0.0019
      8  CD1       -5.7510   -7.3630   13.2750 C.3    31  ILE31       0.0001
      9  N         -2.3300   -5.2780   19.2130 N.3    48  ALA48      -0.1231
     10  CA        -1.3750   -4.2560   18.8060 C.3    48  ALA48       0.1694
     11  C         -1.3520   -4.1190   17.2890 C.2    48  ALA48       0.2593
     12  O         -0.9770   -3.0760   16.7560 O.2    48  ALA48      -0.2718
     13  CB         0.0090   -4.5850   19.3330 C.3    48  ALA48       0.0304
     14  N         -1.7610   -5.1800   16.6000 N.am   49  GLY49      -0.1942
     15  CA        -1.7910   -5.1920   15.1490 C.3    49  GLY49       0.2014
     16  C         -2.1180   -6.5670   14.6010 C.2    49  GLY49       0.2639
     17  O         -2.6570   -7.4150   15.3110 O.2    49  GLY49      -0.2714
     18  N         -1.7940   -6.7860   13.3310 N.am   50  ILE50      -0.1963
     19  CA        -2.0440   -8.0680   12.6810 C.3    50  ILE50       0.1727
     20  C         -1.1680   -9.1670   13.2770 C.2    50  ILE50       0.2616
     21  O         -1.6530  -10.2460   13.6340 O.2    50  ILE50      -0.2715
     22  CB        -1.7830   -7.9880   11.1660 C.3    50  ILE50       0.0290
     23  CG1       -2.6260   -6.8800   10.5310 C.3    50  ILE50       0.0022
     24  CG2       -2.0600   -9.3290   10.5050 C.3    50  ILE50       0.0023
     25  CD1       -2.2120   -6.5370    9.1170 C.3    50  ILE50       0.0001
     26  N          0.1250   -8.8740   13.3850 N.am   51  LEU51      -0.1963
     27  CA         1.1060   -9.8280   13.8890 C.3    51  LEU51       0.1728
     28  C          0.7960  -10.2300   15.3250 C.2    51  LEU51       0.2616
     29  O          0.8280  -11.4160   15.6690 O.2    51  LEU51      -0.2715
     30  CB         2.5170   -9.2430   13.7940 C.3    51  LEU51       0.0311
     31  CG         2.9640   -8.8370   12.3870 C.3    51  LEU51       0.0022
     32  CD1        4.3900   -8.2990   12.3990 C.3    51  LEU51       0.0001
     33  CD2        2.8360  -10.0070   11.4200 C.3    51  LEU51       0.0001
     34  N          0.5070   -9.2340   16.1570 N.am   52  ASP52      -0.1971
     35  CA         0.1080   -9.4680   17.5400 C.3    52  ASP52       0.1709
     36  C         -1.0770  -10.4250   17.6210 C.2    52  ASP52       0.2293
     37  O         -1.0570  -11.3860   18.3900 O.2    52  ASP52      -0.2864
     38  CB        -0.2490   -8.1480   18.2270 C.3    52  ASP52       0.1436
     39  CG        -0.4730   -8.3110   19.7150 C.2    52  ASP52       0.3671
     40  OD1        0.1030   -9.2530   20.2980 O.co2  52  ASP52      -0.2456
     41  OD2       -1.2360   -7.5120   20.3000 O.co2  52  ASP52      -0.2456
     42  N        -12.1740   -0.8670    0.5450 N.3   204  THR204     -0.1203
     43  CA       -11.6630    0.1060    1.5070 C.3   204  THR204      0.1994
     44  C        -12.6520    1.2440    1.7300 C.2   204  THR204      0.2618
     45  O        -12.9720    1.5860    2.8690 O.2   204  THR204     -0.2717
     46  CB       -10.3170    0.7040    1.0560 C.3   204  THR204      0.1784
     47  OG1       -9.3400   -0.3390    0.9590 O.3   204  THR204     -0.2211
     48  CG2       -9.8360    1.7500    2.0480 C.3   204  THR204      0.0376
     49  N        -13.1290    1.8330    0.6380 N.am  205  CYS205     -0.1969
     50  CA       -14.0840    2.9320    0.7330 C.3   205  CYS205      0.1712
     51  C        -15.3970    2.5090    1.3970 C.2   205  CYS205      0.2296
     52  O        -16.0450    3.3140    2.0680 O.2   205  CYS205     -0.2864
     53  CB       -14.3610    3.5140   -0.6540 C.3   205  CYS205      0.0983
     54  SG       -12.9110    4.2100   -1.4780 S.3   205  CYS205     -0.0798
     55  N        -11.0150    6.4700   13.0090 N.3   243  GLY243     -0.1225
     56  CA       -10.1210    5.3830   12.6450 C.3   243  GLY243      0.1811
     57  C        -10.6070    4.0150   13.0900 C.2   243  GLY243      0.2280
     58  O        -10.2830    3.0010   12.4720 O.2   243  GLY243     -0.2866
     59  N        -12.1670    1.8060   10.6240 N.3   246  PHE246     -0.1227
     60  CA       -11.2770    1.1730    9.6590 C.3   246  PHE246      0.1736
     61  C        -10.4290    0.0630   10.2720 C.2   246  PHE246      0.2595
     62  O         -9.5190   -0.4500    9.6260 O.2   246  PHE246     -0.2718
     63  CB       -10.3720    2.2230    9.0130 C.3   246  PHE246      0.0547
     64  CG       -11.0680    3.0630    7.9840 C.ar  246  PHE246     -0.0202
     65  CD1      -11.1980    2.6180    6.6790 C.ar  246  PHE246     -0.0042
     66  CD2      -11.6030    4.2940    8.3250 C.ar  246  PHE246     -0.0042
     67  CE1      -11.8430    3.3890    5.7320 C.ar  246  PHE246     -0.0003
     68  CE2      -12.2490    5.0700    7.3820 C.ar  246  PHE246     -0.0003
     69  CZ       -12.3690    4.6170    6.0840 C.ar  246  PHE246     -0.0000
     70  N        -10.7330   -0.3140   11.5110 N.am  247  LYS247     -0.1966
     71  CA        -9.9910   -1.3750   12.1850 C.3   247  LYS247      0.1728
     72  C        -10.1160   -2.7130   11.4570 C.2   247  LYS247      0.2617
     73  O        -11.2190   -3.2300   11.2720 O.2   247  LYS247     -0.2715
     74  CB       -10.4790   -1.5250   13.6260 C.3   247  LYS247      0.0311
     75  CG        -9.9940   -0.4430   14.5720 C.3   247  LYS247      0.0038
     76  CD       -10.3890   -0.7590   16.0090 C.3   247  LYS247      0.0206
     77  CE       -10.0460    0.3910   16.9440 C.3   247  LYS247      0.1093
     78  NZ       -10.5950    0.1780   18.3110 N.3   247  LYS247     -0.1314
     79  N         -8.9780   -3.2710   11.0520 N.am  248  GLY248     -0.1940
     80  CA        -8.9540   -4.5450   10.3550 C.3   248  GLY248      0.2014
     81  C         -9.0070   -4.4350    8.8430 C.2   248  GLY248      0.2639
     82  O         -9.1870   -5.4360    8.1520 O.2   248  GLY248     -0.2714
     83  N         -8.8460   -3.2230    8.3230 N.am  249  CYS249     -0.1953
     84  CA        -8.9070   -3.0030    6.8800 C.3   249  CYS249      0.1843
     85  C         -7.7250   -3.6480    6.1540 C.2   249  CYS249      0.2626
     86  O         -7.9080   -4.3270    5.1430 O.2   249  CYS249     -0.2714
     87  CB        -8.9650   -1.5050    6.5650 C.3   249  CYS249      0.0997
     88  SG        -9.5670   -1.1070    4.9000 S.3   249  CYS249     -0.0797
     89  N         -6.5170   -3.4310    6.6680 N.am  250  GLY250     -0.1940
     90  CA        -5.3200   -3.9870    6.0600 C.3   250  GLY250      0.2014
     91  C         -5.3160   -5.5040    6.0420 C.2   250  GLY250      0.2638
     92  O         -4.9000   -6.1250    5.0570 O.2   250  GLY250     -0.2714
     93  N         -5.7890   -6.1040    7.1300 N.am  251  ALA251     -0.1977
     94  CA        -5.9090   -7.5550    7.2090 C.3   251  ALA251      0.1597
     95  C         -6.9140   -8.0550    6.1760 C.2   251  ALA251      0.2287
     96  O         -6.7660   -9.1450    5.6170 O.2   251  ALA251     -0.2864
     97  CB        -6.3210   -7.9810    8.6090 C.3   251  ALA251      0.0319
     98  N         -7.5010   -6.5230    3.2690 N.3   253  ILE253     -0.1231
     99  CA        -6.8120   -6.4170    1.9880 C.3   253  ILE253      0.1692
    100  C         -5.8890   -7.6220    1.7790 C.2   253  ILE253      0.2591
    101  O         -5.8010   -8.1770    0.6720 O.2   253  ILE253     -0.2718
    102  CB        -6.0000   -5.1070    1.8970 C.3   253  ILE253      0.0266
    103  CG1       -6.9220   -3.8980    2.0670 C.3   253  ILE253      0.0019
    104  CG2       -5.2600   -5.0230    0.5720 C.3   253  ILE253      0.0020
    105  CD1       -6.1900   -2.5810    2.1790 C.3   253  ILE253      0.0001
    106  N         -5.2160   -8.0330    2.8510 N.am  254  LEU254     -0.1980
    107  CA        -4.3800   -9.2280    2.8040 C.3   254  LEU254      0.1596
    108  C         -5.2220  -10.4560    2.4720 C.2   254  LEU254      0.2287
    109  O         -4.8100  -11.3160    1.6850 O.2   254  LEU254     -0.2864
    110  CB        -3.6400   -9.4260    4.1260 C.3   254  LEU254      0.0297
    111  CG        -2.5450   -8.3980    4.4190 C.3   254  LEU254      0.0022
    112  CD1       -1.8040   -8.7460    5.7010 C.3   254  LEU254      0.0001
    113  CD2       -1.5790   -8.2940    3.2460 C.3   254  LEU254      0.0001
@<TRIPOS>BOND
     1    54    53    1
     2    53    50    1
     3    42    43    1
     4   104   102    1
     5    49    50    1
     6    49    44   am
     7   101   100    2
     8    50    51    1
     9    47    46    1
    10    46    43    1
    11    46    48    1
    12    51    52    2
    13    43    44    1
    14   109   108    2
    15    44    45    2
    16   100    99    1
    17   100   106   am
    18   102    99    1
    19   102   103    1
    20    99    98    1
    21   103   105    1
    22   108   107    1
    23   107   106    1
    24   107   110    1
    25   113   111    1
    26   110   111    1
    27   111   112    1
    28    88    87    1
    29    92    91    2
    30    86    85    2
    31    96    95    2
    32    67    69   ar
    33    67    65   ar
    34    91    90    1
    35    91    93   am
    36    90    89    1
    37    69    68   ar
    38    85    89   am
    39    85    84    1
    40    95    94    1
    41    87    84    1
    42    65    64   ar
    43    84    83    1
    44    93    94    1
    45    94    97    1
    46    68    66   ar
    47    64    66   ar
    48    64    63    1
    49    82    81    2
    50    83    81   am
    51    81    80    1
    52    63    60    1
    53    25    23    1
    54    62    61    2
    55    60    61    1
    56    60    59    1
    57    61    70   am
    58    80    79    1
    59    24    22    1
    60    23    22    1
    61    79    72   am
    62    22    19    1
    63    73    72    2
    64    33    31    1
    65    72    71    1
    66    70    71    1
    67    71    74    1
    68    31    32    1
    69    31    30    1
    70    58    57    2
    71    56    55    1
    72    56    57    1
    73    19    20    1
    74    19    18    1
    75     8     6    1
    76    20    26   am
    77    20    21    2
    78    18    16   am
    79    26    27    1
    80    74    75    1
    81    30    27    1
    82    27    28    1
    83     5     7    1
    84     5     6    1
    85     5     2    1
    86    75    76    1
    87    16    15    1
    88    16    17    2
    89     3     2    1
    90     3     4    2
    91     1     2    1
    92    15    14    1
    93    28    29    2
    94    28    34   am
    95    76    77    1
    96    34    35    1
    97    14    11   am
    98    12    11    2
    99    77    78    1
   100    11    10    1
   101    35    36    1
   102    35    38    1
   103    36    37    2
   104    38    39    1
   105    10     9    1
   106    10    13    1
   107    39    40   ar
   108    39    41   ar
