@<TRIPOS>MOLECULE
tmp/4c9jB01.pdb
 127 122 0 0 0
SMALL
GASTEIGER

@<TRIPOS>ATOM
      1  N         35.2890    4.9230  206.5300 N.3    13  ALA13      -0.1245
      2  CA        35.4450    3.8070  207.4570 C.3    13  ALA13       0.1562
      3  C         34.2300    3.6560  208.3620 C.2    13  ALA13       0.2260
      4  O         33.7170    2.5560  208.5360 O.2    13  ALA13      -0.2867
      5  CB        36.7030    3.9810  208.2940 C.3    13  ALA13       0.0290
      6  N         31.5580    0.6690  208.1920 N.3    17  THR17      -0.1203
      7  CA        31.5480   -0.1400  209.4080 C.3    17  THR17       0.1994
      8  C         30.1520   -0.2390  210.0130 C.2    17  THR17       0.2617
      9  O         29.7420   -1.3020  210.4850 O.2    17  THR17      -0.2717
     10  CB        32.5080    0.4310  210.4730 C.3    17  THR17       0.1784
     11  OG1       33.8150    0.5850  209.9080 O.3    17  THR17      -0.2211
     12  CG2       32.5840   -0.4870  211.6840 C.3    17  THR17       0.0376
     13  N         29.4220    0.8720  209.9940 N.am   18  ALA18      -0.1979
     14  CA        28.0830    0.9020  210.5710 C.3    18  ALA18       0.1597
     15  C         27.1140   -0.0170  209.8240 C.2    18  ALA18       0.2287
     16  O         26.2040   -0.5910  210.4230 O.2    18  ALA18      -0.2864
     17  CB        27.5520    2.3250  210.5890 C.3    18  ALA18       0.0319
     18  N         28.2390  -12.1130  217.5550 N.3    61  LEU61      -0.1231
     19  CA        27.8700  -10.7610  217.1440 C.3    61  LEU61       0.1693
     20  C         28.9790  -10.0550  216.3660 C.2    61  LEU61       0.2591
     21  O         28.7140   -9.3860  215.3680 O.2    61  LEU61      -0.2718
     22  CB        27.4860   -9.9230  218.3650 C.3    61  LEU61       0.0284
     23  CG        26.9510   -8.5190  218.0740 C.3    61  LEU61       0.0019
     24  CD1       25.5230   -8.5890  217.5600 C.3    61  LEU61       0.0001
     25  CD2       27.0430   -7.6360  219.3070 C.3    61  LEU61       0.0001
     26  N         30.2170  -10.1950  216.8280 N.am   62  ILE62      -0.1980
     27  CA        31.3460   -9.5210  216.1910 C.3    62  ILE62       0.1595
     28  C         31.5860  -10.0410  214.7760 C.2    62  ILE62       0.2287
     29  O         32.1200   -9.3280  213.9210 O.2    62  ILE62      -0.2864
     30  CB        32.6380   -9.6830  217.0150 C.3    62  ILE62       0.0276
     31  CG1       32.9450  -11.1630  217.2520 C.3    62  ILE62       0.0022
     32  CG2       32.5170   -8.9420  218.3380 C.3    62  ILE62       0.0022
     33  CD1       34.3300  -11.4190  217.8120 C.3    62  ILE62       0.0001
     34  N         30.8910   -8.2760  211.4780 N.3    65  TRP65      -0.1227
     35  CA        31.8330   -7.3350  210.8840 C.3    65  TRP65       0.1737
     36  C         32.9940   -8.0570  210.2100 C.2    65  TRP65       0.2595
     37  O         34.0380   -7.4620  209.9640 O.2    65  TRP65      -0.2718
     38  CB        32.3720   -6.3660  211.9400 C.3    65  TRP65       0.0564
     39  CG        31.3910   -5.3180  212.3580 C.ar   65  TRP65       0.0003
     40  CD1       31.2370   -4.0770  211.8130 C.ar   65  TRP65       0.0946
     41  CD2       30.4230   -5.4140  213.4110 C.ar   65  TRP65       0.0152
     42  NE1       30.2350   -3.3950  212.4600 N.ar   65  TRP65      -0.2442
     43  CE2       29.7200   -4.1970  213.4460 C.ar   65  TRP65       0.0810
     44  CE3       30.0860   -6.4170  214.3270 C.ar   65  TRP65       0.0012
     45  CZ2       28.6970   -3.9500  214.3590 C.ar   65  TRP65       0.0191
     46  CZ3       29.0720   -6.1700  215.2340 C.ar   65  TRP65       0.0001
     47  CH2       28.3890   -4.9480  215.2430 C.ar   65  TRP65       0.0015
     48  N         32.7990   -9.3320  209.8880 N.am   66  ARG66      -0.1966
     49  CA        33.8540  -10.1370  209.2790 C.3    66  ARG66       0.1729
     50  C         34.1690   -9.6810  207.8560 C.2    66  ARG66       0.2617
     51  O         33.2960   -9.6680  206.9890 O.2    66  ARG66      -0.2715
     52  CB        33.4600  -11.6150  209.2760 C.3    66  ARG66       0.0348
     53  CG        34.5260  -12.5490  208.7290 C.3    66  ARG66       0.0492
     54  CD        34.1590  -14.0000  208.9870 C.3    66  ARG66       0.2205
     55  NE        35.0640  -14.9300  208.3190 N.pl3  66  ARG66      -0.0865
     56  CZ        36.1770  -15.4130  208.8610 C.cat  66  ARG66       0.5346
     57  NH1       36.5300  -15.0570  210.0880 N.pl3  66  ARG66       0.1354
     58  NH2       36.9370  -16.2550  208.1750 N.pl3  66  ARG66       0.1354
     59  N         35.4230   -9.3060  207.6260 N.am   67  GLY67      -0.1940
     60  CA        35.8580   -8.8570  206.3170 C.3    67  GLY67       0.2014
     61  C         35.8620   -7.3470  206.1690 C.2    67  GLY67       0.2639
     62  O         36.2860   -6.8210  205.1410 O.2    67  GLY67      -0.2714
     63  N         35.3970   -6.6510  207.2030 N.am   68  ASN68      -0.1958
     64  CA        35.2770   -5.1950  207.1720 C.3    68  ASN68       0.1819
     65  C         36.6190   -4.4890  206.9890 C.2    68  ASN68       0.2621
     66  O         36.6790   -3.3620  206.4860 O.2    68  ASN68      -0.2715
     67  CB        34.6070   -4.6970  208.4530 C.3    68  ASN68       0.1195
     68  CG        34.2340   -3.2320  208.3830 C.2    68  ASN68       0.2630
     69  OD1       33.8690   -2.7230  207.3240 O.2    68  ASN68      -0.2716
     70  ND2       34.3280   -2.5440  209.5130 N.am   68  ASN68      -0.0877
     71  N         37.6900   -5.1610  207.4030 N.am   69  THR69      -0.1951
     72  CA        39.0360   -4.6160  207.2850 C.3    69  THR69       0.1897
     73  C         39.3430   -4.2840  205.8310 C.2    69  THR69       0.2313
     74  O         39.9530   -3.2580  205.5350 O.2    69  THR69      -0.2863
     75  CB        40.0960   -5.5980  207.8230 C.3    69  THR69       0.1794
     76  OG1       39.7360   -6.0210  209.1440 O.3    69  THR69      -0.2208
     77  CG2       41.4650   -4.9390  207.8620 C.3    69  THR69       0.0378
     78  N         37.7630   -1.1040  204.9530 N.3    72  VAL72      -0.1231
     79  CA        38.4600    0.0270  205.5560 C.3    72  VAL72       0.1692
     80  C         39.7180    0.3830  204.7670 C.2    72  VAL72       0.2591
     81  O         39.9850    1.5550  204.4980 O.2    72  VAL72      -0.2718
     82  CB        38.8410   -0.2610  207.0230 C.3    72  VAL72       0.0266
     83  CG1       39.6220    0.9050  207.6120 C.3    72  VAL72       0.0020
     84  CG2       37.5950   -0.5410  207.8510 C.3    72  VAL72       0.0020
     85  N         40.4840   -0.6380  204.3930 N.am   73  ILE73      -0.1980
     86  CA        41.7310   -0.4390  203.6620 C.3    73  ILE73       0.1595
     87  C         41.4850   -0.0030  202.2160 C.2    73  ILE73       0.2287
     88  O         42.2830    0.7340  201.6360 O.2    73  ILE73      -0.2864
     89  CB        42.5850   -1.7290  203.6690 C.3    73  ILE73       0.0276
     90  CG1       42.8540   -2.1830  205.1040 C.3    73  ILE73       0.0022
     91  CG2       43.9040   -1.5180  202.9370 C.3    73  ILE73       0.0022
     92  CD1       43.6030   -3.4920  205.1990 C.3    73  ILE73       0.0001
     93  N         35.6440  -13.5410  202.6560 N.3   124  LEU124     -0.1245
     94  CA        35.6400  -13.5240  204.1170 C.3   124  LEU124      0.1561
     95  C         34.2260  -13.3880  204.6700 C.2   124  LEU124      0.2260
     96  O         33.9200  -13.9000  205.7450 O.2   124  LEU124     -0.2867
     97  CB        36.5220  -12.3940  204.6520 C.3   124  LEU124      0.0270
     98  CG        38.0260  -12.6720  204.6740 C.3   124  LEU124      0.0019
     99  CD1       38.7860  -11.4730  205.2190 C.3   124  LEU124      0.0001
    100  CD2       38.3170  -13.9160  205.4950 C.3   124  LEU124      0.0001
    101  N         41.2990  -18.2260  207.3020 N.3   136  ASN136     -0.1225
    102  CA        41.6640  -17.7230  208.6220 C.3   136  ASN136      0.1785
    103  C         41.6200  -16.2010  208.6970 C.2   136  ASN136      0.2598
    104  O         41.3610  -15.6330  209.7570 O.2   136  ASN136     -0.2718
    105  CB        43.0550  -18.2220  209.0170 C.3   136  ASN136      0.1169
    106  CG        43.1100  -19.7280  209.1740 C.2   136  ASN136      0.2627
    107  OD1       42.1230  -20.3610  209.5520 O.2   136  ASN136     -0.2716
    108  ND2       44.2670  -20.3120  208.8830 N.am  136  ASN136     -0.0877
    109  N         41.8720  -15.5430  207.5710 N.am  137  GLY137     -0.1942
    110  CA        41.8650  -14.0920  207.5290 C.3   137  GLY137      0.2014
    111  C         42.0430  -13.5250  206.1350 C.2   137  GLY137      0.2639
    112  O         41.8440  -14.2190  205.1410 O.2   137  GLY137     -0.2714
    113  N         42.4350  -12.2570  206.0690 N.am  138  LEU138     -0.1963
    114  CA        42.6390  -11.5690  204.7990 C.3   138  LEU138      0.1728
    115  C         43.8370  -12.1510  204.0530 C.2   138  LEU138      0.2616
    116  O         43.7270  -12.5940  202.8990 O.2   138  LEU138     -0.2715
    117  CB        42.8470  -10.0720  205.0450 C.3   138  LEU138      0.0311
    118  CG        42.7460   -9.1140  203.8590 C.3   138  LEU138      0.0022
    119  CD1       41.2910   -8.8360  203.5350 C.3   138  LEU138      0.0001
    120  CD2       43.4930   -7.8200  204.1480 C.3   138  LEU138      0.0001
    121  N         44.9810  -12.1510  204.7300 N.am  139  THR139     -0.1951
    122  CA        46.2130  -12.6720  204.1570 C.3   139  THR139      0.1897
    123  C         46.0760  -14.1540  203.8340 C.2   139  THR139      0.2313
    124  O         46.6830  -14.6410  202.8860 O.2   139  THR139     -0.2863
    125  CB        47.4070  -12.4680  205.1030 C.3   139  THR139      0.1794
    126  OG1       47.1170  -13.0550  206.3770 O.3   139  THR139     -0.2208
    127  CG2       47.6930  -10.9860  205.2880 C.3   139  THR139      0.0378
@<TRIPOS>BOND
     1    88    87    2
     2    87    86    1
     3    93    94    1
     4   124   123    2
     5   116   115    2
     6    91    89    1
     7   119   118    1
     8    86    89    1
     9    86    85    1
    10    89    90    1
    11   123   122    1
    12   118   120    1
    13   118   117    1
    14   115   121   am
    15   115   114    1
    16    94    97    1
    17    94    95    1
    18   122   121    1
    19   122   125    1
    20    85    80   am
    21    81    80    2
    22    97    98    1
    23    95    96    2
    24    98    99    1
    25    98   100    1
    26    80    79    1
    27   114   117    1
    28   114   113    1
    29    78    79    1
    30   125   127    1
    31   125   126    1
    32    90    92    1
    33   112   111    2
    34    62    61    2
    35    74    73    2
    36    79    82    1
    37    73    72    1
    38   113   111   am
    39   111   110    1
    40    61    60    1
    41    61    63   am
    42    60    59    1
    43    66    65    2
    44     1     2    1
    45    65    64    1
    46    65    71   am
    47    51    50    2
    48    82    83    1
    49    82    84    1
    50    64    63    1
    51    64    67    1
    52    72    71    1
    53    72    75    1
    54   101   102    1
    55    69    68    2
    56     2     5    1
    57     2     3    1
    58   110   109    1
    59   109   103   am
    60    59    50   am
    61    75    77    1
    62    75    76    1
    63    50    49    1
    64    58    56    1
    65     6     7    1
    66    55    56    2
    67    55    54    1
    68     3     4    2
    69    68    67    1
    70    68    70   am
    71   102   103    1
    72   102   105    1
    73   103   104    2
    74    53    54    1
    75    53    52    1
    76    56    57    1
    77   108   106   am
    78   105   106    1
    79   106   107    2
    80    52    49    1
    81    49    48    1
    82     7     8    1
    83     7    10    1
    84    15    16    2
    85    15    14    1
    86    48    36   am
    87    11    10    1
    88    37    36    2
    89    13     8   am
    90    13    14    1
    91     8     9    2
    92    36    35    1
    93    10    12    1
    94    14    17    1
    95    35    34    1
    96    35    38    1
    97    40    39   ar
    98    40    42   ar
    99    38    39    1
   100    39    41   ar
   101    42    43   ar
   102    41    43   ar
   103    41    44   ar
   104    43    45   ar
   105    29    28    2
   106    44    46   ar
   107    45    47   ar
   108    28    27    1
   109    46    47   ar
   110    21    20    2
   111    27    26    1
   112    27    30    1
   113    20    26   am
   114    20    19    1
   115    30    31    1
   116    30    32    1
   117    19    18    1
   118    19    22    1
   119    31    33    1
   120    24    23    1
   121    23    22    1
   122    23    25    1
