@<TRIPOS>MOLECULE
tmp/4c9kA02.pdb
 119 111 0 0 0
SMALL
GASTEIGER

@<TRIPOS>ATOM
      1  N         36.6750   23.9870   -0.4450 N.3    79  ILE79      -0.1231
      2  CA        35.8050   23.5410    0.6380 C.3    79  ILE79       0.1692
      3  C         34.6640   22.6520    0.1470 C.2    79  ILE79       0.2592
      4  O         33.7410   22.3420    0.8990 O.2    79  ILE79      -0.2718
      5  CB        35.2270   24.7250    1.4490 C.3    79  ILE79       0.0266
      6  CG1       34.3410   25.6100    0.5700 C.3    79  ILE79       0.0019
      7  CG2       36.3530   25.5470    2.0780 C.3    79  ILE79       0.0020
      8  CD1       33.2430   26.3340    1.3820 C.3    79  ILE79       0.0001
      9  N         34.7330   22.2550   -1.1200 N.am   80  TRP80      -0.1976
     10  CA        33.7220   21.3940   -1.7210 C.3    80  TRP80       0.1640
     11  C         34.4020   20.1360   -2.2580 C.2    80  TRP80       0.2290
     12  O         35.5760   20.1630   -2.6500 O.2    80  TRP80      -0.2864
     13  CB        33.1190   22.1200   -2.9120 C.3    80  TRP80       0.0576
     14  CG        31.6440   22.3820   -2.9020 C.ar   80  TRP80       0.0006
     15  CD1       30.7240   21.8780   -3.7790 C.ar   80  TRP80       0.0946
     16  CD2       30.9240   23.2620   -2.0260 C.ar   80  TRP80       0.0152
     17  NE1       29.4750   22.3720   -3.4900 N.ar   80  TRP80      -0.2442
     18  CE2       29.5680   23.2250   -2.4220 C.ar   80  TRP80       0.0810
     19  CE3       31.2890   24.0620   -0.9380 C.ar   80  TRP80       0.0012
     20  CZ2       28.5720   23.9650   -1.7660 C.ar   80  TRP80       0.0191
     21  CZ3       30.3020   24.7920   -0.2840 C.ar   80  TRP80       0.0001
     22  CH2       28.9580   24.7420   -0.7060 C.ar   80  TRP80       0.0015
     23  N         33.9620   26.6610   -7.3270 N.3    89  TYR89      -0.1241
     24  CA        33.2480   27.4230   -6.2930 C.3    89  TYR89       0.1605
     25  C         33.8130   28.8350   -6.1110 C.2    89  TYR89       0.2264
     26  O         35.0260   29.0240   -5.9880 O.2    89  TYR89      -0.2867
     27  CB        33.2930   26.6400   -4.9880 C.3    89  TYR89       0.0534
     28  CG        32.6080   27.2480   -3.7770 C.ar   89  TYR89      -0.0201
     29  CD1       33.3050   28.0830   -2.9060 C.ar   89  TYR89      -0.0009
     30  CD2       31.2920   26.9180   -3.4570 C.ar   89  TYR89      -0.0009
     31  CE1       32.6930   28.6130   -1.7570 C.ar   89  TYR89       0.0417
     32  CE2       30.6740   27.4370   -2.3200 C.ar   89  TYR89       0.0417
     33  CZ        31.3820   28.2830   -1.4730 C.ar   89  TYR89       0.1957
     34  OH        30.7770   28.7980   -0.3420 O.3    89  TYR89      -0.2866
     35  N         33.8190   32.6490    2.0590 N.3    94  THR94      -0.1218
     36  CA        34.0530   31.2400    2.3810 C.3    94  THR94       0.1862
     37  C         35.2680   30.6430    1.6740 C.2    94  THR94       0.2287
     38  O         35.7900   29.6190    2.1160 O.2    94  THR94      -0.2866
     39  CB        32.8190   30.3530    2.0780 C.3    94  THR94       0.1770
     40  OG1       32.2160   30.7680    0.8450 O.3    94  THR94      -0.2211
     41  CG2       31.7920   30.4430    3.2050 C.3    94  THR94       0.0375
     42  N         24.7980   22.9740   -3.9210 N.3   178  THR178     -0.1218
     43  CA        25.0020   22.1130   -2.7490 C.3   178  THR178      0.1862
     44  C         24.8020   20.6240   -3.0360 C.2   178  THR178      0.2287
     45  O         25.3740   19.7660   -2.3530 O.2   178  THR178     -0.2866
     46  CB        24.0630   22.5340   -1.6140 C.3   178  THR178      0.1770
     47  OG1       22.7060   22.3220   -2.0240 O.3   178  THR178     -0.2211
     48  CG2       24.2630   24.0020   -1.3000 C.3   178  THR178      0.0375
     49  N         26.6870   34.3970   -1.8790 N.3   243  LEU243     -0.1245
     50  CA        26.7950   33.5530   -0.6900 C.3   243  LEU243      0.1561
     51  C         25.6670   33.8300    0.2920 C.2   243  LEU243      0.2260
     52  O         25.1210   32.8970    0.8900 O.2   243  LEU243     -0.2867
     53  CB        28.1430   33.7420    0.0110 C.3   243  LEU243      0.0270
     54  CG        28.2580   32.8940    1.2910 C.3   243  LEU243      0.0019
     55  CD1       28.0960   31.4080    0.9780 C.3   243  LEU243      0.0001
     56  CD2       29.5580   33.1320    2.0250 C.3   243  LEU243      0.0001
     57  N         22.6960   32.1170   -0.9590 N.3   246  LEU246     -0.1231
     58  CA        22.8690   30.6750   -0.8240 C.3   246  LEU246      0.1693
     59  C         22.6040   30.2250    0.6110 C.2   246  LEU246      0.2592
     60  O         21.8460   29.2810    0.8500 O.2   246  LEU246     -0.2718
     61  CB        24.2750   30.2750   -1.2670 C.3   246  LEU246      0.0284
     62  CG        24.5220   28.7720   -1.3300 C.3   246  LEU246      0.0019
     63  CD1       23.5000   28.1200   -2.2440 C.3   246  LEU246      0.0001
     64  CD2       25.9430   28.4830   -1.8080 C.3   246  LEU246      0.0001
     65  N         23.2210   30.9100    1.5690 N.am  247  GLY247     -0.1957
     66  CA        23.0120   30.5880    2.9740 C.3   247  GLY247      0.1869
     67  C         21.5860   30.8550    3.4290 C.2   247  GLY247      0.2309
     68  O         20.9850   30.0540    4.1500 O.2   247  GLY247     -0.2863
     69  N         19.0050   27.9840    1.4540 N.3   250  ASP250     -0.1225
     70  CA        19.2140   26.5330    1.3900 C.3   250  ASP250      0.1805
     71  C         19.8990   25.9590    2.6340 C.2   250  ASP250      0.2598
     72  O         20.6370   24.9730    2.5730 O.2   250  ASP250     -0.2718
     73  CB        20.0030   26.1500    0.1350 C.3   250  ASP250      0.1424
     74  CG        19.9090   24.6640   -0.1820 C.2   250  ASP250      0.3668
     75  OD1       18.7780   24.1620   -0.3720 O.co2 250  ASP250     -0.2456
     76  OD2       20.9660   23.9980   -0.2410 O.co2 250  ASP250     -0.2456
     77  N         19.6580   26.5810    3.7700 N.am  251  THR251     -0.1953
     78  CA        20.0800   25.9910    5.0230 C.3   251  THR251      0.1897
     79  C         18.9110   25.6900    5.9470 C.2   251  THR251      0.2313
     80  O         18.6050   24.5230    6.2120 O.2   251  THR251     -0.2863
     81  CB        21.0590   26.9290    5.7110 C.3   251  THR251      0.1794
     82  OG1       20.4260   28.2060    5.8840 O.3   251  THR251     -0.2208
     83  CG2       22.2960   27.0950    4.8360 C.3   251  THR251      0.0378
     84  N         25.1520   20.3790    6.9980 N.3   294  VAL294     -0.1245
     85  CA        26.2940   20.7000    6.1420 C.3   294  VAL294      0.1561
     86  C         27.4210   19.6730    6.2420 C.2   294  VAL294      0.2260
     87  O         27.8520   19.3000    7.3410 O.2   294  VAL294     -0.2867
     88  CB        26.8930   22.0790    6.4880 C.3   294  VAL294      0.0252
     89  CG1       28.1500   22.3370    5.6540 C.3   294  VAL294      0.0019
     90  CG2       25.8640   23.1890    6.2740 C.3   294  VAL294      0.0019
     91  N         31.0240   19.9250    4.4230 N.3   296  ASP296     -0.1239
     92  CA        31.9510   20.5140    3.4610 C.3   296  ASP296      0.1674
     93  C         33.3850   20.2140    3.8480 C.2   296  ASP296      0.2266
     94  O         33.6300   19.3930    4.7260 O.2   296  ASP296     -0.2867
     95  CB        31.7050   22.0130    3.2470 C.3   296  ASP296      0.1410
     96  CG        31.9500   22.8410    4.4870 C.2   296  ASP296      0.3668
     97  OD1       32.4290   22.3120    5.5230 O.co2 296  ASP296     -0.2456
     98  OD2       31.6630   24.0520    4.4180 O.co2 296  ASP296     -0.2456
     99  N         29.3490   30.1050   11.2320 N.3   356  CYS356     -0.1235
    100  CA        28.2190   30.6620   10.4880 C.3   356  CYS356      0.1677
    101  C         27.8900   32.1070   10.8190 C.2   356  CYS356      0.2270
    102  O         27.6460   32.4560   11.9790 O.2   356  CYS356     -0.2867
    103  CB        26.9750   29.7990   10.7080 C.3   356  CYS356      0.0956
    104  SG        25.5130   30.4540    9.9030 S.3   356  CYS356     -0.0801
    105  N         26.6100   18.3420   -0.0690 N.3   394  ILE394     -0.1231
    106  CA        27.2550   19.3660    0.7400 C.3   394  ILE394      0.1692
    107  C         26.2460   19.9090    1.7550 C.2   394  ILE394      0.2591
    108  O         26.5900   20.1760    2.9100 O.2   394  ILE394     -0.2718
    109  CB        27.8290   20.4970   -0.1310 C.3   394  ILE394      0.0266
    110  CG1       28.7900   19.9210   -1.1690 C.3   394  ILE394      0.0019
    111  CG2       28.5680   21.5220    0.7300 C.3   394  ILE394      0.0020
    112  CD1       30.0140   19.2290   -0.5540 C.3   394  ILE394      0.0001
    113  N         25.0040   20.0820    1.3160 N.am  395  VAL395     -0.1980
    114  CA        23.9010   20.3670    2.2330 C.3   395  VAL395      0.1595
    115  C         22.8130   19.3060    2.0620 C.2   395  VAL395      0.2287
    116  O         22.3700   19.0330    0.9410 O.2   395  VAL395     -0.2864
    117  CB        23.2770   21.7610    2.0080 C.3   395  VAL395      0.0276
    118  CG1       22.1570   21.9920    3.0260 C.3   395  VAL395      0.0022
    119  CG2       24.3360   22.8610    2.1360 C.3   395  VAL395      0.0022
@<TRIPOS>BOND
     1    23    24    1
     2    24    25    1
     3    24    27    1
     4    25    26    2
     5    27    28    1
     6    42    43    1
     7    15    17   ar
     8    15    14   ar
     9    28    30   ar
    10    28    29   ar
    11    17    18   ar
    12    30    32   ar
    13    44    43    1
    14    44    45    2
    15    13    14    1
    16    13    10    1
    17    29    31   ar
    18    14    16   ar
    19    43    46    1
    20    12    11    2
    21    18    16   ar
    22    18    20   ar
    23    32    33   ar
    24    11    10    1
    25    63    62    1
    26    16    19   ar
    27    47    46    1
    28    49    50    1
    29    64    62    1
    30    20    22   ar
    31    31    33   ar
    32    10     9    1
    33    46    48    1
    34    33    34    1
    35    62    61    1
    36    61    58    1
    37   110   112    1
    38   110   109    1
    39     9     3   am
    40    57    58    1
    41    19    21   ar
    42    58    59    1
    43    22    21   ar
    44    50    53    1
    45    50    51    1
    46     1     2    1
    47    75    74   ar
    48    76    74   ar
    49    74    73    1
    50   109   111    1
    51   109   106    1
    52   105   106    1
    53    53    54    1
    54    73    70    1
    55     3     2    1
    56     3     4    2
    57    51    52    2
    58     6     8    1
    59     6     5    1
    60    59    60    2
    61    59    65   am
    62     2     5    1
    63   106   107    1
    64    40    39    1
    65   116   115    2
    66    55    54    1
    67    54    56    1
    68   113   107   am
    69   113   114    1
    70    70    69    1
    71    70    71    1
    72     5     7    1
    73    65    66    1
    74    37    38    2
    75    37    36    1
    76   107   108    2
    77   117   119    1
    78   117   114    1
    79   117   118    1
    80    35    36    1
    81   115   114    1
    82    39    36    1
    83    39    41    1
    84    72    71    2
    85    71    77   am
    86    66    67    1
    87    95    92    1
    88    95    96    1
    89    67    68    2
    90    92    93    1
    91    92    91    1
    92    77    78    1
    93    93    94    2
    94    98    96   ar
    95    96    97   ar
    96    83    81    1
    97    78    81    1
    98    78    79    1
    99    89    88    1
   100    81    82    1
   101    79    80    2
   102    85    86    1
   103    85    88    1
   104    85    84    1
   105    86    87    2
   106    90    88    1
   107   104   103    1
   108   100   103    1
   109   100   101    1
   110   100    99    1
   111   101   102    2
