@<TRIPOS>MOLECULE
tmp/4c9qB03.pdb
 137 131 0 0 0
SMALL
GASTEIGER

@<TRIPOS>ATOM
      1  N       -137.5840   -4.7170  164.7340 N.3    38  ILE38      -0.1245
      2  CA      -136.3360   -4.6540  165.4910 C.3    38  ILE38       0.1561
      3  C       -135.1350   -4.9190  164.5840 C.2    38  ILE38       0.2260
      4  O       -134.0850   -4.2880  164.7220 O.2    38  ILE38      -0.2867
      5  CB      -136.3320   -5.6630  166.6620 C.3    38  ILE38       0.0252
      6  CG1     -137.4310   -5.3180  167.6680 C.3    38  ILE38       0.0019
      7  CG2     -134.9810   -5.6800  167.3590 C.3    38  ILE38       0.0019
      8  CD1     -137.4910   -6.2590  168.8530 C.3    38  ILE38       0.0001
      9  N       -135.8000   -0.0780  172.0470 N.3    55  SER55      -0.1202
     10  CA      -135.0200   -0.5150  173.1980 C.3    55  SER55       0.2020
     11  C       -135.1020   -2.0270  173.3820 C.2    55  SER55       0.2619
     12  O       -134.2540   -2.6280  174.0400 O.2    55  SER55      -0.2717
     13  CB      -135.4950    0.1960  174.4670 C.3    55  SER55       0.2103
     14  OG      -134.6880   -0.1500  175.5780 O.3    55  SER55      -0.2182
     15  N       -136.1280   -2.6370  172.7960 N.am   56  GLY56      -0.1942
     16  CA      -136.3010   -4.0750  172.8790 C.3    56  GLY56       0.2014
     17  C       -137.6380   -4.5520  172.3450 C.2    56  GLY56       0.2639
     18  O       -138.3300   -3.8250  171.6320 O.2    56  GLY56      -0.2714
     19  N       -137.9990   -5.7810  172.6970 N.am   57  ILE57      -0.1963
     20  CA      -139.2500   -6.3820  172.2480 C.3    57  ILE57       0.1727
     21  C       -140.4570   -5.7010  172.8880 C.2    57  ILE57       0.2616
     22  O       -141.4290   -5.3630  172.2070 O.2    57  ILE57      -0.2715
     23  CB      -139.2920   -7.8900  172.5690 C.3    57  ILE57       0.0290
     24  CG1     -138.1370   -8.6160  171.8770 C.3    57  ILE57       0.0022
     25  CG2     -140.6260   -8.4910  172.1570 C.3    57  ILE57       0.0023
     26  CD1     -138.0940  -10.1010  172.1590 C.3    57  ILE57       0.0001
     27  N       -140.3820   -5.5010  174.2000 N.am   58  VAL58      -0.1977
     28  CA      -141.4590   -4.8650  174.9490 C.3    58  VAL58       0.1596
     29  C       -141.7010   -3.4360  174.4680 C.2    58  VAL58       0.2287
     30  O       -142.8450   -3.0300  174.2550 O.2    58  VAL58      -0.2864
     31  CB      -141.1560   -4.8520  176.4600 C.3    58  VAL58       0.0276
     32  CG1     -142.2600   -4.1360  177.2200 C.3    58  VAL58       0.0022
     33  CG2     -140.9850   -6.2720  176.9770 C.3    58  VAL58       0.0022
     34  N       -127.1690  -30.8840  163.0390 N.3   190  MET190     -0.1245
     35  CA      -127.5020  -30.8730  164.4600 C.3   190  MET190      0.1570
     36  C       -128.5260  -31.9490  164.8000 C.2   190  MET190      0.2261
     37  O       -128.4330  -32.5930  165.8450 O.2   190  MET190     -0.2867
     38  CB      -128.0280  -29.5010  164.8840 C.3   190  MET190      0.0387
     39  CG      -126.9600  -28.4260  164.9830 C.3   190  MET190      0.0595
     40  SD      -127.6060  -26.8780  165.6410 S.3   190  MET190     -0.1393
     41  CE      -126.1150  -25.8880  165.7000 C.3   190  MET190      0.0692
     42  N       -137.1450  -28.1630  168.7020 N.3   208  TRP208     -0.1227
     43  CA      -137.0440  -26.7540  169.0550 C.3   208  TRP208      0.1737
     44  C       -135.5870  -26.3420  169.2160 C.2   208  TRP208      0.2595
     45  O       -135.2060  -25.2400  168.8310 O.2   208  TRP208     -0.2718
     46  CB      -137.8130  -26.4490  170.3400 C.3   208  TRP208      0.0564
     47  CG      -137.5230  -25.0760  170.8640 C.ar  208  TRP208      0.0003
     48  CD1     -138.0180  -23.8970  170.3880 C.ar  208  TRP208      0.0946
     49  CD2     -136.6580  -24.7370  171.9550 C.ar  208  TRP208      0.0152
     50  NE1     -137.5180  -22.8450  171.1160 N.ar  208  TRP208     -0.2442
     51  CE2     -136.6820  -23.3340  172.0860 C.ar  208  TRP208      0.0810
     52  CE3     -135.8680  -25.4820  172.8350 C.ar  208  TRP208      0.0012
     53  CZ2     -135.9480  -22.6620  173.0610 C.ar  208  TRP208      0.0191
     54  CZ3     -135.1400  -24.8130  173.8030 C.ar  208  TRP208      0.0001
     55  CH2     -135.1850  -23.4170  173.9080 C.ar  208  TRP208      0.0015
     56  N       -134.7790  -27.2240  169.7950 N.am  209  VAL209     -0.1980
     57  CA      -133.3580  -26.9440  169.9780 C.3   209  VAL209      0.1595
     58  C       -132.6620  -26.8140  168.6280 C.2   209  VAL209      0.2287
     59  O       -131.9430  -25.8410  168.3770 O.2   209  VAL209     -0.2864
     60  CB      -132.6620  -28.0390  170.8130 C.3   209  VAL209      0.0276
     61  CG1     -131.1490  -27.9190  170.7020 C.3   209  VAL209      0.0022
     62  CG2     -133.1050  -27.9620  172.2670 C.3   209  VAL209      0.0022
     63  N       -133.8570  -23.6940  166.8020 N.3   212  THR212     -0.1203
     64  CA      -133.3190  -22.4980  167.4390 C.3   212  THR212      0.1994
     65  C       -131.8600  -22.2790  167.0640 C.2   212  THR212      0.2618
     66  O       -131.4750  -21.1770  166.6760 O.2   212  THR212     -0.2717
     67  CB      -133.4370  -22.5740  168.9740 C.3   212  THR212      0.1784
     68  OG1     -134.8190  -22.6380  169.3480 O.3   212  THR212     -0.2211
     69  CG2     -132.7990  -21.3550  169.6210 C.3   212  THR212      0.0376
     70  N       -131.0550  -23.3320  167.1670 N.am  213  GLY213     -0.1956
     71  CA      -129.6420  -23.2340  166.8470 C.3   213  GLY213      0.1869
     72  C       -129.4030  -22.9060  165.3850 C.2   213  GLY213      0.2309
     73  O       -128.6680  -21.9650  165.0530 O.2   213  GLY213     -0.2863
     74  N       -130.5480  -19.4720  164.5080 N.3   216  THR216     -0.1203
     75  CA      -129.7120  -18.4700  165.1570 C.3   216  THR216      0.1994
     76  C       -128.4120  -18.2630  164.3910 C.2   216  THR216      0.2618
     77  O       -127.9870  -17.1290  164.1700 O.2   216  THR216     -0.2717
     78  CB      -129.3760  -18.8560  166.6100 C.3   216  THR216      0.1784
     79  OG1     -130.5870  -19.0010  167.3620 O.3   216  THR216     -0.2211
     80  CG2     -128.5070  -17.7900  167.2580 C.3   216  THR216      0.0376
     81  N       -127.7870  -19.3610  163.9780 N.am  217  CYS217     -0.1969
     82  CA      -126.5080  -19.2740  163.2800 C.3   217  CYS217      0.1712
     83  C       -126.6430  -18.7230  161.8590 C.2   217  CYS217      0.2296
     84  O       -125.7170  -18.1020  161.3390 O.2   217  CYS217     -0.2864
     85  CB      -125.8310  -20.6450  163.2420 C.3   217  CYS217      0.0983
     86  SG      -125.4750  -21.3500  164.8670 S.3   217  CYS217     -0.0798
     87  N       -122.8950   -7.4260  166.3630 N.3   255  GLY255     -0.1225
     88  CA      -124.1290   -7.6570  167.0930 C.3   255  GLY255      0.1811
     89  C       -125.3660   -7.1510  166.3750 C.2   255  GLY255      0.2280
     90  O       -126.4670   -7.6690  166.5730 O.2   255  GLY255     -0.2866
     91  N       -127.6700   -9.5140  164.6620 N.3   258  PHE258     -0.1227
     92  CA      -128.5270  -10.4030  165.4420 C.3   258  PHE258      0.1736
     93  C       -129.7350   -9.7040  166.0610 C.2   258  PHE258      0.2595
     94  O       -130.2890  -10.1820  167.0500 O.2   258  PHE258     -0.2718
     95  CB      -127.7100  -11.0840  166.5400 C.3   258  PHE258      0.0547
     96  CG      -126.6650  -12.0260  166.0190 C.ar  258  PHE258     -0.0202
     97  CD1     -126.9770  -13.3500  165.7590 C.ar  258  PHE258     -0.0042
     98  CD2     -125.3710  -11.5880  165.7850 C.ar  258  PHE258     -0.0042
     99  CE1     -126.0200  -14.2210  165.2770 C.ar  258  PHE258     -0.0003
    100  CE2     -124.4090  -12.4550  165.3030 C.ar  258  PHE258     -0.0003
    101  CZ      -124.7340  -13.7730  165.0490 C.ar  258  PHE258     -0.0000
    102  N       -130.1450   -8.5810  165.4840 N.am  259  LYS259     -0.1966
    103  CA      -131.3260   -7.8730  165.9680 C.3   259  LYS259      0.1728
    104  C       -132.6130   -8.6100  165.6030 C.2   259  LYS259      0.2617
    105  O       -132.9060   -8.8160  164.4260 O.2   259  LYS259     -0.2715
    106  CB      -131.3650   -6.4500  165.4090 C.3   259  LYS259      0.0311
    107  CG      -130.2400   -5.5520  165.8990 C.3   259  LYS259      0.0038
    108  CD      -130.4880   -4.1040  165.5070 C.3   259  LYS259      0.0206
    109  CE      -129.2870   -3.2290  165.8210 C.3   259  LYS259      0.1093
    110  NZ      -129.5060   -1.8180  165.3990 N.3   259  LYS259     -0.1314
    111  N       -133.3760   -9.0050  166.6180 N.am  260  GLY260     -0.1940
    112  CA      -134.6530   -9.6640  166.4040 C.3   260  GLY260      0.2014
    113  C       -134.6080  -11.1810  166.3900 C.2   260  GLY260      0.2639
    114  O       -135.6080  -11.8290  166.0860 O.2   260  GLY260     -0.2714
    115  N       -133.4530  -11.7520  166.7170 N.am  261  CYS261     -0.1953
    116  CA      -133.2870  -13.2040  166.7200 C.3   261  CYS261      0.1843
    117  C       -134.1480  -13.8760  167.7930 C.2   261  CYS261      0.2626
    118  O       -134.7910  -14.8990  167.5380 O.2   261  CYS261     -0.2714
    119  CB      -131.8120  -13.5660  166.9200 C.3   261  CYS261      0.0997
    120  SG      -131.4260  -15.3190  166.7340 S.3   261  CYS261     -0.0797
    121  N       -134.1610  -13.2950  168.9890 N.am  262  GLY262     -0.1940
    122  CA      -134.9660  -13.8130  170.0820 C.3   262  GLY262      0.2014
    123  C       -136.4470  -13.7300  169.7680 C.2   262  GLY262      0.2638
    124  O       -137.2190  -14.6310  170.1060 O.2   262  GLY262     -0.2714
    125  N       -136.8410  -12.6420  169.1130 N.am  263  ALA263     -0.1977
    126  CA      -138.2170  -12.4740  168.6650 C.3   263  ALA263      0.1597
    127  C       -138.5600  -13.5400  167.6310 C.2   263  ALA263      0.2287
    128  O       -139.7010  -13.9930  167.5430 O.2   263  ALA263     -0.2864
    129  CB      -138.4280  -11.0820  168.0900 C.3   263  ALA263      0.0319
    130  N       -137.2100  -16.5550  167.6450 N.3   265  ILE265     -0.1245
    131  CA      -137.3680  -17.7750  168.4320 C.3   265  ILE265      0.1561
    132  C       -138.7650  -17.8360  169.0510 C.2   265  ILE265      0.2260
    133  O       -139.4230  -18.8850  169.0430 O.2   265  ILE265     -0.2867
    134  CB      -136.3060  -17.8720  169.5450 C.3   265  ILE265      0.0252
    135  CG1     -134.9010  -17.7930  168.9450 C.3   265  ILE265      0.0019
    136  CG2     -136.4720  -19.1590  170.3340 C.3   265  ILE265      0.0019
    137  CD1     -133.7970  -17.7810  169.9750 C.3   265  ILE265      0.0001
@<TRIPOS>BOND
     1    84    83    2
     2    83    82    1
     3    34    35    1
     4    85    82    1
     5    85    86    1
     6    82    81    1
     7    81    76   am
     8    77    76    2
     9    76    75    1
    10   105   104    2
    11    35    36    1
    12    35    38    1
    13    74    75    1
    14     3     4    2
    15     3     2    1
    16    91    92    1
    17     1     2    1
    18    36    37    2
    19    38    39    1
    20    39    40    1
    21   101    99   ar
    22   101   100   ar
    23    73    72    2
    24    75    78    1
    25    99    97   ar
    26   100    98   ar
    27    72    71    1
    28   110   109    1
    29   106   107    1
    30   106   103    1
    31    92    93    1
    32    92    95    1
    33   102   103    1
    34   102    93   am
    35     2     5    1
    36   108   109    1
    37   108   107    1
    38   104   103    1
    39   104   111   am
    40    40    41    1
    41    97    96   ar
    42    98    96   ar
    43    96    95    1
    44    93    94    2
    45   114   113    2
    46    87    88    1
    47    89    90    2
    48    89    88    1
    49   113   112    1
    50   113   115   am
    51   112   111    1
    52    78    80    1
    53    78    79    1
    54     5     7    1
    55     5     6    1
    56    66    65    2
    57   115   116    1
    58   116   119    1
    59   116   117    1
    60   120   119    1
    61    63    64    1
    62    71    70    1
    63    65    70   am
    64    65    64    1
    65    64    67    1
    66   118   117    2
    67   128   127    2
    68   127   126    1
    69   130   131    1
    70     6     8    1
    71   117   121   am
    72   129   126    1
    73    59    58    2
    74   131   132    1
    75   131   134    1
    76    58    57    1
    77   126   125    1
    78    42    43    1
    79    45    44    2
    80   135   134    1
    81   135   137    1
    82    67    68    1
    83    67    69    1
    84   121   122    1
    85   133   132    2
    86    43    44    1
    87    43    46    1
    88   125   123   am
    89    44    56   am
    90   134   136    1
    91   123   122    1
    92   123   124    2
    93    56    57    1
    94    57    60    1
    95    46    47    1
    96    48    47   ar
    97    48    50   ar
    98    61    60    1
    99    60    62    1
   100    47    49   ar
   101    50    51   ar
   102    18    17    2
   103    24    26    1
   104    24    23    1
   105    49    51   ar
   106    49    52   ar
   107     9    10    1
   108    51    53   ar
   109    25    23    1
   110    22    21    2
   111    20    23    1
   112    20    19    1
   113    20    21    1
   114    17    19   am
   115    17    16    1
   116    15    16    1
   117    15    11   am
   118    52    54   ar
   119    21    27   am
   120    53    55   ar
   121    10    11    1
   122    10    13    1
   123    11    12    2
   124    54    55   ar
   125    27    28    1
   126    30    29    2
   127    13    14    1
   128    29    28    1
   129    28    31    1
   130    31    33    1
   131    31    32    1
