@<TRIPOS>MOLECULE
tmp/4c9qA02.pdb
 112 106 0 0 0
SMALL
GASTEIGER

@<TRIPOS>ATOM
      1  N       -111.4610   -4.8520  122.1990 N.3    37  ILE37      -0.1245
      2  CA      -112.7200   -4.7900  121.4630 C.3    37  ILE37       0.1561
      3  C       -113.9100   -5.0390  122.3880 C.2    37  ILE37       0.2260
      4  O       -114.9540   -4.3990  122.2620 O.2    37  ILE37      -0.2867
      5  CB      -112.7450   -5.8140  120.3040 C.3    37  ILE37       0.0252
      6  CG1     -111.6540   -5.4930  119.2820 C.3    37  ILE37       0.0019
      7  CG2     -114.1060   -5.8340  119.6250 C.3    37  ILE37       0.0019
      8  CD1     -111.6170   -6.4500  118.1110 C.3    37  ILE37       0.0001
      9  N       -113.1180   -0.3890  114.8000 N.3    54  SER54      -0.1202
     10  CA      -113.8830   -0.8340  113.6410 C.3    54  SER54       0.2020
     11  C       -113.8210   -2.3480  113.4770 C.2    54  SER54       0.2619
     12  O       -114.6660   -2.9420  112.8060 O.2    54  SER54      -0.2717
     13  CB      -113.3760   -0.1470  112.3720 C.3    54  SER54       0.2103
     14  OG      -114.1670   -0.5000  111.2510 O.3    54  SER54      -0.2182
     15  N       -112.8200   -2.9700  114.0910 N.am   55  GLY55      -0.1942
     16  CA      -112.6790   -4.4120  114.0300 C.3    55  GLY55       0.2014
     17  C       -111.3700   -4.9310  114.5910 C.2    55  GLY55       0.2639
     18  O       -110.6660   -4.2230  115.3110 O.2    55  GLY55      -0.2714
     19  N       -111.0470   -6.1760  114.2560 N.am   56  ILE56      -0.1963
     20  CA      -109.8230   -6.8140  114.7270 C.3    56  ILE56       0.1727
     21  C       -108.5950   -6.1760  114.0870 C.2    56  ILE56       0.2616
     22  O       -107.6180   -5.8650  114.7690 O.2    56  ILE56      -0.2715
     23  CB      -109.8240   -8.3250  114.4270 C.3    56  ILE56       0.0290
     24  CG1     -111.0110   -9.0030  115.1130 C.3    56  ILE56       0.0022
     25  CG2     -108.5140   -8.9590  114.8680 C.3    56  ILE56       0.0023
     26  CD1     -111.0990  -10.4910  114.8520 C.3    56  ILE56       0.0001
     27  N       -108.6540   -5.9880  112.7720 N.am   57  VAL57      -0.1977
     28  CA      -107.5580   -5.3790  112.0290 C.3    57  VAL57       0.1596
     29  C       -107.3080   -3.9520  112.5070 C.2    57  VAL57       0.2287
     30  O       -106.1650   -3.5510  112.7300 O.2    57  VAL57      -0.2864
     31  CB      -107.8410   -5.3680  110.5140 C.3    57  VAL57       0.0276
     32  CG1     -106.7170   -4.6690  109.7670 C.3    57  VAL57       0.0022
     33  CG2     -108.0290   -6.7870  110.0010 C.3    57  VAL57       0.0022
     34  N       -115.3410  -23.7830  120.5260 N.3   210  THR210     -0.1218
     35  CA      -115.9210  -22.5930  119.9160 C.3   210  THR210      0.1862
     36  C       -117.3760  -22.4070  120.3380 C.2   210  THR210      0.2287
     37  O       -117.7820  -21.3130  120.7280 O.2   210  THR210     -0.2866
     38  CB      -115.8440  -22.6510  118.3760 C.3   210  THR210      0.1770
     39  OG1     -114.4710  -22.6770  117.9660 O.3   210  THR210     -0.2211
     40  CG2     -116.5260  -21.4410  117.7590 C.3   210  THR210      0.0375
     41  N       -118.7470  -19.4940  122.9490 N.3   214  THR214     -0.1203
     42  CA      -119.5430  -18.4740  122.2750 C.3   214  THR214      0.1994
     43  C       -120.8560  -18.2160  123.0070 C.2   214  THR214      0.2618
     44  O       -121.2620  -17.0690  123.1900 O.2   214  THR214     -0.2717
     45  CB      -119.8500  -18.8700  120.8180 C.3   214  THR214      0.1784
     46  OG1     -118.6230  -19.0570  120.1020 O.3   214  THR214     -0.2211
     47  CG2     -120.6710  -17.7920  120.1310 C.3   214  THR214      0.0376
     48  N       -121.5190  -19.2900  123.4210 N.am  215  CYS215     -0.1969
     49  CA      -122.8060  -19.1760  124.0950 C.3   215  CYS215      0.1712
     50  C       -122.6460  -18.6190  125.5070 C.2   215  CYS215      0.2296
     51  O       -123.5490  -17.9680  126.0330 O.2   215  CYS215     -0.2864
     52  CB      -123.5070  -20.5330  124.1370 C.3   215  CYS215      0.0983
     53  SG      -123.8350  -21.2540  122.5120 S.3   215  CYS215     -0.0798
     54  N       -126.0330   -7.4150  120.6260 N.3   253  GLY253     -0.1225
     55  CA      -124.8020   -7.6630  119.8970 C.3   253  GLY253      0.1811
     56  C       -123.5560   -7.1730  120.6100 C.2   253  GLY253      0.2280
     57  O       -122.4630   -7.6970  120.3940 O.2   253  GLY253     -0.2866
     58  N       -121.3700   -9.5860  122.4160 N.3   256  PHE256     -0.1227
     59  CA      -120.5490  -10.5040  121.6380 C.3   256  PHE256      0.1736
     60  C       -119.3560   -9.8040  120.9940 C.2   256  PHE256      0.2595
     61  O       -118.8050  -10.2890  120.0090 O.2   256  PHE256     -0.2718
     62  CB      -121.3950  -11.1900  120.5630 C.3   256  PHE256      0.0547
     63  CG      -122.4540  -12.1030  121.1160 C.ar  256  PHE256     -0.0202
     64  CD1     -122.1670  -13.4300  121.3940 C.ar  256  PHE256     -0.0042
     65  CD2     -123.7350  -11.6350  121.3620 C.ar  256  PHE256     -0.0042
     66  CE1     -123.1370  -14.2720  121.9040 C.ar  256  PHE256     -0.0003
     67  CE2     -124.7100  -12.4730  121.8720 C.ar  256  PHE256     -0.0003
     68  CZ      -124.4100  -13.7930  122.1440 C.ar  256  PHE256     -0.0000
     69  N       -118.9560   -8.6680  121.5560 N.am  257  LYS257     -0.1966
     70  CA      -117.7830   -7.9550  121.0610 C.3   257  LYS257      0.1728
     71  C       -116.5030   -8.6880  121.4470 C.2   257  LYS257      0.2617
     72  O       -116.2200   -8.8820  122.6280 O.2   257  LYS257     -0.2715
     73  CB      -117.7480   -6.5220  121.5950 C.3   257  LYS257      0.0311
     74  CG      -118.8690   -5.6330  121.0840 C.3   257  LYS257      0.0038
     75  CD      -118.6160   -4.1770  121.4420 C.3   257  LYS257      0.0206
     76  CE      -119.8110   -3.3050  121.1020 C.3   257  LYS257      0.1093
     77  NZ      -119.5870   -1.8850  121.4860 N.3   257  LYS257     -0.1314
     78  N       -115.7360   -9.0950  120.4420 N.am  258  GLY258     -0.1940
     79  CA      -114.4720   -9.7680  120.6730 C.3   258  GLY258      0.2014
     80  C       -114.6150  -11.2760  120.6900 C.2   258  GLY258      0.2639
     81  O       -113.6620  -11.9920  120.9960 O.2   258  GLY258     -0.2714
     82  N       -115.8100  -11.7600  120.3650 N.am  259  CYS259     -0.1953
     83  CA      -116.0750  -13.1940  120.3470 C.3   259  CYS259      0.1843
     84  C       -115.2660  -13.8760  119.2490 C.2   259  CYS259      0.2626
     85  O       -114.6710  -14.9300  119.4680 O.2   259  CYS259     -0.2714
     86  CB      -117.5680  -13.4640  120.1520 C.3   259  CYS259      0.0997
     87  SG      -118.0420  -15.2010  120.3200 S.3   259  CYS259     -0.0797
     88  N       -115.2530  -13.2650  118.0680 N.am  260  GLY260     -0.1940
     89  CA      -114.4870  -13.7760  116.9470 C.3   260  GLY260      0.2014
     90  C       -112.9970  -13.7320  117.2220 C.2   260  GLY260      0.2638
     91  O       -112.2560  -14.6370  116.8380 O.2   260  GLY260     -0.2714
     92  N       -112.5600  -12.6680  117.8890 N.am  261  ALA261     -0.1977
     93  CA      -111.1660  -12.5300  118.2900 C.3   261  ALA261      0.1597
     94  C       -110.7790  -13.6160  119.2880 C.2   261  ALA261      0.2287
     95  O       -109.6330  -14.0660  119.3190 O.2   261  ALA261     -0.2864
     96  CB      -110.9190  -11.1510  118.8820 C.3   261  ALA261      0.0319
     97  N       -112.1070  -16.6840  119.3360 N.3   263  ILE263     -0.1231
     98  CA      -112.0070  -17.9250  118.5780 C.3   263  ILE263      0.1692
     99  C       -110.6290  -18.0470  117.9360 C.2   263  ILE263      0.2591
    100  O       -110.0260  -19.1210  117.9360 O.2   263  ILE263     -0.2718
    101  CB      -113.0950  -18.0110  117.4910 C.3   263  ILE263      0.0266
    102  CG1     -114.4820  -17.8590  118.1180 C.3   263  ILE263      0.0019
    103  CG2     -112.9940  -19.3250  116.7330 C.3   263  ILE263      0.0020
    104  CD1     -115.6110  -17.8320  117.1120 C.3   263  ILE263      0.0001
    105  N       -110.1360  -16.9380  117.3920 N.am  264  LEU264     -0.1980
    106  CA      -108.7920  -16.8880  116.8270 C.3   264  LEU264      0.1596
    107  C       -107.7420  -17.1700  117.8970 C.2   264  LEU264      0.2287
    108  O       -106.7370  -17.8300  117.6360 O.2   264  LEU264     -0.2864
    109  CB      -108.5260  -15.5280  116.1790 C.3   264  LEU264      0.0297
    110  CG      -109.3570  -15.1760  114.9440 C.3   264  LEU264      0.0022
    111  CD1     -108.9560  -13.8100  114.4020 C.3   264  LEU264      0.0001
    112  CD2     -109.2140  -16.2480  113.8730 C.3   264  LEU264      0.0001
@<TRIPOS>BOND
     1    32    31    1
     2    33    31    1
     3    31    28    1
     4    14    13    1
     5    28    29    1
     6    28    27    1
     7    13    10    1
     8    29    30    2
     9    27    21   am
    10    12    11    2
    11    11    10    1
    12    11    15   am
    13    10     9    1
    14   112   110    1
    15    16    15    1
    16    16    17    1
    17    21    20    1
    18    21    22    2
    19    19    17   am
    20    19    20    1
    21   111   110    1
    22    23    20    1
    23    23    25    1
    24    23    24    1
    25    17    18    2
    26    26    24    1
    27   110   109    1
    28   109   106    1
    29   103   101    1
    30   106   105    1
    31   106   107    1
    32    91    90    2
    33    89    90    1
    34    89    88    1
    35   104   102    1
    36    90    92   am
    37   105    99   am
    38   101   102    1
    39   101    98    1
    40   108   107    2
    41    40    38    1
    42    92    93    1
    43    99   100    2
    44    99    98    1
    45    39    38    1
    46    88    84   am
    47     8     6    1
    48    93    96    1
    49    93    94    1
    50    38    35    1
    51    98    97    1
    52    84    85    2
    53    84    83    1
    54     6     5    1
    55    94    95    2
    56     7     5    1
    57    55    56    1
    58    55    54    1
    59    35    36    1
    60    35    34    1
    61    61    60    2
    62    46    45    1
    63    47    45    1
    64    86    87    1
    65    86    83    1
    66     5     2    1
    67    36    37    2
    68    83    82    1
    69    82    80   am
    70    57    56    2
    71    78    79    1
    72    78    71   am
    73    62    63    1
    74    62    59    1
    75    79    80    1
    76    80    81    2
    77    45    42    1
    78    60    69   am
    79    60    59    1
    80    70    71    1
    81    70    69    1
    82    70    73    1
    83    74    75    1
    84    74    73    1
    85    76    75    1
    86    76    77    1
    87    63    65   ar
    88    63    64   ar
    89    65    67   ar
    90    64    66   ar
    91    71    72    2
    92     2     1    1
    93     2     3    1
    94    59    58    1
    95    67    68   ar
    96    66    68   ar
    97     4     3    2
    98    42    41    1
    99    42    43    1
   100    53    52    1
   101    43    44    2
   102    43    48   am
   103    48    49    1
   104    49    52    1
   105    49    50    1
   106    50    51    2
