@<TRIPOS>MOLECULE
tmp/4c9qB02.pdb
 106 101 0 0 0
SMALL
GASTEIGER

@<TRIPOS>ATOM
      1  N       -152.1680  -20.9320  157.0600 N.3    22  ALA22      -0.1245
      2  CA      -152.6860  -19.5760  157.1970 C.3    22  ALA22       0.1562
      3  C       -152.9310  -19.2360  158.6610 C.2    22  ALA22       0.2260
      4  O       -152.5460  -18.1660  159.1280 O.2    22  ALA22      -0.2867
      5  CB      -153.9660  -19.4110  156.3930 C.3    22  ALA22       0.0290
      6  N       -150.8190  -16.6770  160.9220 N.3    26  THR26      -0.1218
      7  CA      -151.6160  -15.5530  161.4060 C.3    26  THR26       0.1862
      8  C       -151.5090  -15.4160  162.9210 C.2    26  THR26       0.2287
      9  O       -151.5130  -14.3070  163.4570 O.2    26  THR26      -0.2866
     10  CB      -153.1010  -15.7010  161.0170 C.3    26  THR26       0.1770
     11  OG1     -153.2060  -15.9590  159.6120 O.3    26  THR26      -0.2211
     12  CG2     -153.8780  -14.4360  161.3570 C.3    26  THR26       0.0375
     13  N       -154.4680   -4.0850  165.2030 N.3    71  ILE71      -0.1245
     14  CA      -154.5580   -4.7890  163.9260 C.3    71  ILE71       0.1561
     15  C       -153.2910   -4.6120  163.0940 C.2    71  ILE71       0.2260
     16  O       -152.9940   -5.4220  162.2130 O.2    71  ILE71      -0.2867
     17  CB      -155.7720   -4.3120  163.0990 C.3    71  ILE71       0.0252
     18  CG1     -155.6400   -2.8260  162.7570 C.3    71  ILE71       0.0019
     19  CG2     -157.0660   -4.5750  163.8510 C.3    71  ILE71       0.0019
     20  CD1     -156.7720   -2.2910  161.9070 C.3    71  ILE71       0.0001
     21  N       -150.7310   -7.2710  162.2950 N.3    74  TRP74      -0.1227
     22  CA      -150.9750   -8.2540  161.2470 C.3    74  TRP74       0.1737
     23  C       -150.7070   -7.6660  159.8660 C.2    74  TRP74       0.2595
     24  O       -151.0710   -8.2550  158.8510 O.2    74  TRP74      -0.2718
     25  CB      -152.4090   -8.7810  161.3270 C.3    74  TRP74       0.0564
     26  CG      -152.6180   -9.7840  162.4200 C.ar   74  TRP74       0.0003
     27  CD1     -152.4310  -11.1330  162.3380 C.ar   74  TRP74       0.0946
     28  CD2     -153.0500   -9.5200  163.7600 C.ar   74  TRP74       0.0152
     29  NE1     -152.7220  -11.7260  163.5430 N.ar   74  TRP74      -0.2442
     30  CE2     -153.1040  -10.7570  164.4330 C.ar   74  TRP74       0.0810
     31  CE3     -153.3980   -8.3580  164.4560 C.ar   74  TRP74       0.0012
     32  CZ2     -153.4910  -10.8660  165.7670 C.ar   74  TRP74       0.0191
     33  CZ3     -153.7820   -8.4690  165.7810 C.ar   74  TRP74       0.0001
     34  CH2     -153.8250   -9.7130  166.4220 C.ar   74  TRP74       0.0015
     35  N       -150.0600   -6.5060  159.8370 N.am   75  ARG75      -0.1966
     36  CA      -149.7590   -5.8250  158.5840 C.3    75  ARG75       0.1729
     37  C       -148.7290   -6.5970  157.7620 C.2    75  ARG75       0.2617
     38  O       -147.5700   -6.7210  158.1570 O.2    75  ARG75      -0.2715
     39  CB      -149.2580   -4.4060  158.8620 C.3    75  ARG75       0.0348
     40  CG      -149.0800   -3.5440  157.6260 C.3    75  ARG75       0.0492
     41  CD      -148.7270   -2.1160  158.0090 C.3    75  ARG75       0.2205
     42  NE      -148.4200   -1.2970  156.8400 N.pl3  75  ARG75      -0.0865
     43  CZ      -149.3150   -0.5660  156.1850 C.cat  75  ARG75       0.5346
     44  NH1     -150.5790   -0.5490  156.5840 N.pl3  75  ARG75       0.1354
     45  NH2     -148.9470    0.1500  155.1310 N.pl3  75  ARG75       0.1354
     46  N       -149.1620   -7.1120  156.6150 N.am   76  GLY76      -0.1940
     47  CA      -148.2950   -7.8860  155.7450 C.3    76  GLY76       0.2014
     48  C       -148.6050   -9.3730  155.7610 C.2    76  GLY76       0.2639
     49  O       -148.0820  -10.1300  154.9440 O.2    76  GLY76      -0.2714
     50  N       -149.4700   -9.7850  156.6840 N.am   77  ASN77      -0.1958
     51  CA      -149.7870  -11.1970  156.8890 C.3    77  ASN77       0.1819
     52  C       -150.3840  -11.8740  155.6560 C.2    77  ASN77       0.2621
     53  O       -150.2370  -13.0860  155.4670 O.2    77  ASN77      -0.2715
     54  CB      -150.7460  -11.3510  158.0700 C.3    77  ASN77       0.1195
     55  CG      -151.0280  -12.8010  158.4060 C.2    77  ASN77       0.2630
     56  OD1     -150.1280  -13.6400  158.3870 O.2    77  ASN77      -0.2716
     57  ND2     -152.2850  -13.1050  158.7060 N.am   77  ASN77      -0.0877
     58  N       -151.0570  -11.0850  154.8230 N.am   78  THR78      -0.1951
     59  CA      -151.7000  -11.6000  153.6190 C.3    78  THR78       0.1897
     60  C       -150.6790  -12.2710  152.7060 C.2    78  THR78       0.2313
     61  O       -150.9710  -13.2850  152.0740 O.2    78  THR78      -0.2863
     62  CB      -152.4260  -10.4800  152.8480 C.3    78  THR78       0.1794
     63  OG1     -153.3880   -9.8550  153.7060 O.3    78  THR78      -0.2208
     64  CG2     -153.1380  -11.0400  151.6260 C.3    78  THR78       0.0378
     65  N       -150.1220  -15.6100  153.9910 N.3    81  VAL81      -0.1245
     66  CA      -151.2930  -16.4340  153.7150 C.3    81  VAL81       0.1561
     67  C       -151.2600  -16.9740  152.2860 C.2    81  VAL81       0.2260
     68  O       -151.4360  -18.1720  152.0600 O.2    81  VAL81      -0.2867
     69  CB      -152.5990  -15.6460  153.9290 C.3    81  VAL81       0.0252
     70  CG1     -153.7980  -16.4750  153.4990 C.3    81  VAL81       0.0019
     71  CG2     -152.7290  -15.2250  155.3830 C.3    81  VAL81       0.0019
     72  N       -144.0920   -4.1680  154.0130 N.3   142  LEU142     -0.1245
     73  CA      -145.3390   -3.7950  154.6730 C.3   142  LEU142      0.1561
     74  C       -145.1980   -3.8370  156.1890 C.2   142  LEU142      0.2260
     75  O       -145.8110   -3.0410  156.9000 O.2   142  LEU142     -0.2867
     76  CB      -146.4850   -4.7060  154.2360 C.3   142  LEU142      0.0270
     77  CG      -147.1380   -4.3940  152.8910 C.3   142  LEU142      0.0019
     78  CD1     -148.3370   -5.2990  152.6790 C.3   142  LEU142      0.0001
     79  CD2     -147.5440   -2.9320  152.8140 C.3   142  LEU142      0.0001
     80  N       -150.6460   -0.3250  150.4870 N.3   152  GLY152     -0.1210
     81  CA      -151.0010   -1.7200  150.6630 C.3   152  GLY152      0.1956
     82  C       -150.0080   -2.6690  150.0240 C.2   152  GLY152      0.2612
     83  O       -148.8840   -2.2860  149.7000 O.2   152  GLY152     -0.2717
     84  N       -150.4330   -3.9140  149.8410 N.am  153  LEU153     -0.1965
     85  CA      -149.5870   -4.9600  149.2810 C.3   153  LEU153      0.1728
     86  C       -149.2060   -4.6690  147.8330 C.2   153  LEU153      0.2617
     87  O       -148.0300   -4.7010  147.4710 O.2   153  LEU153     -0.2715
     88  CB      -150.2990   -6.3120  149.3750 C.3   153  LEU153      0.0311
     89  CG      -149.5110   -7.5780  149.0320 C.3   153  LEU153      0.0022
     90  CD1     -148.4460   -7.8430  150.0790 C.3   153  LEU153      0.0001
     91  CD2     -150.4460   -8.7720  148.9040 C.3   153  LEU153      0.0001
     92  N       -150.2080   -4.3800  147.0100 N.am  154  THR154     -0.1937
     93  CA      -149.9910   -4.1390  145.5890 C.3   154  THR154      0.2028
     94  C       -149.3510   -2.7790  145.3210 C.2   154  THR154      0.2642
     95  O       -148.7120   -2.5790  144.2860 O.2   154  THR154     -0.2714
     96  CB      -151.3100   -4.2340  144.8040 C.3   154  THR154      0.1808
     97  OG1     -152.2010   -3.1990  145.2370 O.3   154  THR154     -0.2208
     98  CG2     -151.9650   -5.5880  145.0340 C.3   154  THR154      0.0379
     99  N       -149.5250   -1.8480  146.2540 N.am  155  ASP155     -0.1971
    100  CA      -148.9180   -0.5270  146.1300 C.3   155  ASP155      0.1709
    101  C       -147.4010   -0.6490  146.1920 C.2   155  ASP155      0.2293
    102  O       -146.6740    0.0630  145.4880 O.2   155  ASP155     -0.2864
    103  CB      -149.4250    0.4100  147.2280 C.3   155  ASP155      0.1436
    104  CG      -148.9540    1.8390  147.0380 C.2   155  ASP155      0.3671
    105  OD1     -148.8530    2.2840  145.8750 O.co2 155  ASP155     -0.2456
    106  OD2     -148.6840    2.5180  148.0510 O.co2 155  ASP155     -0.2456
@<TRIPOS>BOND
     1    95    94    2
     2    96    98    1
     3    96    97    1
     4    96    93    1
     5    94    93    1
     6    94    99   am
     7   102   101    2
     8    93    92    1
     9   105   104   ar
    10   100   101    1
    11   100    99    1
    12   100   103    1
    13    92    86   am
    14   104   103    1
    15   104   106   ar
    16    87    86    2
    17    86    85    1
    18    91    89    1
    19    89    88    1
    20    89    90    1
    21    85    88    1
    22    85    84    1
    23    83    82    2
    24    84    82   am
    25    82    81    1
    26    80    81    1
    27    64    62    1
    28    68    67    2
    29    61    60    2
    30    67    66    1
    31    78    77    1
    32    60    59    1
    33    79    77    1
    34    62    59    1
    35    62    63    1
    36    77    76    1
    37    70    69    1
    38    59    58    1
    39    66    69    1
    40    66    65    1
    41    69    71    1
    42    72    73    1
    43    76    73    1
    44    73    74    1
    45    58    52   am
    46    49    48    2
    47    45    43    1
    48    53    52    2
    49    52    51    1
    50    47    48    1
    51    47    46    1
    52    48    50   am
    53    43    44    1
    54    43    42    2
    55    74    75    2
    56     5     2    1
    57    46    37   am
    58    50    51    1
    59    42    41    1
    60    51    54    1
    61     1     2    1
    62     2     3    1
    63    40    41    1
    64    40    39    1
    65    37    38    2
    66    37    36    1
    67    54    55    1
    68    56    55    2
    69    55    57   am
    70    36    39    1
    71    36    35    1
    72     3     4    2
    73    24    23    2
    74    11    10    1
    75    35    23   am
    76    23    22    1
    77     6     7    1
    78    10    12    1
    79    10     7    1
    80    22    25    1
    81    22    21    1
    82    25    26    1
    83     7     8    1
    84    20    18    1
    85    16    15    2
    86    27    26   ar
    87    27    29   ar
    88    26    28   ar
    89    18    17    1
    90     8     9    2
    91    15    14    1
    92    17    19    1
    93    17    14    1
    94    29    30   ar
    95    28    30   ar
    96    28    31   ar
    97    14    13    1
    98    30    32   ar
    99    31    33   ar
   100    32    34   ar
   101    33    34   ar
