@<TRIPOS>MOLECULE
tmp/4c9qA01.pdb
 114 109 0 0 0
SMALL
GASTEIGER

@<TRIPOS>ATOM
      1  N        -97.0120  -21.2410  129.9850 N.3    21  ALA21      -0.1245
      2  CA       -96.4560  -19.9040  129.7960 C.3    21  ALA21       0.1562
      3  C        -96.2530  -19.5740  128.3220 C.2    21  ALA21       0.2260
      4  O        -96.6120  -18.4890  127.8690 O.2    21  ALA21      -0.2867
      5  CB       -95.1410  -19.7700  130.5490 C.3    21  ALA21       0.0290
      6  N        -98.3530  -16.9070  126.0720 N.3    25  THR25      -0.1218
      7  CA       -97.5280  -15.8150  125.5650 C.3    25  THR25       0.1862
      8  C        -97.6420  -15.6940  124.0470 C.2    25  THR25       0.2287
      9  O        -97.6120  -14.5930  123.4980 O.2    25  THR25      -0.2866
     10  CB       -96.0450  -16.0020  125.9460 C.3    25  THR25       0.1770
     11  OG1      -95.9390  -16.2430  127.3550 O.3    25  THR25      -0.2211
     12  CG2      -95.2330  -14.7660  125.5840 C.3    25  THR25       0.0375
     13  N        -94.4830   -4.3540  121.6040 N.3    70  ILE70      -0.1245
     14  CA       -94.3560   -5.0290  122.8940 C.3    70  ILE70       0.1561
     15  C        -95.5970   -4.8560  123.7670 C.2    70  ILE70       0.2260
     16  O        -95.8310   -5.6390  124.6860 O.2    70  ILE70      -0.2867
     17  CB       -93.1280   -4.5200  123.6740 C.3    70  ILE70       0.0252
     18  CG1      -93.2660   -3.0260  123.9760 C.3    70  ILE70       0.0019
     19  CG2      -91.8520   -4.7910  122.8920 C.3    70  ILE70       0.0019
     20  CD1      -92.1180   -2.4560  124.7810 C.3    70  ILE70       0.0001
     21  N        -98.2800   -7.5890  124.7310 N.3    73  TRP73      -0.1227
     22  CA       -98.0590   -8.5740  125.7840 C.3    73  TRP73       0.1737
     23  C        -98.3090   -7.9770  127.1660 C.2    73  TRP73       0.2595
     24  O        -97.9350   -8.5620  128.1810 O.2    73  TRP73      -0.2718
     25  CB       -96.6390   -9.1330  125.7110 C.3    73  TRP73       0.0564
     26  CG       -96.4330  -10.1330  124.6170 C.ar   73  TRP73       0.0003
     27  CD1      -96.6560  -11.4770  124.6850 C.ar   73  TRP73       0.0946
     28  CD2      -95.9480   -9.8730  123.2950 C.ar   73  TRP73       0.0152
     29  NE1      -96.3480  -12.0690  123.4840 N.ar   73  TRP73      -0.2442
     30  CE2      -95.9100  -11.1060  122.6140 C.ar   73  TRP73       0.0810
     31  CE3      -95.5450   -8.7170  122.6200 C.ar   73  TRP73       0.0012
     32  CZ2      -95.4860  -11.2160  121.2910 C.ar   73  TRP73       0.0191
     33  CZ3      -95.1240   -8.8280  121.3060 C.ar   73  TRP73       0.0001
     34  CH2      -95.0980  -10.0690  120.6560 C.ar   73  TRP73       0.0015
     35  N        -98.9400   -6.8090  127.1950 N.am   74  ARG74      -0.1966
     36  CA       -99.2190   -6.1140  128.4460 C.3    74  ARG74       0.1729
     37  C       -100.2430   -6.8750  129.2880 C.2    74  ARG74       0.2617
     38  O       -101.4050   -7.0050  128.9020 O.2    74  ARG74      -0.2715
     39  CB       -99.7120   -4.6940  128.1570 C.3    74  ARG74       0.0348
     40  CG       -99.8700   -3.8020  129.3770 C.3    74  ARG74       0.0492
     41  CD      -100.2130   -2.3800  128.9540 C.3    74  ARG74       0.2205
     42  NE      -100.5130   -1.5160  130.0920 N.pl3  74  ARG74      -0.0865
     43  CZ       -99.6130   -0.7650  130.7180 C.cat  74  ARG74       0.5346
     44  NH1      -98.3490   -0.7670  130.3170 N.pl3  74  ARG74       0.1354
     45  NH2      -99.9770   -0.0080  131.7450 N.pl3  74  ARG74       0.1354
     46  N        -99.8010   -7.3760  130.4380 N.am   75  GLY75      -0.1940
     47  CA      -100.6600   -8.1440  131.3210 C.3    75  GLY75       0.2014
     48  C       -100.3430   -9.6280  131.3310 C.2    75  GLY75       0.2639
     49  O       -100.8810  -10.3780  132.1450 O.2    75  GLY75      -0.2714
     50  N        -99.4590  -10.0490  130.4310 N.am   76  ASN76      -0.1958
     51  CA       -99.1490  -11.4650  130.2440 C.3    76  ASN76       0.1819
     52  C        -98.5950  -12.1650  131.4860 C.2    76  ASN76       0.2621
     53  O        -98.7770  -13.3710  131.6520 O.2    76  ASN76      -0.2715
     54  CB       -98.1560  -11.6280  129.0910 C.3    76  ASN76       0.1195
     55  CG       -97.8750  -13.0810  128.7660 C.2    76  ASN76       0.2630
     56  OD1      -98.7820  -13.9130  128.7570 O.2    76  ASN76      -0.2716
     57  ND2      -96.6110  -13.3950  128.5070 N.am   76  ASN76      -0.0877
     58  N        -97.9190  -11.4120  132.3510 N.am   77  THR77      -0.1951
     59  CA       -97.3280  -11.9790  133.5620 C.3    77  THR77       0.1897
     60  C        -98.3930  -12.6150  134.4480 C.2    77  THR77       0.2313
     61  O        -98.1600  -13.6560  135.0640 O.2    77  THR77      -0.2863
     62  CB       -96.5680  -10.9140  134.3750 C.3    77  THR77       0.1794
     63  OG1      -95.5580  -10.3140  133.5550 O.3    77  THR77      -0.2208
     64  CG2      -95.9120  -11.5330  135.5980 C.3    77  THR77       0.0378
     65  N        -99.0460  -15.9470  133.2500 N.3    80  VAL80      -0.1245
     66  CA       -97.9050  -16.7940  133.5760 C.3    80  VAL80       0.1561
     67  C        -97.9590  -17.2720  135.0240 C.2    80  VAL80       0.2260
     68  O        -97.8140  -18.4640  135.3010 O.2    80  VAL80      -0.2867
     69  CB       -96.5730  -16.0580  133.3390 C.3    80  VAL80       0.0252
     70  CG1      -95.4040  -16.9050  133.8190 C.3    80  VAL80       0.0019
     71  CG2      -96.4180  -15.7070  131.8680 C.3    80  VAL80       0.0019
     72  N       -104.8430   -4.2810  132.7610 N.3   140  LEU140     -0.1245
     73  CA      -103.5860   -3.9250  132.1130 C.3   140  LEU140      0.1561
     74  C       -103.7300   -3.9520  130.5970 C.2   140  LEU140      0.2260
     75  O       -103.1100   -3.1620  129.8900 O.2   140  LEU140     -0.2867
     76  CB      -102.4620   -4.8670  132.5460 C.3   140  LEU140      0.0270
     77  CG      -101.8080   -4.5930  133.9000 C.3   140  LEU140      0.0019
     78  CD1     -100.6360   -5.5340  134.1090 C.3   140  LEU140      0.0001
     79  CD2     -101.3570   -3.1450  133.9930 C.3   140  LEU140      0.0001
     80  N        -99.3850    1.8930  136.1320 N.3   151  ASN151     -0.1225
     81  CA       -97.9590    1.7910  135.8470 C.3   151  ASN151      0.1785
     82  C        -97.5350    0.3570  135.5450 C.2   151  ASN151      0.2598
     83  O        -96.6600    0.1220  134.7110 O.2   151  ASN151     -0.2718
     84  CB       -97.1390    2.3380  137.0170 C.3   151  ASN151      0.1169
     85  CG       -97.4160    3.8040  137.2890 C.2   151  ASN151      0.2627
     86  OD1      -97.7390    4.5660  136.3770 O.2   151  ASN151     -0.2716
     87  ND2      -97.2930    4.2060  138.5480 N.am  151  ASN151     -0.0877
     88  N        -98.1590   -0.5980  136.2260 N.am  152  GLY152     -0.1942
     89  CA       -97.8320   -1.9990  136.0370 C.3   152  GLY152      0.2014
     90  C        -98.8060   -2.9420  136.7160 C.2   152  GLY152      0.2639
     91  O        -99.9140   -2.5490  137.0810 O.2   152  GLY152     -0.2714
     92  N        -98.3850   -4.1920  136.8830 N.am  153  LEU153     -0.1963
     93  CA       -99.2230   -5.2260  137.4820 C.3   153  LEU153      0.1728
     94  C        -99.5450   -4.9220  138.9400 C.2   153  LEU153      0.2617
     95  O       -100.7050   -4.9470  139.3500 O.2   153  LEU153     -0.2715
     96  CB       -98.5390   -6.5900  137.3760 C.3   153  LEU153      0.0311
     97  CG       -99.3620   -7.8130  137.7820 C.3   153  LEU153      0.0022
     98  CD1     -100.4910   -8.0510  136.7940 C.3   153  LEU153      0.0001
     99  CD2      -98.4760   -9.0440  137.8940 C.3   153  LEU153      0.0001
    100  N        -98.5080   -4.6340  139.7190 N.am  154  THR154     -0.1937
    101  CA       -98.6720   -4.3690  141.1420 C.3   154  THR154      0.2028
    102  C        -99.2940   -2.9960  141.3750 C.2   154  THR154      0.2642
    103  O        -99.8920   -2.7460  142.4220 O.2   154  THR154     -0.2714
    104  CB       -97.3290   -4.4560  141.8840 C.3   154  THR154      0.1808
    105  OG1      -96.4460   -3.4380  141.3980 O.3   154  THR154     -0.2208
    106  CG2      -96.6930   -5.8190  141.6620 C.3   154  THR154      0.0379
    107  N        -99.1440   -2.1080  140.3970 N.am  155  ASP155     -0.1971
    108  CA       -99.7430   -0.7810  140.4760 C.3   155  ASP155      0.1709
    109  C       -101.2630   -0.8820  140.4550 C.2   155  ASP155      0.2293
    110  O       -101.9550   -0.1060  141.1140 O.2   155  ASP155     -0.2864
    111  CB       -99.2580    0.1060  139.3290 C.3   155  ASP155      0.1436
    112  CG       -99.7230    1.5420  139.4710 C.2   155  ASP155      0.3671
    113  OD1      -99.7930    2.0340  140.6170 O.co2 155  ASP155     -0.2456
    114  OD2     -100.0270    2.1780  138.4410 O.co2 155  ASP155     -0.2456
@<TRIPOS>BOND
     1    34    32   ar
     2    34    33   ar
     3    32    30   ar
     4    33    31   ar
     5    13    14    1
     6    30    28   ar
     7    30    29   ar
     8    31    28   ar
     9    19    17    1
    10    14    17    1
    11    14    15    1
    12    28    26   ar
    13    29    27   ar
    14     9     8    2
    15    17    18    1
    16    15    16    2
    17    18    20    1
    18     8     7    1
    19    26    27   ar
    20    26    25    1
    21    21    22    1
    22     7    10    1
    23     7     6    1
    24    12    10    1
    25    25    22    1
    26    22    23    1
    27    10    11    1
    28    23    35   am
    29    23    24    2
    30    35    36    1
    31     4     3    2
    32    39    36    1
    33    39    40    1
    34     3     2    1
    35    36    37    1
    36    57    55   am
    37    56    55    2
    38    55    54    1
    39    38    37    2
    40    41    40    1
    41    41    42    1
    42    54    51    1
    43    37    46   am
    44     2     1    1
    45     2     5    1
    46    75    74    2
    47    42    43    2
    48    51    50    1
    49    51    52    1
    50    44    43    1
    51    50    48   am
    52    46    47    1
    53    74    73    1
    54    43    45    1
    55    47    48    1
    56    48    49    2
    57    52    53    2
    58    52    58   am
    59    71    69    1
    60    73    76    1
    61    73    72    1
    62    58    59    1
    63    76    77    1
    64    65    66    1
    65    69    66    1
    66    69    70    1
    67    63    62    1
    68    59    62    1
    69    59    60    1
    70    66    67    1
    71    77    79    1
    72    77    78    1
    73    62    64    1
    74    60    61    2
    75    83    82    2
    76    67    68    2
    77    82    81    1
    78    82    88   am
    79    81    80    1
    80    81    84    1
    81    89    88    1
    82    89    90    1
    83    86    85    2
    84    90    92   am
    85    90    91    2
    86    98    97    1
    87    92    93    1
    88    84    85    1
    89    85    87   am
    90    96    93    1
    91    96    97    1
    92    93    94    1
    93    97    99    1
    94   114   112   ar
    95    94    95    2
    96    94   100   am
    97   111   112    1
    98   111   108    1
    99   112   113   ar
   100   100   101    1
   101   107   108    1
   102   107   102   am
   103   109   108    1
   104   109   110    2
   105   101   102    1
   106   101   104    1
   107   102   103    2
   108   105   104    1
   109   106   104    1
