@<TRIPOS>MOLECULE
tmp/4c9qB01.pdb
 235 222 0 0 0
SMALL
GASTEIGER

@<TRIPOS>ATOM
      1  N       -149.5190  -19.1040  160.6570 N.3    25  LYS25      -0.1245
      2  CA      -148.7710  -17.8780  160.3930 C.3    25  LYS25       0.1561
      3  C       -149.4900  -16.6400  160.9260 C.2    25  LYS25       0.2260
      4  O       -148.8510  -15.6700  161.3320 O.2    25  LYS25      -0.2867
      5  CB      -148.5090  -17.7260  158.8920 C.3    25  LYS25       0.0271
      6  CG      -147.5240  -18.7380  158.3290 C.3    25  LYS25       0.0035
      7  CD      -147.3240  -18.5470  156.8340 C.3    25  LYS25       0.0206
      8  CE      -146.3730  -19.5890  156.2640 C.3    25  LYS25       0.1093
      9  NZ      -146.0890  -19.3560  154.8200 N.3    25  LYS25      -0.1314
     10  N       -148.6460  -17.0830  150.1930 N.3    83  ARG83      -0.1245
     11  CA      -147.3850  -17.7360  149.8340 C.3    83  ARG83       0.1563
     12  C       -147.4030  -19.2660  149.8870 C.2    83  ARG83       0.2260
     13  O       -146.5810  -19.9170  149.2410 O.2    83  ARG83      -0.2867
     14  CB      -146.2640  -17.2280  150.7420 C.3    83  ARG83       0.0307
     15  CG      -144.8830  -17.3110  150.1180 C.3    83  ARG83       0.0489
     16  CD      -143.7970  -17.3520  151.1780 C.3    83  ARG83       0.2205
     17  NE      -143.7540  -18.6410  151.8610 N.pl3  83  ARG83      -0.0865
     18  CZ      -142.7640  -19.0310  152.6570 C.cat  83  ARG83       0.5346
     19  NH1     -141.7290  -18.2300  152.8700 N.pl3  83  ARG83       0.1354
     20  NH2     -142.8070  -20.2220  153.2380 N.pl3  83  ARG83       0.1354
     21  N       -145.8410  -22.1970  146.8580 N.3    87  THR87      -0.1203
     22  CA      -144.7300  -22.9300  147.4510 C.3    87  THR87       0.1994
     23  C       -144.9710  -24.4360  147.4400 C.2    87  THR87       0.2617
     24  O       -144.1620  -25.1990  146.9120 O.2    87  THR87      -0.2717
     25  CB      -144.4710  -22.4790  148.8990 C.3    87  THR87       0.1784
     26  OG1     -144.1120  -21.0920  148.9110 O.3    87  THR87      -0.2211
     27  CG2     -143.3470  -23.2940  149.5190 C.3    87  THR87       0.0376
     28  N       -146.0880  -24.8580  148.0250 N.am   88  GLN88      -0.1979
     29  CA      -146.4020  -26.2790  148.1410 C.3    88  GLN88       0.1601
     30  C       -146.6730  -26.9390  146.7930 C.2    88  GLN88       0.2287
     31  O       -146.3770  -28.1190  146.6080 O.2    88  GLN88      -0.2864
     32  CB      -147.5970  -26.4830  149.0700 C.3    88  GLN88       0.0394
     33  CG      -147.2440  -26.3600  150.5380 C.3    88  GLN88       0.0908
     34  CD      -146.1700  -27.3430  150.9620 C.2    88  GLN88       0.2608
     35  OE1     -146.3420  -28.5570  150.8420 O.2    88  GLN88      -0.2717
     36  NE2     -145.0550  -26.8230  151.4620 N.am   88  GLN88      -0.0878
     37  N       -143.4340  -27.5200  145.6490 N.3    91  ASN91      -0.1240
     38  CA      -142.8990  -28.5410  146.5410 C.3    91  ASN91       0.1653
     39  C       -143.3000  -29.9430  146.0860 C.2    91  ASN91       0.2266
     40  O       -142.4500  -30.8130  145.9060 O.2    91  ASN91      -0.2867
     41  CB      -143.3770  -28.2790  147.9760 C.3    91  ASN91       0.1155
     42  CG      -142.6860  -29.1600  149.0070 C.2    91  ASN91       0.2627
     43  OD1     -142.2110  -30.2530  148.7030 O.2    91  ASN91      -0.2716
     44  ND2     -142.6310  -28.6780  150.2430 N.am   91  ASN91      -0.0877
     45  N       -139.6140  -30.9810  144.0710 N.3    95  LYS95      -0.1245
     46  CA      -138.6920  -31.2690  145.1680 C.3    95  LYS95       0.1561
     47  C       -138.1610  -32.6980  145.1050 C.2    95  LYS95       0.2260
     48  O       -136.9780  -32.9370  145.3460 O.2    95  LYS95      -0.2867
     49  CB      -139.3630  -31.0280  146.5210 C.3    95  LYS95       0.0271
     50  CG      -138.4550  -31.2980  147.7110 C.3    95  LYS95       0.0035
     51  CD      -139.1720  -31.0540  149.0260 C.3    95  LYS95       0.0206
     52  CE      -138.2180  -31.1540  150.2020 C.3    95  LYS95       0.1093
     53  NZ      -138.9030  -30.8850  151.4970 N.3    95  LYS95      -0.1314
     54  N       -133.9670  -26.4590  145.1270 N.3   124  ALA124     -0.1231
     55  CA      -135.3990  -26.3960  145.4020 C.3   124  ALA124      0.1694
     56  C       -135.7860  -25.0450  145.9930 C.2   124  ALA124      0.2592
     57  O       -136.7890  -24.4420  145.5960 O.2   124  ALA124     -0.2718
     58  CB      -135.8070  -27.5220  146.3390 C.3   124  ALA124      0.0304
     59  N       -134.9770  -24.5720  146.9360 N.am  125  GLY125     -0.1957
     60  CA      -135.2070  -23.2890  147.5700 C.3   125  GLY125      0.1869
     61  C       -135.1570  -22.1390  146.5850 C.2   125  GLY125      0.2309
     62  O       -136.0370  -21.2820  146.5840 O.2   125  GLY125     -0.2863
     63  N       -138.0900  -22.3000  144.0900 N.3   128  SER128     -0.1202
     64  CA      -139.3270  -21.8490  144.7150 C.3   128  SER128      0.2020
     65  C       -139.3140  -20.3340  144.8960 C.2   128  SER128      0.2618
     66  O       -140.3210  -19.6610  144.6670 O.2   128  SER128     -0.2717
     67  CB      -139.5380  -22.5450  146.0600 C.3   128  SER128      0.2103
     68  OG      -139.6860  -23.9440  145.8920 O.3   128  SER128     -0.2182
     69  N       -138.1630  -19.8030  145.2960 N.am  129  LEU129     -0.1979
     70  CA      -138.0100  -18.3680  145.5090 C.3   129  LEU129      0.1596
     71  C       -138.1710  -17.5810  144.2130 C.2   129  LEU129      0.2287
     72  O       -138.5180  -16.4020  144.2400 O.2   129  LEU129     -0.2864
     73  CB      -136.6500  -18.0580  146.1380 C.3   129  LEU129      0.0297
     74  CG      -136.5070  -18.3100  147.6390 C.3   129  LEU129      0.0022
     75  CD1     -135.0900  -18.0020  148.0980 C.3   129  LEU129      0.0001
     76  CD2     -137.5180  -17.4900  148.4250 C.3   129  LEU129      0.0001
     77  N       -141.6760  -17.0800  144.4690 N.3   132  VAL132     -0.1245
     78  CA      -142.1570  -16.7220  145.8010 C.3   132  VAL132      0.1561
     79  C       -141.6210  -15.3890  146.3360 C.2   132  VAL132      0.2260
     80  O       -142.3770  -14.5980  146.9060 O.2   132  VAL132     -0.2867
     81  CB      -141.8130  -17.8440  146.8130 C.3   132  VAL132      0.0252
     82  CG1     -141.7670  -17.3120  148.2370 C.3   132  VAL132      0.0019
     83  CG2     -142.8060  -18.9910  146.6900 C.3   132  VAL132      0.0019
     84  N       -142.4610  -12.3770  149.9760 N.3   136  ASP136     -0.1239
     85  CA      -141.6780  -12.1570  151.1870 C.3   136  ASP136      0.1674
     86  C       -141.1680  -10.7200  151.2360 C.2   136  ASP136      0.2266
     87  O       -141.1420  -10.0930  152.2990 O.2   136  ASP136     -0.2867
     88  CB      -140.5100  -13.1410  151.2620 C.3   136  ASP136      0.1410
     89  CG      -140.9680  -14.5730  151.4650 C.2   136  ASP136      0.3668
     90  OD1     -142.0120  -14.7770  152.1190 O.co2 136  ASP136     -0.2456
     91  OD2     -140.2840  -15.4950  150.9720 O.co2 136  ASP136     -0.2456
     92  N       -128.2240  -13.8410  149.4170 N.3   175  PRO175     -0.2102
     93  CA      -128.0660  -14.2290  150.8230 C.3   175  PRO175      0.1504
     94  C       -129.2510  -15.0420  151.3360 C.2   175  PRO175      0.2576
     95  O       -129.1370  -15.7160  152.3600 O.2   175  PRO175     -0.2718
     96  CB      -127.9680  -12.8850  151.5490 C.3   175  PRO175      0.0282
     97  CG      -128.7050  -11.9400  150.6790 C.3   175  PRO175      0.0208
     98  CD      -128.4200  -12.3850  149.2770 C.3   175  PRO175      0.0893
     99  N       -130.3740  -14.9810  150.6260 N.am  176  SER176     -0.1953
    100  CA      -131.5330  -15.7850  150.9820 C.3   176  SER176      0.1924
    101  C       -131.2810  -17.2420  150.6180 C.2   176  SER176      0.2314
    102  O       -131.5320  -18.1390  151.4210 O.2   176  SER176     -0.2863
    103  CB      -132.7930  -15.2740  150.2810 C.3   176  SER176      0.2116
    104  OG      -132.7370  -15.5100  148.8860 O.3   176  SER176     -0.2180
    105  N       -128.5560  -18.5370  152.7070 N.3   179  GLY179     -0.1210
    106  CA      -129.1840  -18.7040  154.0030 C.3   179  GLY179      0.1956
    107  C       -129.9260  -20.0220  154.1060 C.2   179  GLY179      0.2611
    108  O       -129.8320  -20.7130  155.1170 O.2   179  GLY179     -0.2717
    109  N       -130.6610  -20.3690  153.0530 N.am  180  ILE180     -0.1979
    110  CA      -131.3810  -21.6370  152.9980 C.3   180  ILE180      0.1595
    111  C       -130.4170  -22.8180  153.0750 C.2   180  ILE180      0.2287
    112  O       -130.6570  -23.7770  153.8120 O.2   180  ILE180     -0.2864
    113  CB      -132.2250  -21.7590  151.7130 C.3   180  ILE180      0.0276
    114  CG1     -133.3380  -20.7120  151.6990 C.3   180  ILE180      0.0022
    115  CG2     -132.8250  -23.1520  151.5920 C.3   180  ILE180      0.0022
    116  CD1     -134.1410  -20.7040  150.4180 C.3   180  ILE180      0.0001
    117  N       -128.7630  -22.9510  156.6170 N.3   183  TYR183     -0.1227
    118  CA      -129.8060  -23.3580  157.5530 C.3   183  TYR183      0.1736
    119  C       -130.1080  -24.8450  157.4360 C.2   183  TYR183      0.2595
    120  O       -130.2850  -25.5240  158.4440 O.2   183  TYR183     -0.2718
    121  CB      -131.0850  -22.5500  157.3250 C.3   183  TYR183      0.0548
    122  CG      -132.2510  -22.9900  158.1820 C.ar  183  TYR183     -0.0200
    123  CD1     -132.3700  -22.5670  159.4990 C.ar  183  TYR183     -0.0009
    124  CD2     -133.2380  -23.8250  157.6710 C.ar  183  TYR183     -0.0009
    125  CE1     -133.4340  -22.9660  160.2850 C.ar  183  TYR183      0.0417
    126  CE2     -134.3050  -24.2290  158.4500 C.ar  183  TYR183      0.0417
    127  CZ      -134.3990  -23.7960  159.7560 C.ar  183  TYR183      0.1957
    128  OH      -135.4610  -24.1960  160.5330 O.3   183  TYR183     -0.2866
    129  N       -130.1670  -25.3480  156.2070 N.am  184  ARG184     -0.1980
    130  CA      -130.4760  -26.7550  155.9810 C.3   184  ARG184      0.1597
    131  C       -129.3490  -27.6590  156.4720 C.2   184  ARG184      0.2287
    132  O       -129.5940  -28.6610  157.1520 O.2   184  ARG184     -0.2864
    133  CB      -130.7480  -27.0170  154.5000 C.3   184  ARG184      0.0334
    134  CG      -131.1330  -28.4540  154.2000 C.3   184  ARG184      0.0492
    135  CD      -131.4980  -28.6470  152.7390 C.3   184  ARG184      0.2205
    136  NE      -131.8600  -30.0330  152.4560 N.pl3 184  ARG184     -0.0865
    137  CZ      -133.0890  -30.5230  152.5750 C.cat 184  ARG184      0.5346
    138  NH1     -134.0820  -29.7380  152.9710 N.pl3 184  ARG184      0.1354
    139  NH2     -133.3270  -31.7980  152.2990 N.pl3 184  ARG184      0.1354
    140  N       -129.2730  -27.6080  160.1750 N.3   187  TYR187     -0.1227
    141  CA      -130.4550  -28.3110  160.6610 C.3   187  TYR187      0.1736
    142  C       -130.2320  -29.8150  160.6700 C.2   187  TYR187      0.2595
    143  O       -130.3620  -30.4610  161.7090 O.2   187  TYR187     -0.2718
    144  CB      -131.6760  -27.9700  159.8040 C.3   187  TYR187      0.0548
    145  CG      -132.9870  -28.4950  160.3480 C.ar  187  TYR187     -0.0200
    146  CD1     -133.7420  -27.7440  161.2380 C.ar  187  TYR187     -0.0009
    147  CD2     -133.4740  -29.7370  159.9620 C.ar  187  TYR187     -0.0009
    148  CE1     -134.9420  -28.2190  161.7360 C.ar  187  TYR187      0.0417
    149  CE2     -134.6720  -30.2200  160.4540 C.ar  187  TYR187      0.0417
    150  CZ      -135.4020  -29.4570  161.3400 C.ar  187  TYR187      0.1957
    151  OH      -136.5960  -29.9340  161.8310 O.3   187  TYR187     -0.2866
    152  N       -129.8880  -30.3690  159.5120 N.am  188  PHE188     -0.1976
    153  CA      -129.6940  -31.8100  159.3940 C.3   188  PHE188      0.1639
    154  C       -128.4840  -32.2860  160.1920 C.2   188  PHE188      0.2290
    155  O       -128.5000  -33.3780  160.7640 O.2   188  PHE188     -0.2864
    156  CB      -129.5550  -32.2130  157.9250 C.3   188  PHE188      0.0560
    157  CG      -130.8690  -32.3740  157.2180 C.ar  188  PHE188     -0.0200
    158  CD1     -131.5580  -33.5750  157.2750 C.ar  188  PHE188     -0.0042
    159  CD2     -131.4230  -31.3240  156.5050 C.ar  188  PHE188     -0.0042
    160  CE1     -132.7710  -33.7270  156.6290 C.ar  188  PHE188     -0.0003
    161  CE2     -132.6350  -31.4690  155.8570 C.ar  188  PHE188     -0.0003
    162  CZ      -133.3100  -32.6730  155.9190 C.ar  188  PHE188     -0.0000
    163  N       -131.4470  -21.6580  163.1460 N.3   215  SER215     -0.1217
    164  CA      -131.9770  -20.3570  162.7560 C.3   215  SER215      0.1889
    165  C       -131.1270  -19.2330  163.3350 C.2   215  SER215      0.2288
    166  O       -130.9990  -18.1680  162.7300 O.2   215  SER215     -0.2866
    167  CB      -133.4310  -20.2040  163.2050 C.3   215  SER215      0.2089
    168  OG      -133.5410  -20.2840  164.6150 O.3   215  SER215     -0.2183
    169  N       -127.7940  -18.9500  161.2350 N.3   218  SER218     -0.1202
    170  CA      -128.0300  -18.4830  159.8700 C.3   218  SER218      0.2020
    171  C       -128.7840  -17.1550  159.8300 C.2   218  SER218      0.2618
    172  O       -129.2190  -16.7110  158.7670 O.2   218  SER218     -0.2717
    173  CB      -128.8010  -19.5380  159.0740 C.3   218  SER218      0.2103
    174  OG      -130.0820  -19.7650  159.6370 O.3   218  SER218     -0.2182
    175  N       -128.9340  -16.5260  160.9900 N.am  219  TYR219     -0.1975
    176  CA      -129.6900  -15.2780  161.1040 C.3   219  TYR219      0.1639
    177  C       -129.0580  -14.0400  160.4350 C.2   219  TYR219      0.2290
    178  O       -129.7860  -13.2420  159.8390 O.2   219  TYR219     -0.2864
    179  CB      -129.9560  -14.9720  162.5830 C.3   219  TYR219      0.0560
    180  CG      -130.9930  -13.8940  162.8060 C.ar  219  TYR219     -0.0198
    181  CD1     -132.3490  -14.1850  162.7310 C.ar  219  TYR219     -0.0009
    182  CD2     -130.6180  -12.5880  163.0940 C.ar  219  TYR219     -0.0009
    183  CE1     -133.3030  -13.2040  162.9330 C.ar  219  TYR219      0.0417
    184  CE2     -131.5650  -11.6010  163.2980 C.ar  219  TYR219      0.0417
    185  CZ      -132.9050  -11.9150  163.2160 C.ar  219  TYR219      0.1957
    186  OH      -133.8510  -10.9370  163.4180 O.3   219  TYR219     -0.2866
    187  N       -127.5170  -13.6970  157.6830 N.3   221  LEU221     -0.1231
    188  CA      -127.8500  -13.6870  156.2630 C.3   221  LEU221      0.1693
    189  C       -129.2730  -13.1880  156.0430 C.2   221  LEU221      0.2592
    190  O       -129.5530  -12.4840  155.0700 O.2   221  LEU221     -0.2718
    191  CB      -127.6730  -15.0820  155.6610 C.3   221  LEU221      0.0284
    192  CG      -126.2290  -15.5880  155.6390 C.3   221  LEU221      0.0019
    193  CD1     -126.1530  -17.0240  155.1440 C.3   221  LEU221      0.0001
    194  CD2     -125.3670  -14.6760  154.7820 C.3   221  LEU221      0.0001
    195  N       -130.1660  -13.5450  156.9600 N.am  222  ASP222     -0.1974
    196  CA      -131.5480  -13.0910  156.8960 C.3   222  ASP222      0.1709
    197  C       -131.6190  -11.5940  157.1660 C.2   222  ASP222      0.2293
    198  O       -132.3910  -10.8750  156.5300 O.2   222  ASP222     -0.2864
    199  CB      -132.4180  -13.8530  157.8950 C.3   222  ASP222      0.1436
    200  CG      -133.8810  -13.4650  157.8080 C.2   222  ASP222      0.3671
    201  OD1     -134.3530  -13.1730  156.6890 O.co2 222  ASP222     -0.2456
    202  OD2     -134.5580  -13.4520  158.8570 O.co2 222  ASP222     -0.2456
    203  N       -130.4210   -9.8640  154.1320 N.3   225  ARG225     -0.1231
    204  CA      -131.4920   -9.9880  153.1470 C.3   225  ARG225      0.1694
    205  C       -132.5910   -8.9400  153.3430 C.2   225  ARG225      0.2591
    206  O       -132.9440   -8.2160  152.4090 O.2   225  ARG225     -0.2718
    207  CB      -132.0960  -11.3930  153.2060 C.3   225  ARG225      0.0321
    208  CG      -133.3200  -11.5880  152.3320 C.3   225  ARG225      0.0489
    209  CD      -134.0180  -12.8970  152.6640 C.3   225  ARG225      0.2205
    210  NE      -135.1900  -13.1230  151.8240 N.pl3 225  ARG225     -0.0865
    211  CZ      -136.0490  -14.1230  151.9920 C.cat 225  ARG225      0.5346
    212  NH1     -135.8700  -14.9940  152.9750 N.pl3 225  ARG225      0.1354
    213  NH2     -137.0900  -14.2510  151.1790 N.pl3 225  ARG225      0.1354
    214  N       -133.1200   -8.8590  154.5620 N.am  226  ARG226     -0.1980
    215  CA      -134.2100   -7.9340  154.8640 C.3   226  ARG226      0.1597
    216  C       -133.7680   -6.4760  154.7530 C.2   226  ARG226      0.2287
    217  O       -134.5080   -5.6270  154.2470 O.2   226  ARG226     -0.2864
    218  CB      -134.7700   -8.2090  156.2620 C.3   226  ARG226      0.0334
    219  CG      -135.2970   -9.6250  156.4510 C.3   226  ARG226      0.0492
    220  CD      -136.4450   -9.9190  155.5020 C.3   226  ARG226      0.2205
    221  NE      -136.7300  -11.3480  155.4050 N.pl3 226  ARG226     -0.0865
    222  CZ      -137.6230  -11.9860  156.1530 C.cat 226  ARG226      0.5346
    223  NH1     -138.3260  -11.3250  157.0630 N.pl3 226  ARG226      0.1354
    224  NH2     -137.8140  -13.2890  155.9920 N.pl3 226  ARG226      0.1354
    225  N       -141.3330  -16.3810  167.8260 N.3   267  ARG267     -0.1245
    226  CA      -142.2120  -16.6270  166.6910 C.3   267  ARG267      0.1563
    227  C       -142.2540  -18.1190  166.3750 C.2   267  ARG267      0.2260
    228  O       -143.3000  -18.6610  166.0090 O.2   267  ARG267     -0.2867
    229  CB      -141.7480  -15.8380  165.4670 C.3   267  ARG267      0.0307
    230  CG      -142.6240  -16.0280  164.2410 C.3   267  ARG267      0.0489
    231  CD      -141.9490  -15.4930  162.9900 C.3   267  ARG267      0.2205
    232  NE      -140.6130  -16.0560  162.8100 N.pl3 267  ARG267     -0.0865
    233  CZ      -140.3700  -17.2600  162.3020 C.cat 267  ARG267      0.5346
    234  NH1     -141.3740  -18.0390  161.9230 N.pl3 267  ARG267      0.1354
    235  NH2     -139.1220  -17.6880  162.1750 N.pl3 267  ARG267      0.1354
@<TRIPOS>BOND
     1    45    46    1
     2    63    64    1
     3    71    72    2
     4    71    70    1
     5    77    78    1
     6    66    65    2
     7    64    65    1
     8    64    67    1
     9    65    69   am
    10    47    46    1
    11    47    48    2
    12    54    55    1
    13    46    49    1
    14    69    70    1
    15    55    56    1
    16    55    58    1
    17    70    73    1
    18    57    56    2
    19    37    38    1
    20    78    79    1
    21    78    81    1
    22    68    67    1
    23    40    39    2
    24    56    59   am
    25    39    38    1
    26    73    74    1
    27    79    80    2
    28    49    50    1
    29    38    41    1
    30    62    61    2
    31    61    60    1
    32    31    30    2
    33    83    81    1
    34    30    29    1
    35    81    82    1
    36    21    22    1
    37    24    23    2
    38    59    60    1
    39    23    22    1
    40    23    28   am
    41    22    25    1
    42    74    75    1
    43    74    76    1
    44    50    51    1
    45    41    42    1
    46    28    29    1
    47    29    32    1
    48    43    42    2
    49   104   103    1
    50    25    26    1
    51    25    27    1
    52    42    44   am
    53    51    52    1
    54    32    33    1
    55    13    12    2
    56    98    92    1
    57    98    97    1
    58    92    93    1
    59    11    12    1
    60    11    10    1
    61    11    14    1
    62    84    85    1
    63    15    14    1
    64    15    16    1
    65    52    53    1
    66   103   100    1
    67   116   114    1
    68    33    34    1
    69   101   100    1
    70   101   102    2
    71    99   100    1
    72    99    94   am
    73    97    96    1
    74    93    94    1
    75    93    96    1
    76    35    34    2
    77    34    36   am
    78    91    89   ar
    79    16    17    1
    80   213   211    1
    81    85    86    1
    82    85    88    1
    83    86    87    2
    84    88    89    1
    85    94    95    2
    86    89    90   ar
    87   115   113    1
    88   114   113    1
    89   113   110    1
    90   210   211    2
    91   210   209    1
    92    17    18    2
    93   211   212    1
    94   139   137    1
    95   208   209    1
    96   208   207    1
    97   206   205    2
    98   136   137    2
    99   136   135    1
   100   137   138    1
   101    18    19    1
   102    18    20    1
   103   105   106    1
   104   135   134    1
   105   110   109    1
   106   110   111    1
   107   109   107   am
   108   111   112    2
   109   204   207    1
   110   204   205    1
   111   204   203    1
   112   205   214   am
   113   106   107    1
   114   107   108    2
   115   134   133    1
   116   217   216    2
   117   133   130    1
   118   214   215    1
   119   216   215    1
   120   194   192    1
   121     9     8    1
   122   215   218    1
   123   190   189    2
   124   193   192    1
   125   221   220    1
   126   221   222    2
   127   220   219    1
   128   192   191    1
   129   191   188    1
   130   161   162   ar
   131   161   159   ar
   132   162   160   ar
   133   130   129    1
   134   130   131    1
   135   224   222    1
   136   189   188    1
   137   189   195   am
   138   222   223    1
   139   129   119   am
   140   218   219    1
   141   188   187    1
   142     8     7    1
   143   131   132    2
   144   159   157   ar
   145   198   197    2
   146   117   118    1
   147   160   158   ar
   148   201   200   ar
   149     7     6    1
   150   196   195    1
   151   196   197    1
   152   196   199    1
   153   157   158   ar
   154   157   156    1
   155   121   118    1
   156   121   122    1
   157   119   118    1
   158   119   120    2
   159   124   122   ar
   160   124   126   ar
   161   200   199    1
   162   200   202   ar
   163   156   153    1
   164   122   123   ar
   165     6     5    1
   166   126   127   ar
   167   172   171    2
   168     5     2    1
   169   173   174    1
   170   173   170    1
   171   153   152    1
   172   153   154    1
   173   123   125   ar
   174   152   142   am
   175   127   125   ar
   176   127   128    1
   177   144   145    1
   178   144   141    1
   179   171   170    1
   180   171   175   am
   181   178   177    2
   182   170   169    1
   183   147   145   ar
   184   147   149   ar
   185   140   141    1
   186   154   155    2
   187   145   146   ar
   188     2     1    1
   189     2     3    1
   190   177   176    1
   191   149   150   ar
   192   141   142    1
   193   142   143    2
   194     3     4    2
   195   175   176    1
   196   176   179    1
   197   146   148   ar
   198   150   148   ar
   199   150   151    1
   200   234   233    1
   201   235   233    1
   202   233   232    2
   203   179   180    1
   204   166   165    2
   205   181   180   ar
   206   181   183   ar
   207   164   163    1
   208   164   167    1
   209   164   165    1
   210   180   182   ar
   211   232   231    1
   212   183   185   ar
   213   231   230    1
   214   182   184   ar
   215   167   168    1
   216   185   184   ar
   217   185   186    1
   218   230   229    1
   219   229   226    1
   220   228   227    2
   221   227   226    1
   222   226   225    1
