@<TRIPOS>MOLECULE
tmp/4c9qB04.pdb
 145 139 0 0 0
SMALL
GASTEIGER

@<TRIPOS>ATOM
      1  N       -137.9150  -18.2340  143.0820 N.3   130  LEU130     -0.1245
      2  CA      -138.0800  -17.5950  141.7790 C.3   130  LEU130      0.1561
      3  C       -139.5060  -17.0820  141.5850 C.2   130  LEU130      0.2260
      4  O       -139.7250  -16.0600  140.9350 O.2   130  LEU130     -0.2867
      5  CB      -137.7160  -18.5630  140.6520 C.3   130  LEU130      0.0270
      6  CG      -136.2250  -18.7830  140.3930 C.3   130  LEU130      0.0019
      7  CD1     -136.0170  -19.7310  139.2220 C.3   130  LEU130      0.0001
      8  CD2     -135.5250  -17.4560  140.1400 C.3   130  LEU130      0.0001
      9  N       -138.2810   -4.9680  138.4410 N.3   166  ILE166     -0.1231
     10  CA      -138.4210   -6.2980  139.0220 C.3   166  ILE166      0.1692
     11  C       -137.2500   -6.6140  139.9570 C.2   166  ILE166      0.2591
     12  O       -137.3760   -7.4300  140.8710 O.2   166  ILE166     -0.2718
     13  CB      -138.5300   -7.3860  137.9250 C.3   166  ILE166      0.0266
     14  CG1     -138.9430   -8.7310  138.5300 C.3   166  ILE166      0.0019
     15  CG2     -137.2280   -7.5030  137.1390 C.3   166  ILE166      0.0020
     16  CD1     -139.2140   -9.8070  137.5040 C.3   166  ILE166      0.0001
     17  N       -136.1180   -5.9530  139.7310 N.am  167  ALA167     -0.1980
     18  CA      -134.9340   -6.1510  140.5590 C.3   167  ALA167      0.1597
     19  C       -135.1890   -5.7120  141.9980 C.2   167  ALA167      0.2287
     20  O       -134.6950   -6.3290  142.9420 O.2   167  ALA167     -0.2864
     21  CB      -133.7480   -5.3990  139.9780 C.3   167  ALA167      0.0319
     22  N       -136.7050   -8.3200  143.9700 N.3   170  TYR170     -0.1227
     23  CA      -135.8020   -9.4270  144.2690 C.3   170  TYR170      0.1736
     24  C       -134.5010   -8.9550  144.9140 C.2   170  TYR170      0.2595
     25  O       -133.4150   -9.3670  144.5100 O.2   170  TYR170     -0.2718
     26  CB      -135.4940  -10.2200  142.9960 C.3   170  TYR170      0.0548
     27  CG      -136.6150  -11.1320  142.5500 C.ar  170  TYR170     -0.0200
     28  CD1     -137.7360  -10.6270  141.9040 C.ar  170  TYR170     -0.0009
     29  CD2     -136.5490  -12.5020  142.7690 C.ar  170  TYR170     -0.0009
     30  CE1     -138.7610  -11.4590  141.4930 C.ar  170  TYR170      0.0417
     31  CE2     -137.5680  -13.3420  142.3620 C.ar  170  TYR170      0.0417
     32  CZ      -138.6710  -12.8160  141.7250 C.ar  170  TYR170      0.1957
     33  OH      -139.6870  -13.6510  141.3200 O.3   170  TYR170     -0.2866
     34  N       -134.6160   -8.0910  145.9180 N.am  171  ARG171     -0.1966
     35  CA      -133.4480   -7.6100  146.6480 C.3   171  ARG171      0.1729
     36  C       -133.0490   -8.5960  147.7410 C.2   171  ARG171      0.2617
     37  O       -133.8350   -8.8810  148.6430 O.2   171  ARG171     -0.2715
     38  CB      -133.7250   -6.2370  147.2640 C.3   171  ARG171      0.0348
     39  CG      -133.7800   -5.0870  146.2720 C.3   171  ARG171      0.0492
     40  CD      -132.3870   -4.6060  145.8950 C.3   171  ARG171      0.2205
     41  NE      -132.4230   -3.3010  145.2400 N.pl3 171  ARG171     -0.0865
     42  CZ      -132.4760   -3.1260  143.9240 C.cat 171  ARG171      0.5346
     43  NH1     -132.4990   -4.1740  143.1130 N.pl3 171  ARG171      0.1354
     44  NH2     -132.5070   -1.9000  143.4170 N.pl3 171  ARG171      0.1354
     45  N       -131.8250   -9.1090  147.6640 N.am  172  GLY172     -0.1940
     46  CA      -131.3310  -10.0390  148.6640 C.3   172  GLY172      0.2014
     47  C       -131.6330  -11.4910  148.3440 C.2   172  GLY172      0.2639
     48  O       -131.9060  -12.2870  149.2410 O.2   172  GLY172     -0.2714
     49  N       -131.5880  -11.8350  147.0620 N.am  173  PHE173     -0.1959
     50  CA      -131.8760  -13.1940  146.6160 C.3   173  PHE173      0.1771
     51  C       -130.7390  -14.1460  146.9870 C.2   173  PHE173      0.2619
     52  O       -130.9710  -15.2480  147.4940 O.2   173  PHE173     -0.2715
     53  CB      -132.1150  -13.2090  145.1030 C.3   173  PHE173      0.0574
     54  CG      -132.7570  -14.4700  144.5960 C.ar  173  PHE173     -0.0200
     55  CD1     -134.1360  -14.6050  144.5870 C.ar  173  PHE173     -0.0042
     56  CD2     -131.9850  -15.5120  144.1130 C.ar  173  PHE173     -0.0042
     57  CE1     -134.7310  -15.7610  144.1160 C.ar  173  PHE173     -0.0003
     58  CE2     -132.5730  -16.6710  143.6410 C.ar  173  PHE173     -0.0003
     59  CZ      -133.9480  -16.7950  143.6430 C.ar  173  PHE173     -0.0000
     60  N       -129.5090  -13.7050  146.7390 N.am  174  MET174     -0.1964
     61  CA      -128.3230  -14.5080  147.0290 C.3   174  MET174      0.1722
     62  C       -128.1580  -14.8480  148.5190 C.2   174  MET174      0.2458
     63  O       -127.9770  -16.0200  148.8590 O.2   174  MET174     -0.2730
     64  CB      -127.0650  -13.8010  146.5080 C.3   174  MET174      0.0427
     65  CG      -126.9950  -13.6780  144.9940 C.3   174  MET174      0.0599
     66  SD      -126.8080  -15.2690  144.1650 S.3   174  MET174     -0.1393
     67  CE      -128.4900  -15.5820  143.6350 C.3   174  MET174      0.0692
     68  N       -128.2240  -13.8410  149.4170 N.am  175  PRO175     -0.2727
     69  CA      -128.0660  -14.2290  150.8230 C.3   175  PRO175      0.1402
     70  C       -129.2510  -15.0420  151.3360 C.2   175  PRO175      0.2269
     71  O       -129.1370  -15.7160  152.3600 O.2   175  PRO175     -0.2865
     72  CB      -127.9680  -12.8850  151.5490 C.3   175  PRO175      0.0296
     73  CG      -128.7050  -11.9400  150.6790 C.3   175  PRO175      0.0237
     74  CD      -128.4200  -12.3850  149.2770 C.3   175  PRO175      0.0939
     75  N       -128.2610  -18.7060  149.9800 N.3   178  VAL178     -0.1245
     76  CA      -127.1580  -19.1460  150.8280 C.3   178  VAL178      0.1561
     77  C       -127.6650  -19.4070  152.2410 C.2   178  VAL178      0.2260
     78  O       -127.2700  -20.3820  152.8840 O.2   178  VAL178     -0.2867
     79  CB      -126.0170  -18.1070  150.8660 C.3   178  VAL178      0.0252
     80  CG1     -124.9220  -18.5420  151.8290 C.3   178  VAL178      0.0019
     81  CG2     -125.4490  -17.8990  149.4730 C.3   178  VAL178      0.0019
     82  N       -127.5170  -13.6970  157.6830 N.3   221  LEU221     -0.1245
     83  CA      -127.8500  -13.6870  156.2630 C.3   221  LEU221      0.1561
     84  C       -129.2730  -13.1880  156.0430 C.2   221  LEU221      0.2260
     85  O       -129.5530  -12.4840  155.0700 O.2   221  LEU221     -0.2867
     86  CB      -127.6730  -15.0820  155.6610 C.3   221  LEU221      0.0270
     87  CG      -126.2290  -15.5880  155.6390 C.3   221  LEU221      0.0019
     88  CD1     -126.1530  -17.0240  155.1440 C.3   221  LEU221      0.0001
     89  CD2     -125.3670  -14.6760  154.7820 C.3   221  LEU221      0.0001
     90  N       -129.1940   -9.3830  156.5900 N.3   224  VAL224     -0.1245
     91  CA      -128.6750   -8.7420  155.3880 C.3   224  VAL224      0.1561
     92  C       -129.7350   -8.7360  154.2920 C.2   224  VAL224      0.2260
     93  O       -129.9330   -7.7280  153.6180 O.2   224  VAL224     -0.2867
     94  CB      -127.4010   -9.4440  154.8730 C.3   224  VAL224      0.0252
     95  CG1     -126.9640   -8.8510  153.5410 C.3   224  VAL224      0.0019
     96  CG2     -126.2840   -9.3350  155.8980 C.3   224  VAL224      0.0019
     97  N       -131.5210   -5.4440  152.8390 N.3   228  MET228     -0.1245
     98  CA      -131.3960   -5.2090  151.4060 C.3   228  MET228      0.1570
     99  C       -132.7710   -4.9930  150.7850 C.2   228  MET228      0.2261
    100  O       -132.9070   -4.2750  149.7930 O.2   228  MET228     -0.2867
    101  CB      -130.6800   -6.3700  150.7180 C.3   228  MET228      0.0387
    102  CG      -129.1730   -6.3740  150.9090 C.3   228  MET228      0.0595
    103  SD      -128.3690   -7.6280  149.8970 S.3   228  MET228     -0.1393
    104  CE      -128.7260   -6.9920  148.2630 C.3   228  MET228      0.0692
    105  N       -123.9030   -2.5280  147.8340 N.3   239  ASN239     -0.1225
    106  CA      -123.3710   -3.1330  146.6190 C.3   239  ASN239      0.1785
    107  C       -123.1780   -4.6370  146.7760 C.2   239  ASN239      0.2598
    108  O       -122.1010   -5.1680  146.5060 O.2   239  ASN239     -0.2718
    109  CB      -122.0480   -2.4710  146.2290 C.3   239  ASN239      0.1169
    110  CG      -121.6640   -2.7380  144.7870 C.2   239  ASN239      0.2627
    111  OD1     -122.5240   -2.9520  143.9320 O.2   239  ASN239     -0.2716
    112  ND2     -120.3650   -2.7300  144.5090 N.am  239  ASN239     -0.0877
    113  N       -124.2280   -5.3210  147.2160 N.am  240  GLY240     -0.1942
    114  CA      -124.1610   -6.7550  147.4230 C.3   240  GLY240      0.2014
    115  C       -124.3470   -7.1400  148.8770 C.2   240  GLY240      0.2639
    116  O       -124.3490   -6.2830  149.7600 O.2   240  GLY240     -0.2714
    117  N       -124.5120   -8.4350  149.1240 N.am  241  ALA241     -0.1963
    118  CA      -124.6760   -8.9460  150.4790 C.3   241  ALA241      0.1728
    119  C       -123.3900   -8.8000  151.2850 C.2   241  ALA241      0.2616
    120  O       -123.4260   -8.4890  152.4750 O.2   241  ALA241     -0.2715
    121  CB      -125.1180  -10.4010  150.4470 C.3   241  ALA241      0.0334
    122  N       -122.2550   -9.0300  150.6310 N.am  242  ILE242     -0.1963
    123  CA      -120.9550   -8.8900  151.2770 C.3   242  ILE242      0.1727
    124  C       -120.6810   -7.4390  151.6580 C.2   242  ILE242      0.2616
    125  O       -120.2080   -7.1540  152.7580 O.2   242  ILE242     -0.2715
    126  CB      -119.8180   -9.3960  150.3690 C.3   242  ILE242      0.0290
    127  CG1     -120.0400  -10.8640  150.0060 C.3   242  ILE242      0.0022
    128  CG2     -118.4680   -9.2100  151.0460 C.3   242  ILE242      0.0023
    129  CD1     -118.9520  -11.4440  149.1330 C.3   242  ILE242      0.0001
    130  N       -120.9830   -6.5270  150.7390 N.am  243  ASP243     -0.1971
    131  CA      -120.8280   -5.0980  150.9870 C.3   243  ASP243      0.1709
    132  C       -121.7260   -4.6430  152.1300 C.2   243  ASP243      0.2293
    133  O       -121.3130   -3.8590  152.9880 O.2   243  ASP243     -0.2864
    134  CB      -121.1430   -4.2980  149.7210 C.3   243  ASP243      0.1436
    135  CG      -121.0300   -2.8030  149.9350 C.2   243  ASP243      0.3671
    136  OD1     -120.0400   -2.3630  150.5570 O.co2 243  ASP243     -0.2456
    137  OD2     -121.9340   -2.0670  149.4850 O.co2 243  ASP243     -0.2456
    138  N       -122.8530   -6.5560  154.5510 N.3   245  LEU245     -0.1245
    139  CA      -122.2750   -7.1440  155.7530 C.3   245  LEU245      0.1561
    140  C       -121.1220   -6.2920  156.2770 C.2   245  LEU245      0.2260
    141  O       -121.0400   -5.9990  157.4730 O.2   245  LEU245     -0.2867
    142  CB      -121.7920   -8.5660  155.4620 C.3   245  LEU245      0.0270
    143  CG      -121.3030   -9.4110  156.6380 C.3   245  LEU245      0.0019
    144  CD1     -122.4570   -9.7550  157.5550 C.3   245  LEU245      0.0001
    145  CD2     -120.6180  -10.6730  156.1400 C.3   245  LEU245      0.0001
@<TRIPOS>BOND
     1    15    13    1
     2    16    14    1
     3    13    14    1
     4    13    10    1
     5     9    10    1
     6    10    11    1
     7     7     6    1
     8    17    11   am
     9    17    18    1
    10    11    12    2
    11    21    18    1
    12     8     6    1
    13     6     5    1
    14    18    19    1
    15     5     2    1
    16     4     3    2
    17    33    32    1
    18    30    32   ar
    19    30    28   ar
    20     3     2    1
    21    32    31   ar
    22     2     1    1
    23    28    27   ar
    24    19    20    2
    25    31    29   ar
    26    27    29   ar
    27    27    26    1
    28    26    23    1
    29    43    42    1
    30    44    42    1
    31    67    66    1
    32    58    59   ar
    33    58    56   ar
    34    59    57   ar
    35    42    41    2
    36   111   110    2
    37    22    23    1
    38    56    54   ar
    39    57    55   ar
    40    66    65    1
    41    23    24    1
    42   112   110   am
    43    25    24    2
    44    55    54   ar
    45    54    53    1
    46   110   109    1
    47    24    34   am
    48    65    64    1
    49    53    50    1
    50    41    40    1
    51    40    39    1
    52    34    35    1
    53   109   106    1
    54    39    38    1
    55   108   107    2
    56    64    61    1
    57    50    51    1
    58    50    49    1
    59   106   107    1
    60   106   105    1
    61    35    38    1
    62    35    36    1
    63    60    51   am
    64    60    61    1
    65   107   113   am
    66    51    52    2
    67    61    62    1
    68    49    47   am
    69   113   114    1
    70   114   115    1
    71    45    36   am
    72    45    46    1
    73    36    37    2
    74   104   103    1
    75    47    46    1
    76    47    48    2
    77    62    63    2
    78    62    68   am
    79   115   117   am
    80   115   116    2
    81   117   118    1
    82   129   127    1
    83    74    68    1
    84    74    73    1
    85    68    69    1
    86    81    79    1
    87   137   135   ar
    88   134   135    1
    89   134   131    1
    90   100    99    2
    91   103   102    1
    92   135   136   ar
    93    75    76    1
    94   127   126    1
    95   126   128    1
    96   126   123    1
    97   121   118    1
    98   118   119    1
    99   122   123    1
   100   122   119   am
   101    73    72    1
   102   101   102    1
   103   101    98    1
   104   130   131    1
   105   130   124   am
   106    99    98    1
   107    69    70    1
   108    69    72    1
   109    76    79    1
   110    76    77    1
   111    79    80    1
   112   131   132    1
   113   123   124    1
   114   119   120    2
   115    70    71    2
   116    98    97    1
   117   124   125    2
   118   132   133    2
   119    77    78    2
   120    95    94    1
   121    93    92    2
   122    92    91    1
   123   138   139    1
   124    89    87    1
   125    94    91    1
   126    94    96    1
   127    85    84    2
   128    88    87    1
   129    91    90    1
   130   142   139    1
   131   142   143    1
   132    87    86    1
   133    86    83    1
   134   139   140    1
   135    84    83    1
   136   145   143    1
   137    83    82    1
   138   140   141    2
   139   143   144    1
