@<TRIPOS>MOLECULE
tmp/4c9wA00.pdb
 177 171 0 0 0
SMALL
GASTEIGER

@<TRIPOS>ATOM
      1  N        -11.4910   -9.1670    4.5660 N.3     5  TYR5       -0.1227
      2  CA       -11.4670   -9.0190    6.0070 C.3     5  TYR5        0.1736
      3  C        -10.0700   -9.3300    6.5240 C.2     5  TYR5        0.2596
      4  O         -9.2890   -9.9920    5.8640 O.2     5  TYR5       -0.2718
      5  CB       -12.4450   -9.9750    6.6790 C.3     5  TYR5        0.0548
      6  CG       -13.8860   -9.6850    6.4070 C.ar    5  TYR5       -0.0200
      7  CD1      -14.4750  -10.1100    5.2240 C.ar    5  TYR5       -0.0009
      8  CD2      -14.6600   -8.9810    7.3160 C.ar    5  TYR5       -0.0009
      9  CE1      -15.8080   -9.8580    4.9620 C.ar    5  TYR5        0.0417
     10  CE2      -16.0000   -8.7130    7.0530 C.ar    5  TYR5        0.0417
     11  CZ       -16.5610   -9.1570    5.8780 C.ar    5  TYR5        0.1957
     12  OH       -17.8800   -8.8980    5.6040 O.3     5  TYR5       -0.2866
     13  N         -9.7760   -8.8280    7.7180 N.am    6  THR6       -0.1939
     14  CA        -8.5540   -9.1750    8.4280 C.3     6  THR6        0.2028
     15  C         -8.8960   -9.8800    9.7280 C.2     6  THR6        0.2642
     16  O        -10.0110   -9.7260   10.2850 O.2     6  THR6       -0.2714
     17  CB        -7.7500   -7.9100    8.7600 C.3     6  THR6        0.1808
     18  OG1       -8.5500   -7.0470    9.5760 O.3     6  THR6       -0.2208
     19  CG2       -7.3470   -7.2310    7.4990 C.3     6  THR6        0.0379
     20  N         -7.9380  -10.6590   10.2070 N.am    7  LEU7       -0.1977
     21  CA        -8.0620  -11.3510   11.4950 C.3     7  LEU7        0.1596
     22  C         -6.6760  -11.4220   12.1020 C.2     7  LEU7        0.2287
     23  O         -5.7440  -11.9040   11.4560 O.2     7  LEU7       -0.2864
     24  CB        -8.6690  -12.7490   11.2940 C.3     7  LEU7        0.0297
     25  CG        -8.9230  -13.5690   12.5650 C.3     7  LEU7        0.0022
     26  CD1       -9.9120  -12.8620   13.4620 C.3     7  LEU7        0.0001
     27  CD2       -9.4350  -14.9480   12.1870 C.3     7  LEU7        0.0001
     28  N        -16.8740  -11.3610   21.8580 N.3    21  LYS21      -0.1245
     29  CA       -17.7360  -10.3840   21.2230 C.3    21  LYS21       0.1561
     30  C        -18.9950  -10.2380   22.0670 C.2    21  LYS21       0.2260
     31  O        -19.6370  -11.2300   22.4250 O.2    21  LYS21      -0.2867
     32  CB       -18.0800  -10.8290   19.8090 C.3    21  LYS21       0.0271
     33  CG       -18.7840   -9.7410   19.0110 C.3    21  LYS21       0.0035
     34  CD       -17.8340   -8.5870   18.6950 C.3    21  LYS21       0.0206
     35  CE       -18.4640   -7.5560   17.7730 C.3    21  LYS21       0.1093
     36  NZ       -18.9630   -8.1670   16.5070 N.3    21  LYS21      -0.1314
     37  N        -22.5040   -9.6770   15.1100 N.3    25  PHE25      -0.1227
     38  CA       -22.0380  -10.8910   14.4230 C.3    25  PHE25       0.1736
     39  C        -20.9590  -11.6270   15.2290 C.2    25  PHE25       0.2596
     40  O        -19.8200  -11.1650   15.3300 O.2    25  PHE25      -0.2718
     41  CB       -21.4910  -10.5570   13.0330 C.3    25  PHE25       0.0547
     42  CG       -20.9660  -11.7330   12.2390 C.ar   25  PHE25      -0.0202
     43  CD1      -21.7430  -12.8210   11.9500 C.ar   25  PHE25      -0.0042
     44  CD2      -19.6910  -11.7200   11.7340 C.ar   25  PHE25      -0.0042
     45  CE1      -21.3240  -13.8730   11.1630 C.ar   25  PHE25      -0.0003
     46  CE2      -19.2240  -12.7760   10.9120 C.ar   25  PHE25      -0.0003
     47  CZ       -20.0380  -13.8310   10.6830 C.ar   25  PHE25      -0.0000
     48  N        -21.3340  -12.7710   15.7990 N.am   26  GLY26      -0.1957
     49  CA       -20.4140  -13.6090   16.5740 C.3    26  GLY26       0.1869
     50  C        -20.4380  -13.3870   18.0800 C.2    26  GLY26       0.2309
     51  O        -19.5110  -13.8050   18.7790 O.2    26  GLY26      -0.2863
     52  N        -12.7860  -14.8420   19.7400 N.3    31  ASN31      -0.1240
     53  CA       -12.1360  -14.7930   18.4290 C.3    31  ASN31       0.1653
     54  C        -10.9680  -13.8390   18.4190 C.2    31  ASN31       0.2266
     55  O        -10.7470  -13.1080   19.3810 O.2    31  ASN31      -0.2867
     56  CB       -13.1230  -14.3520   17.3720 C.3    31  ASN31       0.1155
     57  CG       -12.7630  -14.8450   15.9730 C.2    31  ASN31       0.2627
     58  OD1      -11.6680  -15.3260   15.6780 O.2    31  ASN31      -0.2716
     59  ND2      -13.7170  -14.7390   15.1140 N.am   31  ASN31      -0.0877
     60  N        -11.6920   -7.1410   11.0100 N.3    35  GLY35      -0.1225
     61  CA       -12.8710   -6.5570   10.4110 C.3    35  GLY35       0.1811
     62  C        -12.6200   -6.2480    8.9620 C.2    35  GLY35       0.2280
     63  O        -11.6680   -6.7450    8.3790 O.2    35  GLY35      -0.2866
     64  N        -14.4140  -17.9430    3.4310 N.3    70  PHE70      -0.1241
     65  CA       -15.6680  -18.4690    3.9590 C.3    70  PHE70       0.1605
     66  C        -16.7840  -18.2830    2.9580 C.2    70  PHE70       0.2264
     67  O        -16.9570  -17.1850    2.3910 O.2    70  PHE70      -0.2867
     68  CB       -16.0830  -17.7470    5.2420 C.3    70  PHE70       0.0534
     69  CG       -15.1230  -17.9400    6.3740 C.ar   70  PHE70      -0.0203
     70  CD1      -15.2020  -19.0640    7.1600 C.ar   70  PHE70      -0.0042
     71  CD2      -14.1300  -17.0270    6.6260 C.ar   70  PHE70      -0.0042
     72  CE1      -14.3230  -19.2620    8.1980 C.ar   70  PHE70      -0.0003
     73  CE2      -13.2380  -17.2230    7.6710 C.ar   70  PHE70      -0.0003
     74  CZ       -13.3340  -18.3420    8.4500 C.ar   70  PHE70      -0.0000
     75  N        -20.9660  -18.9050    2.8580 N.3    72  PHE72      -0.1241
     76  CA       -22.1880  -19.1520    3.6170 C.3    72  PHE72       0.1605
     77  C        -23.3070  -19.4780    2.6420 C.2    72  PHE72       0.2264
     78  O        -23.6300  -18.6770    1.7540 O.2    72  PHE72      -0.2867
     79  CB       -22.5390  -17.9440    4.4910 C.3    72  PHE72       0.0534
     80  CG       -21.5060  -17.6800    5.5170 C.ar   72  PHE72      -0.0203
     81  CD1      -21.4810  -18.4220    6.6810 C.ar   72  PHE72      -0.0042
     82  CD2      -20.5020  -16.7690    5.2710 C.ar   72  PHE72      -0.0042
     83  CE1      -20.4790  -18.2360    7.5970 C.ar   72  PHE72      -0.0003
     84  CE2      -19.5000  -16.5650    6.1930 C.ar   72  PHE72      -0.0003
     85  CZ       -19.4810  -17.3010    7.3500 C.ar   72  PHE72      -0.0000
     86  N        -25.8110  -16.9910    0.7810 N.3    75  GLU75      -0.1245
     87  CA       -25.2020  -15.6520    0.7130 C.3    75  GLU75       0.1567
     88  C        -24.2340  -15.5260   -0.4540 C.2    75  GLU75       0.2260
     89  O        -23.2980  -16.3110   -0.5470 O.2    75  GLU75      -0.2867
     90  CB       -24.4810  -15.3250    2.0130 C.3    75  GLU75       0.0388
     91  CG       -25.4080  -15.4390    3.2080 C.3    75  GLU75       0.1160
     92  CD       -24.7730  -15.0400    4.5260 C.2    75  GLU75       0.3649
     93  OE1      -23.6970  -14.4080    4.5250 O.co2  75  GLU75      -0.2457
     94  OE2      -25.3680  -15.3600    5.5810 O.co2  75  GLU75      -0.2457
     95  N        -16.2880  -14.3720    2.0110 N.3    79  MET79      -0.1245
     96  CA       -15.3780  -13.5980    2.8630 C.3    79  MET79       0.1570
     97  C        -13.9550  -14.0570    2.6310 C.2    79  MET79       0.2261
     98  O        -13.6600  -15.2260    2.8150 O.2    79  MET79      -0.2867
     99  CB       -15.7070  -13.8310    4.3350 C.3    79  MET79       0.0387
    100  CG       -17.0410  -13.2950    4.7890 C.3    79  MET79       0.0595
    101  SD       -17.3700  -13.5400    6.5560 S.3    79  MET79      -0.1393
    102  CE       -15.7450  -13.8510    7.2250 C.3    79  MET79       0.0692
    103  N        -10.5640  -13.7630    4.1330 N.3    81  VAL81      -0.1245
    104  CA        -9.9760  -13.3670    5.4130 C.3    81  VAL81       0.1561
    105  C         -8.4690  -13.5470    5.3770 C.2    81  VAL81       0.2260
    106  O         -7.9520  -14.6540    5.1980 O.2    81  VAL81      -0.2867
    107  CB       -10.5830  -14.1530    6.5960 C.3    81  VAL81       0.0252
    108  CG1      -10.0260  -13.6210    7.9130 C.3    81  VAL81       0.0019
    109  CG2      -12.1030  -14.0390    6.5810 C.3    81  VAL81       0.0019
    110  N        -15.4670  -20.0820   16.7640 N.3   115  TRP115     -0.1241
    111  CA       -15.9960  -20.5360   15.4850 C.3   115  TRP115      0.1605
    112  C        -15.4330  -21.9330   15.1600 C.2   115  TRP115      0.2264
    113  O        -14.2840  -22.2380   15.4970 O.2   115  TRP115     -0.2867
    114  CB       -15.7060  -19.5210   14.3770 C.3   115  TRP115      0.0550
    115  CG       -16.4670  -18.2260   14.5790 C.ar  115  TRP115      0.0003
    116  CD1      -16.0310  -17.1160   15.2350 C.ar  115  TRP115      0.0946
    117  CD2      -17.8070  -17.9410   14.1600 C.ar  115  TRP115      0.0152
    118  NE1      -17.0150  -16.1460   15.2390 N.ar  115  TRP115     -0.2442
    119  CE2      -18.1090  -16.6250   14.5750 C.ar  115  TRP115      0.0810
    120  CE3      -18.7720  -18.6600   13.4560 C.ar  115  TRP115      0.0012
    121  CZ2      -19.3450  -16.0230   14.3310 C.ar  115  TRP115      0.0191
    122  CZ3      -19.9980  -18.0550   13.2070 C.ar  115  TRP115      0.0001
    123  CH2      -20.2700  -16.7450   13.6370 C.ar  115  TRP115      0.0015
    124  N        -14.3810  -23.4990   12.5170 N.3   117  ASP117     -0.1225
    125  CA       -13.1970  -23.5700   11.6680 C.3   117  ASP117      0.1805
    126  C        -11.9020  -23.3980   12.4650 C.2   117  ASP117      0.2597
    127  O        -10.8670  -23.9480   12.0950 O.2   117  ASP117     -0.2718
    128  CB       -13.2680  -22.5400   10.5320 C.3   117  ASP117      0.1424
    129  CG       -13.5520  -21.1370   11.0390 C.2   117  ASP117      0.3668
    130  OD1      -14.7200  -20.9000   11.4450 O.co2 117  ASP117     -0.2456
    131  OD2      -12.6250  -20.2820   11.0210 O.co2 117  ASP117     -0.2456
    132  N        -11.9560  -22.6470   13.5710 N.am  118  ASP118     -0.1974
    133  CA       -10.7570  -22.4080   14.3930 C.3   118  ASP118      0.1709
    134  C        -10.0970  -23.6990   14.8870 C.2   118  ASP118      0.2293
    135  O         -8.8910  -23.7700   14.9840 O.2   118  ASP118     -0.2864
    136  CB       -11.0710  -21.5170   15.6080 C.3   118  ASP118      0.1436
    137  CG       -11.3740  -20.0890   15.2250 C.2   118  ASP118      0.3671
    138  OD1      -11.9490  -19.8510   14.1570 O.co2 118  ASP118     -0.2456
    139  OD2      -11.0350  -19.1750   15.9960 O.co2 118  ASP118     -0.2456
    140  N         -7.6520  -24.6700   11.8850 N.3   121  TRP121     -0.1241
    141  CA        -6.4770  -23.8430   11.5660 C.3   121  TRP121      0.1605
    142  C         -5.6930  -23.2730   12.7540 C.2   121  TRP121      0.2264
    143  O         -4.5070  -22.9900   12.6080 O.2   121  TRP121     -0.2867
    144  CB        -6.8050  -22.7440   10.5580 C.3   121  TRP121      0.0550
    145  CG        -7.8470  -21.7620   10.9710 C.ar  121  TRP121      0.0003
    146  CD1       -9.1760  -21.7890   10.6510 C.ar  121  TRP121      0.0946
    147  CD2       -7.6440  -20.5930   11.7650 C.ar  121  TRP121      0.0152
    148  NE1       -9.8130  -20.7190   11.2120 N.ar  121  TRP121     -0.2442
    149  CE2       -8.8950  -19.9600   11.8950 C.ar  121  TRP121      0.0810
    150  CE3       -6.5260  -20.0150   12.3740 C.ar  121  TRP121      0.0012
    151  CZ2       -9.0620  -18.7730   12.6050 C.ar  121  TRP121      0.0191
    152  CZ3       -6.6870  -18.8280   13.0800 C.ar  121  TRP121      0.0001
    153  CH2       -7.9490  -18.2280   13.1970 C.ar  121  TRP121      0.0015
    154  N        -20.0430  -23.0270    5.1310 N.3   137  PHE137     -0.1241
    155  CA       -20.9040  -23.0660    6.3020 C.3   137  PHE137      0.1605
    156  C        -22.3860  -23.1000    5.9080 C.2   137  PHE137      0.2264
    157  O        -22.7940  -22.4770    4.9290 O.2   137  PHE137     -0.2867
    158  CB       -20.7090  -21.8050    7.1230 C.3   137  PHE137      0.0534
    159  CG       -19.5710  -21.8630    8.0870 C.ar  137  PHE137     -0.0203
    160  CD1      -18.2690  -21.6410    7.6740 C.ar  137  PHE137     -0.0042
    161  CD2      -19.8190  -22.0900    9.4300 C.ar  137  PHE137     -0.0042
    162  CE1      -17.2280  -21.6860    8.5940 C.ar  137  PHE137     -0.0003
    163  CE2      -18.7890  -22.1140   10.3520 C.ar  137  PHE137     -0.0003
    164  CZ       -17.4910  -21.9290    9.9250 C.ar  137  PHE137     -0.0000
    165  N        -25.3150  -21.7770    8.1300 N.3   139  GLY139     -0.1210
    166  CA       -25.4770  -21.0500    9.3820 C.3   139  GLY139      0.1956
    167  C        -24.1230  -20.7890   10.0220 C.2   139  GLY139      0.2611
    168  O        -23.0870  -20.7970    9.3450 O.2   139  GLY139     -0.2717
    169  N        -24.1260  -20.5850   11.3340 N.am  140  GLN140     -0.1979
    170  CA       -22.9190  -20.2090   12.0600 C.3   140  GLN140      0.1601
    171  C        -22.2050  -21.4040   12.6830 C.2   140  GLN140      0.2287
    172  O        -21.0430  -21.2940   13.0730 O.2   140  GLN140     -0.2864
    173  CB       -23.2830  -19.2200   13.1660 C.3   140  GLN140      0.0394
    174  CG       -23.7240  -17.8660   12.6430 C.3   140  GLN140      0.0908
    175  CD       -24.1550  -16.9380   13.7580 C.2   140  GLN140      0.2608
    176  OE1      -23.6810  -17.0460   14.8890 O.2   140  GLN140     -0.2717
    177  NE2      -25.0630  -16.0230   13.4470 N.am  140  GLN140     -0.0878
@<TRIPOS>BOND
     1    89    88    2
     2    88    87    1
     3    87    86    1
     4    87    90    1
     5    78    77    2
     6    95    96    1
     7    90    91    1
     8    67    66    2
     9    97    98    2
    10    97    96    1
    11    77    76    1
    12    75    76    1
    13    96    99    1
    14    66    65    1
    15    91    92    1
    16    64    65    1
    17    76    79    1
    18    65    68    1
    19   103   104    1
    20    99   100    1
    21    79    80    1
    22    93    92   ar
    23    92    94   ar
    24     1     2    1
    25   100   101    1
    26   157   156    2
    27     9     7   ar
    28     9    11   ar
    29   154   155    1
    30   106   105    2
    31     7     6   ar
    32    68    69    1
    33    82    80   ar
    34    82    84   ar
    35   105   104    1
    36   104   107    1
    37    80    81   ar
    38    12    11    1
    39     4     3    2
    40    11    10   ar
    41   156   155    1
    42     2     3    1
    43     2     5    1
    44    84    85   ar
    45   155   158    1
    46    69    71   ar
    47    69    70   ar
    48     6     5    1
    49     6     8   ar
    50     3    13   am
    51   101   102    1
    52   109   107    1
    53   107   108    1
    54    71    73   ar
    55    81    83   ar
    56    10     8   ar
    57   158   159    1
    58    70    72   ar
    59    85    83   ar
    60    19    17    1
    61    73    74   ar
    62   160   159   ar
    63   160   162   ar
    64    13    14    1
    65   159   161   ar
    66   165   166    1
    67    72    74   ar
    68    63    62    2
    69    14    17    1
    70    14    15    1
    71   162   164   ar
    72    17    18    1
    73    62    61    1
    74   168   167    2
    75   166   167    1
    76   161   163   ar
    77    15    20   am
    78    15    16    2
    79   164   163   ar
    80   167   169   am
    81    20    21    1
    82    61    60    1
    83   128   129    1
    84   128   125    1
    85   144   145    1
    86   144   141    1
    87   146   145   ar
    88   146   148   ar
    89    47    46   ar
    90    47    45   ar
    91    46    44   ar
    92   145   147   ar
    93   131   129   ar
    94   129   130   ar
    95    45    43   ar
    96   148   149   ar
    97    24    21    1
    98    24    25    1
    99   169   170    1
   100    23    22    2
   101    21    22    1
   102   141   140    1
   103   141   142    1
   104   125   126    1
   105   125   124    1
   106    44    42   ar
   107   147   149   ar
   108   147   150   ar
   109   149   151   ar
   110    43    42   ar
   111   170   171    1
   112   170   173    1
   113   127   126    2
   114    27    25    1
   115    42    41    1
   116   150   152   ar
   117   126   132   am
   118    25    26    1
   119   151   153   ar
   120   143   142    2
   121   174   173    1
   122   174   175    1
   123   171   172    2
   124    41    38    1
   125   152   153   ar
   126   122   120   ar
   127   122   123   ar
   128   177   175   am
   129   120   117   ar
   130   132   133    1
   131   123   121   ar
   132   175   176    2
   133   138   137   ar
   134   117   119   ar
   135   117   115   ar
   136   121   119   ar
   137   114   115    1
   138   114   111    1
   139   133   134    1
   140   133   136    1
   141    38    37    1
   142    38    39    1
   143   119   118   ar
   144   115   116   ar
   145   134   135    2
   146    59    57   am
   147   112   111    1
   148   112   113    2
   149   137   136    1
   150   137   139   ar
   151    39    40    2
   152    39    48   am
   153   116   118   ar
   154   111   110    1
   155    58    57    2
   156    48    49    1
   157    57    56    1
   158    36    35    1
   159    49    50    1
   160    56    53    1
   161    35    34    1
   162    50    51    2
   163    54    53    1
   164    54    55    2
   165    53    52    1
   166    34    33    1
   167    33    32    1
   168    32    29    1
   169    29    28    1
   170    29    30    1
   171    30    31    2
