@<TRIPOS>MOLECULE
tmp/4c9xA00.pdb
 176 171 0 0 0
SMALL
GASTEIGER

@<TRIPOS>ATOM
      1  N        -11.3180   -9.1690    4.6630 N.3     5  TYR5       -0.1227
      2  CA       -11.3320   -9.0030    6.1020 C.3     5  TYR5        0.1736
      3  C         -9.9500   -9.3290    6.6360 C.2     5  TYR5        0.2596
      4  O         -9.1750  -10.0440    5.9920 O.2     5  TYR5       -0.2718
      5  CB       -12.3130   -9.9670    6.7570 C.3     5  TYR5        0.0548
      6  CG       -13.7500   -9.6780    6.4570 C.ar    5  TYR5       -0.0200
      7  CD1      -14.3180  -10.1120    5.2710 C.ar    5  TYR5       -0.0009
      8  CD2      -14.5550   -8.9930    7.3660 C.ar    5  TYR5       -0.0009
      9  CE1      -15.6470   -9.8680    4.9800 C.ar    5  TYR5        0.0417
     10  CE2      -15.8890   -8.7300    7.0820 C.ar    5  TYR5        0.0417
     11  CZ       -16.4260   -9.1700    5.8830 C.ar    5  TYR5        0.1957
     12  OH       -17.7530   -8.9290    5.5880 O.3     5  TYR5       -0.2866
     13  N         -9.6680   -8.8240    7.8290 N.am    6  THR6       -0.1939
     14  CA        -8.4540   -9.1680    8.5610 C.3     6  THR6        0.2028
     15  C         -8.8000   -9.8990    9.8440 C.2     6  THR6        0.2642
     16  O         -9.8930   -9.7380   10.3950 O.2     6  THR6       -0.2714
     17  CB        -7.6790   -7.8870    8.9360 C.3     6  THR6        0.1808
     18  OG1       -8.4870   -7.0380    9.7710 O.3     6  THR6       -0.2208
     19  CG2       -7.2530   -7.1440    7.6880 C.3     6  THR6        0.0379
     20  N         -7.8260  -10.6580   10.3370 N.am    7  LEU7       -0.1977
     21  CA        -7.9670  -11.3770   11.5840 C.3     7  LEU7        0.1596
     22  C         -6.5910  -11.4460   12.2120 C.2     7  LEU7        0.2287
     23  O         -5.6490  -11.9090   11.5870 O.2     7  LEU7       -0.2864
     24  CB        -8.5190  -12.7800   11.3210 C.3     7  LEU7        0.0297
     25  CG        -8.8590  -13.6200   12.5510 C.3     7  LEU7        0.0022
     26  CD1       -9.9130  -12.9350   13.4150 C.3     7  LEU7        0.0001
     27  CD2       -9.3290  -15.0090   12.1310 C.3     7  LEU7        0.0001
     28  N        -23.4040   -9.2790   15.9960 N.3    25  PHE25      -0.1227
     29  CA       -23.0560  -10.5600   15.4160 C.3    25  PHE25       0.1736
     30  C        -21.8460  -11.1770   16.1040 C.2    25  PHE25       0.2596
     31  O        -20.9380  -10.4700   16.5360 O.2    25  PHE25      -0.2718
     32  CB       -22.7780  -10.4560   13.9210 C.3    25  PHE25       0.0547
     33  CG       -22.4550  -11.7780   13.3150 C.ar   25  PHE25      -0.0202
     34  CD1      -23.4730  -12.6310   12.9210 C.ar   25  PHE25      -0.0042
     35  CD2      -21.1370  -12.2160   13.2390 C.ar   25  PHE25      -0.0042
     36  CE1      -23.1840  -13.8770   12.4050 C.ar   25  PHE25      -0.0003
     37  CE2      -20.8420  -13.4630   12.7310 C.ar   25  PHE25      -0.0003
     38  CZ       -21.8670  -14.2930   12.3140 C.ar   25  PHE25      -0.0000
     39  N        -21.8430  -12.5070   16.1880 N.am   26  GLY26      -0.1957
     40  CA       -20.7280  -13.2490   16.7660 C.3    26  GLY26       0.1869
     41  C        -20.7230  -13.2180   18.2830 C.2    26  GLY26       0.2309
     42  O        -19.8140  -13.7570   18.9190 O.2    26  GLY26      -0.2863
     43  N        -12.9120  -14.9240   19.7660 N.3    31  ASN31      -0.1225
     44  CA       -12.2690  -14.8720   18.4660 C.3    31  ASN31       0.1785
     45  C        -11.1090  -13.9110   18.4410 C.2    31  ASN31       0.2597
     46  O        -10.8660  -13.1710   19.3930 O.2    31  ASN31      -0.2718
     47  CB       -13.2530  -14.5620   17.3460 C.3    31  ASN31       0.1169
     48  CG       -14.1970  -13.4370   17.6810 C.2    31  ASN31       0.2627
     49  OD1      -15.3990  -13.5730   17.4810 O.2    31  ASN31      -0.2716
     50  ND2      -13.6730  -12.3240   18.1770 N.am   31  ASN31      -0.0877
     51  N        -10.3680  -13.9610   17.3460 N.am   32  GLY32      -0.1957
     52  CA        -9.3430  -12.9730   17.0980 C.3    32  GLY32       0.1869
     53  C         -9.9590  -11.6260   16.7520 C.2    32  GLY32       0.2309
     54  O        -11.1820  -11.4680   16.7310 O.2    32  GLY32      -0.2863
     55  N        -10.3240   -8.1420   14.2810 N.3    34  GLY34      -0.1210
     56  CA       -10.2230   -7.7880   12.8950 C.3    34  GLY34       0.1956
     57  C        -11.4870   -7.1520   12.4030 C.2    34  GLY34       0.2612
     58  O        -12.3510   -6.7570   13.1800 O.2    34  GLY34      -0.2717
     59  N        -11.5870   -7.0530   11.0920 N.am   35  GLY35      -0.1956
     60  CA       -12.7280   -6.4280   10.4650 C.3    35  GLY35       0.1869
     61  C        -12.4660   -6.1620    9.0020 C.2    35  GLY35       0.2309
     62  O        -11.5430   -6.7000    8.3910 O.2    35  GLY35      -0.2863
     63  N        -14.2030  -17.9300    3.3830 N.3    70  PHE70      -0.1241
     64  CA       -15.4580  -18.4380    3.9090 C.3    70  PHE70       0.1605
     65  C        -16.5720  -18.2660    2.9020 C.2    70  PHE70       0.2264
     66  O        -16.7380  -17.1930    2.3250 O.2    70  PHE70      -0.2867
     67  CB       -15.8690  -17.7120    5.1810 C.3    70  PHE70       0.0534
     68  CG       -14.9470  -17.9290    6.3320 C.ar   70  PHE70      -0.0203
     69  CD1      -15.0600  -19.0660    7.1150 C.ar   70  PHE70      -0.0042
     70  CD2      -13.9640  -17.0090    6.6340 C.ar   70  PHE70      -0.0042
     71  CE1      -14.2080  -19.2700    8.1770 C.ar   70  PHE70      -0.0003
     72  CE2      -13.1150  -17.2060    7.7030 C.ar   70  PHE70      -0.0003
     73  CZ       -13.2380  -18.3370    8.4710 C.ar   70  PHE70      -0.0000
     74  N        -20.7870  -18.9040    2.7560 N.3    72  PHE72      -0.1241
     75  CA       -22.0010  -19.1750    3.5160 C.3    72  PHE72       0.1605
     76  C        -23.0870  -19.4980    2.5260 C.2    72  PHE72       0.2264
     77  O        -23.4060  -18.6780    1.6640 O.2    72  PHE72      -0.2867
     78  CB       -22.3520  -17.9530    4.3560 C.3    72  PHE72       0.0534
     79  CG       -21.2330  -17.5540    5.2490 C.ar   72  PHE72      -0.0203
     80  CD1      -21.0140  -18.2490    6.4230 C.ar   72  PHE72      -0.0042
     81  CD2      -20.3210  -16.5870    4.8630 C.ar   72  PHE72      -0.0042
     82  CE1      -19.9420  -17.9420    7.2350 C.ar   72  PHE72      -0.0003
     83  CE2      -19.2450  -16.2760    5.6710 C.ar   72  PHE72      -0.0003
     84  CZ       -19.0570  -16.9550    6.8600 C.ar   72  PHE72      -0.0000
     85  N        -25.5940  -17.0210    0.5800 N.3    75  GLU75      -0.1245
     86  CA       -25.0550  -15.6570    0.5750 C.3    75  GLU75       0.1567
     87  C        -24.0640  -15.4730   -0.5650 C.2    75  GLU75       0.2260
     88  O        -23.1320  -16.2460   -0.6930 O.2    75  GLU75      -0.2867
     89  CB       -24.3800  -15.3580    1.9010 C.3    75  GLU75       0.0388
     90  CG       -25.3260  -15.5600    3.0690 C.3    75  GLU75       0.1160
     91  CD       -24.7220  -15.1690    4.3960 C.2    75  GLU75       0.3649
     92  OE1      -23.6620  -14.5080    4.4050 O.co2  75  GLU75      -0.2457
     93  OE2      -25.3120  -15.5260    5.4370 O.co2  75  GLU75      -0.2457
     94  N        -16.0920  -14.3210    2.0190 N.3    79  MET79      -0.1245
     95  CA       -15.1470  -13.5660    2.8530 C.3    79  MET79       0.1570
     96  C        -13.7190  -14.0380    2.6120 C.2    79  MET79       0.2261
     97  O        -13.4250  -15.2310    2.7260 O.2    79  MET79      -0.2867
     98  CB       -15.4650  -13.7440    4.3280 C.3    79  MET79       0.0387
     99  CG       -16.8520  -13.2940    4.7250 C.3    79  MET79       0.0595
    100  SD       -17.1190  -13.4130    6.5070 S.3    79  MET79      -0.1393
    101  CE       -18.5600  -12.3660    6.6590 C.3    79  MET79       0.0692
    102  N        -10.3470  -13.7410    4.1510 N.3    81  VAL81      -0.1245
    103  CA        -9.8080  -13.3450    5.4420 C.3    81  VAL81       0.1561
    104  C         -8.2910  -13.5090    5.4400 C.2    81  VAL81       0.2260
    105  O         -7.7650  -14.6080    5.2230 O.2    81  VAL81      -0.2867
    106  CB       -10.4240  -14.1880    6.5740 C.3    81  VAL81       0.0252
    107  CG1       -9.9200  -13.7110    7.9180 C.3    81  VAL81       0.0019
    108  CG2      -11.9450  -14.1070    6.5340 C.3    81  VAL81       0.0019
    109  N        -15.3760  -20.1290   16.7820 N.3   115  TRP115     -0.1241
    110  CA       -15.9190  -20.5590   15.5040 C.3   115  TRP115      0.1605
    111  C        -15.3430  -21.9350   15.1520 C.2   115  TRP115      0.2264
    112  O        -14.2010  -22.2380   15.4870 O.2   115  TRP115     -0.2867
    113  CB       -15.5940  -19.5390   14.4270 C.3   115  TRP115      0.0550
    114  CG       -16.2800  -18.2040   14.6400 C.ar  115  TRP115      0.0003
    115  CD1      -15.7190  -17.0730   15.1530 C.ar  115  TRP115      0.0946
    116  CD2      -17.6520  -17.8820   14.3740 C.ar  115  TRP115      0.0152
    117  NE1      -16.6480  -16.0590   15.2090 N.ar  115  TRP115     -0.2442
    118  CE2      -17.8420  -16.5270   14.7330 C.ar  115  TRP115      0.0810
    119  CE3      -18.7350  -18.6000   13.8620 C.ar  115  TRP115      0.0012
    120  CZ2      -19.0730  -15.8810   14.5960 C.ar  115  TRP115      0.0191
    121  CZ3      -19.9520  -17.9530   13.7190 C.ar  115  TRP115      0.0001
    122  CH2      -20.1110  -16.6080   14.0860 C.ar  115  TRP115      0.0015
    123  N        -14.2460  -23.4470   12.5000 N.3   117  ASP117     -0.1225
    124  CA       -13.0570  -23.5260   11.6590 C.3   117  ASP117      0.1805
    125  C        -11.7650  -23.3670   12.4570 C.2   117  ASP117      0.2597
    126  O        -10.7220  -23.9050   12.0720 O.2   117  ASP117     -0.2718
    127  CB       -13.0910  -22.4900   10.5330 C.3   117  ASP117      0.1424
    128  CG       -13.3950  -21.0960   11.0280 C.2   117  ASP117      0.3668
    129  OD1      -14.5550  -20.8970   11.4560 O.co2 117  ASP117     -0.2456
    130  OD2      -12.4910  -20.2180   10.9900 O.co2 117  ASP117     -0.2456
    131  N        -11.8170  -22.6310   13.5700 N.am  118  ASP118     -0.1974
    132  CA       -10.6130  -22.3950   14.3600 C.3   118  ASP118      0.1709
    133  C         -9.9900  -23.7010   14.8640 C.2   118  ASP118      0.2293
    134  O         -8.7830  -23.7800   15.0310 O.2   118  ASP118     -0.2864
    135  CB       -10.8920  -21.4730   15.5590 C.3   118  ASP118      0.1436
    136  CG       -11.1700  -20.0450   15.1530 C.2   118  ASP118      0.3671
    137  OD1      -11.9750  -19.8430   14.2340 O.co2 118  ASP118     -0.2456
    138  OD2      -10.5370  -19.1300   15.7480 O.co2 118  ASP118     -0.2456
    139  N         -7.4880  -24.6210   11.9630 N.3   121  TRP121     -0.1241
    140  CA        -6.3100  -23.8160   11.6230 C.3   121  TRP121      0.1605
    141  C         -5.5500  -23.2620   12.8170 C.2   121  TRP121      0.2264
    142  O         -4.3540  -22.9940   12.7020 O.2   121  TRP121     -0.2867
    143  CB        -6.6440  -22.7110   10.6120 C.3   121  TRP121      0.0550
    144  CG        -7.7010  -21.7460   11.0320 C.ar  121  TRP121      0.0003
    145  CD1       -9.0160  -21.7710   10.6800 C.ar  121  TRP121      0.0946
    146  CD2       -7.5360  -20.5830   11.8600 C.ar  121  TRP121      0.0152
    147  NE1       -9.6890  -20.7230   11.2430 N.ar  121  TRP121     -0.2442
    148  CE2       -8.8030  -19.9700   11.9620 C.ar  121  TRP121      0.0810
    149  CE3       -6.4520  -19.9950   12.5090 C.ar  121  TRP121      0.0012
    150  CZ2       -9.0130  -18.8090   12.6940 C.ar  121  TRP121      0.0191
    151  CZ3       -6.6680  -18.8520   13.2420 C.ar  121  TRP121      0.0001
    152  CH2       -7.9400  -18.2700   13.3350 C.ar  121  TRP121      0.0015
    153  N        -19.8910  -23.0130    5.0510 N.3   137  PHE137     -0.1241
    154  CA       -20.7690  -23.0450    6.2140 C.3   137  PHE137      0.1605
    155  C        -22.2360  -23.1030    5.8100 C.2   137  PHE137      0.2264
    156  O        -22.6350  -22.5070    4.8050 O.2   137  PHE137     -0.2867
    157  CB       -20.5850  -21.7710    7.0300 C.3   137  PHE137      0.0534
    158  CG       -19.4810  -21.8280    8.0420 C.ar  137  PHE137     -0.0203
    159  CD1      -18.1560  -21.6280    7.6830 C.ar  137  PHE137     -0.0042
    160  CD2      -19.7840  -22.0380    9.3800 C.ar  137  PHE137     -0.0042
    161  CE1      -17.1510  -21.6630    8.6450 C.ar  137  PHE137     -0.0003
    162  CE2      -18.7870  -22.0740   10.3410 C.ar  137  PHE137     -0.0003
    163  CZ       -17.4700  -21.8910    9.9700 C.ar  137  PHE137     -0.0000
    164  N        -25.2350  -21.8590    8.0030 N.3   139  GLY139     -0.1210
    165  CA       -25.4380  -21.1780    9.2780 C.3   139  GLY139      0.1956
    166  C        -24.0980  -20.8650    9.9340 C.2   139  GLY139      0.2611
    167  O        -23.0730  -20.7560    9.2570 O.2   139  GLY139     -0.2717
    168  N        -24.0960  -20.7340   11.2560 N.am  140  GLN140     -0.1979
    169  CA       -22.9060  -20.3030   11.9930 C.3   140  GLN140      0.1601
    170  C        -22.1250  -21.4520   12.6310 C.2   140  GLN140      0.2287
    171  O        -20.9650  -21.2840   13.0080 O.2   140  GLN140     -0.2864
    172  CB       -23.3200  -19.3190   13.0810 C.3   140  GLN140      0.0394
    173  CG       -23.7710  -17.9730   12.5470 C.3   140  GLN140      0.0908
    174  CD       -24.2210  -17.0450   13.6530 C.2   140  GLN140      0.2608
    175  OE1      -23.6910  -17.0900   14.7640 O.2   140  GLN140     -0.2717
    176  NE2      -25.2080  -16.2010   13.3610 N.am  140  GLN140     -0.0878
@<TRIPOS>BOND
     1    88    87    2
     2    87    86    1
     3    86    85    1
     4    86    89    1
     5    77    76    2
     6    89    90    1
     7    94    95    1
     8    66    65    2
     9    76    75    1
    10    96    97    2
    11    96    95    1
    12    74    75    1
    13    95    98    1
    14    65    64    1
    15    90    91    1
    16    63    64    1
    17    75    78    1
    18    64    67    1
    19   102   103    1
    20    98    99    1
    21    78    79    1
    22    91    92   ar
    23    91    93   ar
    24     1     2    1
    25    99   100    1
    26   156   155    2
    27    81    79   ar
    28    81    83   ar
    29     9     7   ar
    30     9    11   ar
    31   153   154    1
    32    67    68    1
    33   105   104    2
    34    79    80   ar
    35     7     6   ar
    36   104   103    1
    37   103   106    1
    38    12    11    1
    39    83    84   ar
    40   155   154    1
    41    11    10   ar
    42     4     3    2
    43     2     3    1
    44     2     5    1
    45   154   157    1
    46    68    70   ar
    47    68    69   ar
    48    80    82   ar
    49     6     5    1
    50     6     8   ar
    51   100   101    1
    52   108   106    1
    53   106   107    1
    54    70    72   ar
    55     3    13   am
    56    84    82   ar
    57   157   158    1
    58    10     8   ar
    59    69    71   ar
    60   159   158   ar
    61   159   161   ar
    62    19    17    1
    63    72    73   ar
    64    13    14    1
    65   164   165    1
    66   158   160   ar
    67    71    73   ar
    68    62    61    2
    69    14    17    1
    70    14    15    1
    71   161   163   ar
    72    17    18    1
    73    61    60    1
    74   167   166    2
    75   165   166    1
    76   160   162   ar
    77    15    20   am
    78    15    16    2
    79   166   168   am
    80   163   162   ar
    81    20    21    1
    82    60    59    1
    83   127   128    1
    84   127   124    1
    85   143   144    1
    86   143   140    1
    87   145   144   ar
    88   145   147   ar
    89   130   128   ar
    90   128   129   ar
    91   144   146   ar
    92    59    57   am
    93   147   148   ar
    94   168   169    1
    95    24    21    1
    96    24    25    1
    97    21    22    1
    98    23    22    2
    99   140   139    1
   100   140   141    1
   101   124   125    1
   102   124   123    1
   103   146   148   ar
   104   146   149   ar
   105   148   150   ar
   106   169   170    1
   107   169   172    1
   108   126   125    2
   109    27    25    1
   110    38    36   ar
   111    38    37   ar
   112    57    56    1
   113    57    58    2
   114    36    34   ar
   115   125   131   am
   116   149   151   ar
   117   173   172    1
   118   173   174    1
   119    25    26    1
   120   170   171    2
   121   150   152   ar
   122   142   141    2
   123    37    35   ar
   124    56    55    1
   125    34    33   ar
   126    35    33   ar
   127   151   152   ar
   128    33    32    1
   129   176   174   am
   130   131   132    1
   131   174   175    2
   132   121   119   ar
   133   121   122   ar
   134   119   116   ar
   135    32    29    1
   136   122   120   ar
   137   137   136   ar
   138   132   133    1
   139   132   135    1
   140   116   114   ar
   141   116   118   ar
   142   113   114    1
   143   113   110    1
   144   120   118   ar
   145   114   115   ar
   146   118   117   ar
   147   133   134    2
   148   111   112    2
   149   111   110    1
   150   136   135    1
   151   136   138   ar
   152   115   117   ar
   153    29    28    1
   154    29    30    1
   155   110   109    1
   156    30    39   am
   157    30    31    2
   158    39    40    1
   159    54    53    2
   160    53    52    1
   161    40    41    1
   162    52    51    1
   163    47    48    1
   164    47    44    1
   165    51    45   am
   166    49    48    2
   167    48    50   am
   168    41    42    2
   169    45    44    1
   170    45    46    2
   171    44    43    1
