@<TRIPOS>MOLECULE
tmp/4ca4A00.pdb
 112 105 0 0 0
SMALL
GASTEIGER

@<TRIPOS>ATOM
      1  N         -1.0130  -33.8310   33.5590 N.3     1  PHE1       -0.1241
      2  CA        -0.8090  -32.8900   32.4600 C.3     1  PHE1        0.1605
      3  C         -2.0850  -32.6110   31.6790 C.2     1  PHE1        0.2264
      4  O         -2.7210  -33.5270   31.1620 O.2     1  PHE1       -0.2867
      5  CB         0.2480  -33.4080   31.4820 C.3     1  PHE1        0.0534
      6  CG         0.5130  -32.4780   30.3440 C.ar    1  PHE1       -0.0203
      7  CD1        1.3190  -31.3700   30.5270 C.ar    1  PHE1       -0.0042
      8  CD2       -0.0710  -32.6840   29.0940 C.ar    1  PHE1       -0.0042
      9  CE1        1.5500  -30.4940   29.4840 C.ar    1  PHE1       -0.0003
     10  CE2        0.1640  -31.8110   28.0570 C.ar    1  PHE1       -0.0003
     11  CZ         0.9780  -30.7190   28.2480 C.ar    1  PHE1       -0.0000
     12  N         -6.5500  -34.6540   30.9640 N.3    13  ILE13      -0.1245
     13  CA        -5.5480  -35.6780   31.2160 C.3    13  ILE13       0.1561
     14  C         -5.8690  -36.8720   30.3200 C.2    13  ILE13       0.2260
     15  O         -7.0370  -37.2480   30.1730 O.2    13  ILE13      -0.2867
     16  CB        -5.5360  -36.0710   32.7360 C.3    13  ILE13       0.0252
     17  CG1       -4.9510  -34.9250   33.5670 C.3    13  ILE13       0.0019
     18  CG2       -4.7880  -37.3900   33.0090 C.3    13  ILE13       0.0019
     19  CD1       -5.2070  -35.0410   35.0480 C.3    13  ILE13       0.0001
     20  N          1.5770  -29.0450   34.6670 N.3    46  ASN46      -0.1225
     21  CA         1.9590  -30.3010   35.2970 C.3    46  ASN46       0.1785
     22  C          1.0270  -30.5650   36.4950 C.2    46  ASN46       0.2597
     23  O          0.7300  -29.6580   37.2640 O.2    46  ASN46      -0.2718
     24  CB         3.4440  -30.1870   35.7020 C.3    46  ASN46       0.1169
     25  CG         4.0610  -31.4790   36.1920 C.2    46  ASN46       0.2627
     26  OD1        3.4320  -32.2690   36.8900 O.2    46  ASN46      -0.2716
     27  ND2        5.3300  -31.6800   35.8560 N.am   46  ASN46      -0.0877
     28  N          0.5540  -31.7970   36.6620 N.am   47  ASP47      -0.1960
     29  CA        -0.4460  -32.0890   37.7070 C.3    47  ASP47       0.1840
     30  C          0.1040  -32.7150   38.9950 C.2    47  ASP47       0.2621
     31  O         -0.5940  -32.7870   40.0160 O.2    47  ASP47      -0.2715
     32  CB        -1.5370  -32.9960   37.1310 C.3    47  ASP47       0.1450
     33  CG        -2.6760  -32.2060   36.5230 C.2    47  ASP47       0.3671
     34  OD1       -3.1800  -31.3090   37.2380 O.co2  47  ASP47      -0.2456
     35  OD2       -3.0670  -32.4620   35.3550 O.co2  47  ASP47      -0.2456
     36  N          1.3580  -33.1560   38.9330 N.am   48  ALA48      -0.1977
     37  CA         2.0850  -33.6890   40.0750 C.3    48  ALA48       0.1597
     38  C          3.5480  -33.2370   40.0720 C.2    48  ALA48       0.2287
     39  O          4.4370  -34.0860   40.1020 O.2    48  ALA48      -0.2864
     40  CB         2.0170  -35.2110   40.0710 C.3    48  ALA48       0.0319
     41  N          6.6670  -35.6020   39.4620 N.3    52  ILE52      -0.1245
     42  CA         6.7370  -35.8500   38.0370 C.3    52  ILE52       0.1561
     43  C          7.1230  -34.6050   37.2970 C.2    52  ILE52       0.2260
     44  O          6.7310  -33.4980   37.6760 O.2    52  ILE52      -0.2867
     45  CB         5.3910  -36.3590   37.4980 C.3    52  ILE52       0.0252
     46  CG1        4.9130  -37.5180   38.3730 C.3    52  ILE52       0.0019
     47  CG2        5.5070  -36.7280   36.0110 C.3    52  ILE52       0.0019
     48  CD1        3.6500  -38.1810   37.9540 C.3    52  ILE52       0.0001
     49  N          6.9960  -33.4580   33.2510 N.3    54  ASP54      -0.1239
     50  CA         6.3570  -33.8050   31.9940 C.3    54  ASP54       0.1674
     51  C          7.1760  -33.3130   30.8120 C.2    54  ASP54       0.2266
     52  O          7.7460  -32.2300   30.8500 O.2    54  ASP54      -0.2867
     53  CB         4.9530  -33.1900   31.9450 C.3    54  ASP54       0.1410
     54  CG         3.9940  -33.8300   32.9300 C.2    54  ASP54       0.3668
     55  OD1        3.9860  -35.0680   33.0660 O.co2  54  ASP54      -0.2456
     56  OD2        3.2690  -33.0870   33.6100 O.co2  54  ASP54      -0.2456
     57  N          2.7820  -35.4220   24.8860 N.3   133  GLN133     -0.1245
     58  CA         3.2630  -35.3520   26.2520 C.3   133  GLN133      0.1566
     59  C          3.6220  -36.7400   26.7670 C.2   133  GLN133      0.2260
     60  O          2.9140  -37.7110   26.5190 O.2   133  GLN133     -0.2867
     61  CB         2.2300  -34.7280   27.1580 C.3   133  GLN133      0.0367
     62  CG         2.6020  -34.7210   28.6250 C.3   133  GLN133      0.0905
     63  CD         1.8450  -35.7810   29.4120 C.2   133  GLN133      0.2608
     64  OE1        0.8020  -36.2620   28.9720 O.2   133  GLN133     -0.2717
     65  NE2        2.3190  -36.0900   30.6170 N.am  133  GLN133     -0.0878
     66  N          6.3610  -38.4770   30.2490 N.3   135  ASN135     -0.1240
     67  CA         6.9530  -38.0840   31.5440 C.3   135  ASN135      0.1653
     68  C          8.0230  -39.0560   32.0180 C.2   135  ASN135      0.2266
     69  O          8.2340  -40.1030   31.4110 O.2   135  ASN135     -0.2867
     70  CB         5.8820  -37.9610   32.6160 C.3   135  ASN135      0.1155
     71  CG         5.1350  -39.2690   32.8560 C.2   135  ASN135      0.2627
     72  OD1        5.7030  -40.3670   32.7810 O.2   135  ASN135     -0.2716
     73  ND2        3.8420  -39.1520   33.1420 N.am  135  ASN135     -0.0877
     74  N          7.9940  -40.7860   34.8130 N.3   137  TYR137     -0.1227
     75  CA         7.3750  -41.5600   35.8790 C.3   137  TYR137      0.1736
     76  C          6.8240  -42.9250   35.4300 C.2   137  TYR137      0.2595
     77  O          7.0060  -43.9320   36.1260 O.2   137  TYR137     -0.2718
     78  CB         6.2620  -40.7130   36.4880 C.3   137  TYR137      0.0548
     79  CG         5.6000  -41.2780   37.7140 C.ar  137  TYR137     -0.0200
     80  CD1        6.2020  -41.1850   38.9620 C.ar  137  TYR137     -0.0009
     81  CD2        4.3430  -41.8670   37.6310 C.ar  137  TYR137     -0.0009
     82  CE1        5.5760  -41.6870   40.0900 C.ar  137  TYR137      0.0417
     83  CE2        3.7080  -42.3650   38.7480 C.ar  137  TYR137      0.0417
     84  CZ         4.3230  -42.2770   39.9730 C.ar  137  TYR137      0.1957
     85  OH         3.6740  -42.7820   41.0770 O.3   137  TYR137     -0.2866
     86  N          6.1550  -42.9490   34.2720 N.am  138  ASN138     -0.1974
     87  CA         5.5250  -44.1630   33.7490 C.3   138  ASN138      0.1688
     88  C          5.4360  -44.2100   32.2170 C.2   138  ASN138      0.2292
     89  O          6.0170  -43.3810   31.5160 O.2   138  ASN138     -0.2864
     90  CB         4.1210  -44.3350   34.3260 C.3   138  ASN138      0.1181
     91  CG         3.2290  -43.1260   34.0920 C.2   138  ASN138      0.2629
     92  OD1        3.4480  -42.3420   33.1680 O.2   138  ASN138     -0.2716
     93  ND2        2.2120  -42.9720   34.9360 N.am  138  ASN138     -0.0877
     94  N          3.1680  -43.3850   30.2180 N.3   140  ASP140     -0.1239
     95  CA         2.2160  -42.4650   29.5770 C.3   140  ASP140      0.1674
     96  C          2.8050  -41.6480   28.4200 C.2   140  ASP140      0.2266
     97  O          3.8840  -41.0680   28.5220 O.2   140  ASP140     -0.2867
     98  CB         1.6160  -41.5130   30.6180 C.3   140  ASP140      0.1410
     99  CG         0.6580  -42.2210   31.5710 C.2   140  ASP140      0.3668
    100  OD1        0.3720  -43.4230   31.3290 O.co2 140  ASP140     -0.2456
    101  OD2        0.1920  -41.5790   32.5560 O.co2 140  ASP140     -0.2456
    102  N          0.7890  -39.2910   25.5650 N.3   142  PHE142     -0.1241
    103  CA        -0.5550  -38.8160   25.2950 C.3   142  PHE142      0.1605
    104  C         -0.5410  -37.7860   24.2020 C.2   142  PHE142      0.2264
    105  O          0.4190  -37.0230   24.0700 O.2   142  PHE142     -0.2867
    106  CB        -1.1680  -38.2220   26.5560 C.3   142  PHE142      0.0534
    107  CG        -1.4860  -39.2310   27.6100 C.ar  142  PHE142     -0.0203
    108  CD1       -2.0540  -40.4540   27.2710 C.ar  142  PHE142     -0.0042
    109  CD2       -1.2060  -38.9710   28.9400 C.ar  142  PHE142     -0.0042
    110  CE1       -2.3570  -41.3890   28.2390 C.ar  142  PHE142     -0.0003
    111  CE2       -1.5060  -39.9070   29.9200 C.ar  142  PHE142     -0.0003
    112  CZ        -2.0930  -41.1170   29.5730 C.ar  142  PHE142     -0.0000
@<TRIPOS>BOND
     1   105   104    2
     2   104   103    1
     3    57    58    1
     4   103   102    1
     5   103   106    1
     6    58    59    1
     7    58    61    1
     8    60    59    2
     9   106   107    1
    10    61    62    1
    11   108   107   ar
    12   108   110   ar
    13   107   109   ar
    14    10    11   ar
    15    10     8   ar
    16   110   112   ar
    17    11     9   ar
    18    96    97    2
    19    96    95    1
    20    62    63    1
    21   109   111   ar
    22    64    63    2
    23     8     6   ar
    24    63    65   am
    25     9     7   ar
    26   112   111   ar
    27    95    94    1
    28    95    98    1
    29    15    14    2
    30    66    67    1
    31    14    13    1
    32     6     7   ar
    33     6     5    1
    34    98    99    1
    35    51    52    2
    36    51    50    1
    37    12    13    1
    38     4     3    2
    39    13    16    1
    40   100    99   ar
    41    69    68    2
    42     5     2    1
    43    89    88    2
    44    67    68    1
    45    67    70    1
    46    99   101   ar
    47     3     2    1
    48    53    50    1
    49    53    54    1
    50    50    49    1
    51    88    87    1
    52     2     1    1
    53    70    71    1
    54    16    18    1
    55    16    17    1
    56    72    71    2
    57    71    73   am
    58    54    55   ar
    59    54    56   ar
    60    92    91    2
    61    17    19    1
    62    87    86    1
    63    87    90    1
    64    91    90    1
    65    91    93   am
    66    86    76   am
    67    20    21    1
    68    74    75    1
    69    21    24    1
    70    21    22    1
    71    35    33   ar
    72    76    75    1
    73    76    77    2
    74    24    25    1
    75    27    25   am
    76    75    78    1
    77    47    45    1
    78    25    26    2
    79    78    79    1
    80    22    28   am
    81    22    23    2
    82    33    32    1
    83    33    34   ar
    84    28    29    1
    85    32    29    1
    86    43    44    2
    87    43    42    1
    88    45    42    1
    89    45    46    1
    90    81    79   ar
    91    81    83   ar
    92    29    30    1
    93    79    80   ar
    94    48    46    1
    95    42    41    1
    96    83    84   ar
    97    36    30   am
    98    36    37    1
    99    80    82   ar
   100    30    31    2
   101    84    82   ar
   102    84    85    1
   103    40    37    1
   104    38    37    1
   105    38    39    2
