@<TRIPOS>MOLECULE
tmp/4ca5A00.pdb
 104 96 0 0 0
SMALL
GASTEIGER

@<TRIPOS>ATOM
      1  N         16.7380  -14.6840  -35.3670 N.3   245  SER245     -0.1217
      2  CA        18.0790  -15.1970  -35.6900 C.3   245  SER245      0.1889
      3  C         18.2990  -16.6810  -35.3910 C.2   245  SER245      0.2288
      4  O         19.3140  -17.2380  -35.8110 O.2   245  SER245     -0.2866
      5  CB        19.2010  -14.3390  -35.0990 C.3   245  SER245      0.2089
      6  OG        19.3100  -14.5530  -33.7000 O.3   245  SER245     -0.2183
      7  N         18.7080  -18.7650  -38.4700 N.3   248  TYR248     -0.1241
      8  CA        19.8590  -18.4290  -39.3160 C.3   248  TYR248      0.1605
      9  C         20.2580  -19.6020  -40.2320 C.2   248  TYR248      0.2264
     10  O         20.5310  -19.3900  -41.4190 O.2   248  TYR248     -0.2867
     11  CB        21.0460  -17.9610  -38.4750 C.3   248  TYR248      0.0534
     12  CG        22.3110  -17.6800  -39.2740 C.ar  248  TYR248     -0.0201
     13  CD1       22.4650  -16.4800  -39.9880 C.ar  248  TYR248     -0.0009
     14  CD2       23.3450  -18.6190  -39.3260 C.ar  248  TYR248     -0.0009
     15  CE1       23.6170  -16.2210  -40.7190 C.ar  248  TYR248      0.0417
     16  CE2       24.5140  -18.3660  -40.0550 C.ar  248  TYR248      0.0417
     17  CZ        24.6430  -17.1700  -40.7420 C.ar  248  TYR248      0.1957
     18  OH        25.8000  -16.9160  -41.4590 O.3   248  TYR248     -0.2866
     19  N         29.6140  -20.8160  -39.9040 N.3   259  SER259     -0.1202
     20  CA        30.0100  -20.2300  -38.6240 C.3   259  SER259      0.2020
     21  C         30.1360  -21.3360  -37.5840 C.2   259  SER259      0.2618
     22  O         29.4120  -22.3330  -37.6380 O.2   259  SER259     -0.2717
     23  CB        29.0000  -19.1700  -38.1460 C.3   259  SER259      0.2103
     24  OG        29.1330  -17.9590  -38.8770 O.3   259  SER259     -0.2182
     25  N         31.0560  -21.1500  -36.6410 N.am  260  MET260     -0.1979
     26  CA        31.2270  -22.0840  -35.5430 C.3   260  MET260      0.1605
     27  C         29.9220  -22.1950  -34.7570 C.2   260  MET260      0.2287
     28  O         29.2150  -21.1960  -34.5770 O.2   260  MET260     -0.2864
     29  CB        32.3610  -21.6190  -34.6320 C.3   260  MET260      0.0413
     30  CG        33.0130  -22.7370  -33.8460 C.3   260  MET260      0.0598
     31  SD        34.6090  -22.2300  -33.1940 S.3   260  MET260     -0.1393
     32  CE        34.9070  -23.5230  -31.9890 C.3   260  MET260      0.0692
     33  N         28.2210  -21.8080  -31.7840 N.3   262  THR262     -0.1218
     34  CA        28.5820  -21.0450  -30.5940 C.3   262  THR262      0.1862
     35  C         28.0910  -21.6970  -29.3030 C.2   262  THR262      0.2287
     36  O         28.7650  -21.5950  -28.2810 O.2   262  THR262     -0.2866
     37  CB        28.1090  -19.5810  -30.6650 C.3   262  THR262      0.1770
     38  OG1       26.6950  -19.5580  -30.8890 O.3   262  THR262     -0.2211
     39  CG2       28.8210  -18.8430  -31.8120 C.3   262  THR262      0.0375
     40  N         24.7900  -18.1740  -26.8810 N.3   336  LEU336     -0.1245
     41  CA        25.1050  -16.8080  -27.2940 C.3   336  LEU336      0.1561
     42  C         23.9290  -15.8620  -27.0660 C.2   336  LEU336      0.2260
     43  O         24.1240  -14.7190  -26.6440 O.2   336  LEU336     -0.2867
     44  CB        25.5890  -16.7490  -28.7500 C.3   336  LEU336      0.0270
     45  CG        25.9470  -15.3510  -29.2820 C.3   336  LEU336      0.0019
     46  CD1       27.0020  -14.6330  -28.4360 C.3   336  LEU336      0.0001
     47  CD2       26.3970  -15.4350  -30.7390 C.3   336  LEU336      0.0001
     48  N         29.0190   -8.7920  -30.1710 N.3   383  SER383     -0.1217
     49  CA        28.4770   -9.6440  -31.2330 C.3   383  SER383      0.1889
     50  C         29.3110   -9.6730  -32.5080 C.2   383  SER383      0.2288
     51  O         29.0830  -10.5310  -33.3560 O.2   383  SER383     -0.2866
     52  CB        27.0460   -9.2150  -31.5950 C.3   383  SER383      0.2089
     53  OG        26.1480   -9.4960  -30.5300 O.3   383  SER383     -0.2183
     54  N         32.0770  -10.5050  -35.2310 N.3   385  PRO385     -0.2116
     55  CA        32.9070  -11.6980  -35.4290 C.3   385  PRO385      0.1372
     56  C         34.2960  -11.5680  -34.8090 C.2   385  PRO385      0.2244
     57  O         34.8020  -12.5320  -34.2420 O.2   385  PRO385     -0.2868
     58  CB        33.0020  -11.8050  -36.9560 C.3   385  PRO385      0.0268
     59  CG        31.6880  -11.2390  -37.4200 C.3   385  PRO385      0.0207
     60  CD        31.4400  -10.0740  -36.4950 C.3   385  PRO385      0.0892
     61  N         33.8290  -11.9920  -30.9240 N.3   388  LEU388     -0.1245
     62  CA        33.4690  -13.3850  -30.6520 C.3   388  LEU388      0.1561
     63  C         34.6520  -14.3330  -30.8700 C.2   388  LEU388      0.2260
     64  O         34.8380  -15.2690  -30.0970 O.2   388  LEU388     -0.2867
     65  CB        32.2700  -13.8150  -31.4930 C.3   388  LEU388      0.0270
     66  CG        30.9700  -13.1440  -31.0440 C.3   388  LEU388      0.0019
     67  CD1       29.8340  -13.5430  -31.9660 C.3   388  LEU388      0.0001
     68  CD2       30.6490  -13.4840  -29.5940 C.3   388  LEU388      0.0001
     69  N         33.9000  -17.9480  -32.1140 N.3   394  LEU394     -0.1245
     70  CA        33.9350  -18.1010  -33.5650 C.3   394  LEU394      0.1561
     71  C         35.3870  -18.2960  -33.9830 C.2   394  LEU394      0.2260
     72  O         36.3060  -17.9320  -33.2500 O.2   394  LEU394     -0.2867
     73  CB        33.3680  -16.8590  -34.2690 C.3   394  LEU394      0.0270
     74  CG        31.8710  -16.5240  -34.1920 C.3   394  LEU394      0.0019
     75  CD1       31.6070  -15.2440  -34.9760 C.3   394  LEU394      0.0001
     76  CD2       30.9860  -17.6650  -34.6970 C.3   394  LEU394      0.0001
     77  N         27.1840  -12.1670  -41.4270 N.3   407  PHE407     -0.1241
     78  CA        27.1150  -11.5240  -40.1040 C.3   407  PHE407      0.1605
     79  C         25.9980  -10.4900  -40.0690 C.2   407  PHE407      0.2264
     80  O         25.2370  -10.4070  -39.1020 O.2   407  PHE407     -0.2867
     81  CB        28.4410  -10.8410  -39.7330 C.3   407  PHE407      0.0534
     82  CG        28.3270   -9.9530  -38.5280 C.ar  407  PHE407     -0.0203
     83  CD1       27.9740  -10.4880  -37.2860 C.ar  407  PHE407     -0.0042
     84  CD2       28.5330   -8.5750  -38.6380 C.ar  407  PHE407     -0.0042
     85  CE1       27.8460   -9.6710  -36.1680 C.ar  407  PHE407     -0.0003
     86  CE2       28.4010   -7.7470  -37.5210 C.ar  407  PHE407     -0.0003
     87  CZ        28.0630   -8.2980  -36.2880 C.ar  407  PHE407     -0.0000
     88  N         22.7720  -12.2290  -39.8460 N.3   410  LYS410     -0.1231
     89  CA        22.5660  -12.7060  -38.4820 C.3   410  LYS410      0.1693
     90  C         22.0420  -11.5760  -37.5880 C.2   410  LYS410      0.2591
     91  O         21.1120  -11.7740  -36.8000 O.2   410  LYS410     -0.2718
     92  CB        23.8420  -13.3290  -37.9100 C.3   410  LYS410      0.0285
     93  CG        23.7520  -13.6900  -36.4290 C.3   410  LYS410      0.0035
     94  CD        22.9180  -14.9490  -36.1660 C.3   410  LYS410      0.0206
     95  CE        22.6710  -15.1540  -34.6680 C.3   410  LYS410      0.1093
     96  NZ        23.8860  -15.6750  -33.9720 N.3   410  LYS410     -0.1314
     97  N         22.6140  -10.3850  -37.7370 N.am  411  MET411     -0.1979
     98  CA        22.1770   -9.2360  -36.9400 C.3   411  MET411      0.1605
     99  C         20.7960   -8.7410  -37.3570 C.2   411  MET411      0.2287
    100  O         19.9770   -8.4080  -36.4950 O.2   411  MET411     -0.2864
    101  CB        23.1850   -8.0830  -37.0300 C.3   411  MET411      0.0413
    102  CG        24.5440   -8.3890  -36.4250 C.3   411  MET411      0.0598
    103  SD        24.4860   -8.7810  -34.6690 S.3   411  MET411     -0.1393
    104  CE        23.8320   -7.2410  -34.0260 C.3   411  MET411      0.0692
@<TRIPOS>BOND
     1    18    17    1
     2    77    78    1
     3    10     9    2
     4    17    15   ar
     5    17    16   ar
     6    15    13   ar
     7     9     8    1
     8    78    79    1
     9    78    81    1
    10    79    80    2
    11    16    14   ar
    12    13    12   ar
    13    19    20    1
    14    88    89    1
    15    81    82    1
    16    14    12   ar
    17     8    11    1
    18     8     7    1
    19    12    11    1
    20    24    23    1
    21    84    82   ar
    22    84    86   ar
    23    20    23    1
    24    20    21    1
    25    82    83   ar
    26    89    92    1
    27    89    90    1
    28    92    93    1
    29    97    90   am
    30    97    98    1
    31    22    21    2
    32    90    91    2
    33    21    25   am
    34    86    87   ar
    35    59    58    1
    36    59    60    1
    37    99    98    1
    38    99   100    2
    39    83    85   ar
    40   101    98    1
    41   101   102    1
    42    58    55    1
    43    25    26    1
    44    60    54    1
    45    93    94    1
    46   102   103    1
    47    87    85   ar
    48    94    95    1
    49     4     3    2
    50     2     3    1
    51     2     1    1
    52     2     5    1
    53    26    27    1
    54    26    29    1
    55    55    54    1
    56    55    56    1
    57     5     6    1
    58    75    74    1
    59    56    57    2
    60    27    28    2
    61    76    74    1
    62   103   104    1
    63    95    96    1
    64    29    30    1
    65    73    74    1
    66    73    70    1
    67    71    70    1
    68    71    72    2
    69    30    31    1
    70    70    69    1
    71    51    50    2
    72    31    32    1
    73    50    49    1
    74    67    66    1
    75    39    37    1
    76    33    34    1
    77    52    49    1
    78    52    53    1
    79    65    66    1
    80    65    62    1
    81    49    48    1
    82    66    68    1
    83    61    62    1
    84    38    37    1
    85    63    62    1
    86    63    64    2
    87    47    45    1
    88    37    34    1
    89    34    35    1
    90    35    36    2
    91    45    44    1
    92    45    46    1
    93    44    41    1
    94    41    42    1
    95    41    40    1
    96    42    43    2
