@<TRIPOS>MOLECULE
tmp/4cabA00.pdb
 232 222 0 0 0
SMALL
GASTEIGER

@<TRIPOS>ATOM
      1  N         83.3480   56.0930   40.7010 N.3    49  ARG49      -0.1231
      2  CA        83.3530   55.8700   42.1390 C.3    49  ARG49       0.1694
      3  C         82.7840   54.4900   42.4500 C.2    49  ARG49       0.2592
      4  O         81.7820   54.0880   41.8610 O.2    49  ARG49      -0.2718
      5  CB        82.5460   56.9550   42.8520 C.3    49  ARG49       0.0321
      6  CG        83.0820   58.3630   42.6780 C.3    49  ARG49       0.0489
      7  CD        82.0600   59.3980   43.1270 C.3    49  ARG49       0.2205
      8  NE        82.6000   60.7540   43.1080 N.pl3  49  ARG49      -0.0865
      9  CZ        82.7050   61.5030   42.0160 C.cat  49  ARG49       0.5346
     10  NH1       82.3120   61.0310   40.8420 N.pl3  49  ARG49       0.1354
     11  NH2       83.2100   62.7240   42.0970 N.pl3  49  ARG49       0.1354
     12  N         83.4220   53.7640   43.3640 N.am   50  VAL50      -0.1966
     13  CA        82.9820   52.4130   43.7050 C.3    50  VAL50       0.1727
     14  C         81.5720   52.4530   44.2970 C.2    50  VAL50       0.2616
     15  O         80.7910   51.5120   44.1470 O.2    50  VAL50      -0.2715
     16  CB        83.9650   51.7220   44.6840 C.3    50  VAL50       0.0290
     17  CG1       84.0630   52.4860   45.9930 C.3    50  VAL50       0.0023
     18  CG2       83.5580   50.2760   44.9290 C.3    50  VAL50       0.0023
     19  N         81.2490   53.5630   44.9520 N.am   51  VAL51      -0.1963
     20  CA        79.8880   53.8480   45.3820 C.3    51  VAL51       0.1727
     21  C         79.5820   55.3100   45.0810 C.2    51  VAL51       0.2616
     22  O         80.4940   56.1300   45.0180 O.2    51  VAL51      -0.2715
     23  CB        79.6820   53.5560   46.8790 C.3    51  VAL51       0.0290
     24  CG1       79.5950   52.0600   47.1240 C.3    51  VAL51       0.0023
     25  CG2       80.7990   54.1680   47.6970 C.3    51  VAL51       0.0023
     26  N         78.3020   55.6210   44.8960 N.am   52  HIS52      -0.1973
     27  CA        77.8510   56.9590   44.5080 C.3    52  HIS52       0.1656
     28  C         78.4270   57.3740   43.1560 C.2    52  HIS52       0.2291
     29  O         78.8950   58.4990   42.9960 O.2    52  HIS52      -0.2864
     30  CB        78.2280   58.0010   45.5660 C.3    52  HIS52       0.0771
     31  CG        77.6460   57.7380   46.9190 C.ar   52  HIS52       0.0820
     32  ND1       76.6390   58.5090   47.4580 N.ar   52  HIS52      -0.2267
     33  CD2       77.9440   56.8030   47.8510 C.ar   52  HIS52       0.1154
     34  CE1       76.3340   58.0530   48.6590 C.ar   52  HIS52       0.1986
     35  NE2       77.1120   57.0190   48.9220 N.ar   52  HIS52      -0.2212
     36  N         77.9440   67.8250   45.7260 N.3    94  ARG94      -0.1245
     37  CA        77.6120   66.7650   44.7840 C.3    94  ARG94       0.1563
     38  C         76.5390   65.8450   45.3550 C.2    94  ARG94       0.2260
     39  O         76.7300   65.2340   46.4050 O.2    94  ARG94      -0.2867
     40  CB        78.8510   65.9490   44.4180 C.3    94  ARG94       0.0307
     41  CG        78.5840   64.8910   43.3610 C.3    94  ARG94       0.0489
     42  CD        79.8260   64.0830   43.0380 C.3    94  ARG94       0.2205
     43  NE        79.5710   63.0960   41.9920 N.pl3  94  ARG94      -0.0865
     44  CZ        79.1550   61.8540   42.2240 C.cat  94  ARG94       0.5346
     45  NH1       78.9390   61.4490   43.4660 N.pl3  94  ARG94       0.1354
     46  NH2       78.9490   61.0200   41.2140 N.pl3  94  ARG94       0.1354
     47  N         74.0610   62.4240   44.7930 N.3    96  SER96      -0.1217
     48  CA        74.2780   61.1330   44.1500 C.3    96  SER96       0.1889
     49  C         73.3790   60.0270   44.6900 C.2    96  SER96       0.2288
     50  O         72.7640   60.1680   45.7460 O.2    96  SER96      -0.2866
     51  CB        75.7400   60.7140   44.3120 C.3    96  SER96       0.2089
     52  OG        76.0810   60.5820   45.6810 O.3    96  SER96      -0.2183
     53  N         73.2790   60.6200   48.1830 N.3   113  GLY113     -0.1210
     54  CA        74.4850   61.3030   48.6070 C.3   113  GLY113      0.1956
     55  C         74.2980   62.8010   48.7310 C.2   113  GLY113      0.2612
     56  O         73.5920   63.4190   47.9370 O.2   113  GLY113     -0.2717
     57  N         74.9370   63.3800   49.7420 N.am  114  PHE114     -0.1962
     58  CA        74.8680   64.8120   50.0000 C.3   114  PHE114      0.1771
     59  C         76.2210   65.2780   50.5250 C.2   114  PHE114      0.2619
     60  O         76.3890   65.4910   51.7250 O.2   114  PHE114     -0.2715
     61  CB        73.7500   65.1280   51.0000 C.3   114  PHE114      0.0574
     62  CG        73.2430   66.5490   50.9360 C.ar  114  PHE114     -0.0200
     63  CD1       74.1080   67.6130   50.7420 C.ar  114  PHE114     -0.0042
     64  CD2       71.8920   66.8150   51.0750 C.ar  114  PHE114     -0.0042
     65  CE1       73.6360   68.9110   50.6890 C.ar  114  PHE114     -0.0003
     66  CE2       71.4140   68.1100   51.0240 C.ar  114  PHE114     -0.0003
     67  CZ        72.2880   69.1580   50.8300 C.ar  114  PHE114     -0.0000
     68  N         77.1840   65.4260   49.6220 N.am  115  ALA115     -0.1977
     69  CA        78.5400   65.8000   50.0070 C.3   115  ALA115      0.1597
     70  C         78.8040   67.2850   49.7770 C.2   115  ALA115      0.2287
     71  O         78.6020   67.7970   48.6780 O.2   115  ALA115     -0.2864
     72  CB        79.5530   64.9610   49.2440 C.3   115  ALA115      0.0319
     73  N         80.7730   64.7980   54.3200 N.3   128  VAL128     -0.1231
     74  CA        80.3270   63.7170   53.4500 C.3   128  VAL128      0.1692
     75  C         79.1610   62.9600   54.0710 C.2   128  VAL128      0.2593
     76  O         79.3580   62.0420   54.8650 O.2   128  VAL128     -0.2718
     77  CB        81.4670   62.7320   53.1560 C.3   128  VAL128      0.0266
     78  CG1       81.0980   61.8290   51.9910 C.3   128  VAL128      0.0020
     79  CG2       82.7470   63.4860   52.8610 C.3   128  VAL128      0.0020
     80  N         77.9450   63.3510   53.7080 N.am  129  GLY129     -0.1942
     81  CA        76.7600   62.7470   54.2840 C.3   129  GLY129      0.2014
     82  C         75.7060   62.3120   53.2860 C.2   129  GLY129      0.2638
     83  O         75.8720   62.4600   52.0770 O.2   129  GLY129     -0.2714
     84  N         74.6160   61.7600   53.8090 N.am  130  ASN130     -0.1972
     85  CA        73.4900   61.3280   52.9910 C.3   130  ASN130      0.1688
     86  C         72.2060   62.0500   53.3730 C.2   130  ASN130      0.2292
     87  O         72.2010   62.8970   54.2650 O.2   130  ASN130     -0.2864
     88  CB        73.2820   59.8160   53.1110 C.3   130  ASN130      0.1181
     89  CG        74.3540   59.0200   52.4020 C.2   130  ASN130      0.2629
     90  OD1       75.0360   59.5290   51.5150 O.2   130  ASN130     -0.2716
     91  ND2       74.5060   57.7600   52.7880 N.am  130  ASN130     -0.0877
     92  N         72.5330   54.8570   58.7770 N.3   135  PHE135     -0.1241
     93  CA        73.0990   53.9800   57.7610 C.3   135  PHE135      0.1605
     94  C         72.7870   52.5170   58.0710 C.2   135  PHE135      0.2264
     95  O         72.2160   52.2040   59.1140 O.2   135  PHE135     -0.2867
     96  CB        74.6080   54.1990   57.6500 C.3   135  PHE135      0.0534
     97  CG        75.1720   53.8540   56.3040 C.ar  135  PHE135     -0.0203
     98  CD1       74.9340   54.6680   55.2120 C.ar  135  PHE135     -0.0042
     99  CD2       75.9490   52.7230   56.1330 C.ar  135  PHE135     -0.0042
    100  CE1       75.4510   54.3550   53.9730 C.ar  135  PHE135     -0.0003
    101  CE2       76.4720   52.4070   54.8970 C.ar  135  PHE135     -0.0003
    102  CZ        76.2230   53.2230   53.8160 C.ar  135  PHE135     -0.0000
    103  N         82.6650   49.7190   59.9060 N.3   140  ALA140     -0.1245
    104  CA        83.1260   49.9300   58.5380 C.3   140  ALA140      0.1562
    105  C         83.6590   48.6550   57.8890 C.2   140  ALA140      0.2260
    106  O         83.8050   48.5880   56.6700 O.2   140  ALA140     -0.2867
    107  CB        84.1890   51.0130   58.5090 C.3   140  ALA140      0.0290
    108  N         81.3150   47.1970   55.3350 N.3   143  PHE143     -0.1228
    109  CA        80.9570   48.0230   54.1830 C.3   143  PHE143      0.1721
    110  C         81.1080   47.3130   52.8310 C.2   143  PHE143      0.2437
    111  O         80.2000   47.3850   52.0060 O.2   143  PHE143     -0.2733
    112  CB        81.7670   49.3230   54.1810 C.3   143  PHE143      0.0547
    113  CG        81.2830   50.3310   53.1790 C.ar  143  PHE143     -0.0202
    114  CD1       80.1350   51.0650   53.4180 C.ar  143  PHE143     -0.0042
    115  CD2       81.9690   50.5370   51.9950 C.ar  143  PHE143     -0.0042
    116  CE1       79.6830   51.9890   52.4980 C.ar  143  PHE143     -0.0003
    117  CE2       81.5210   51.4600   51.0720 C.ar  143  PHE143     -0.0003
    118  CZ        80.3770   52.1870   51.3240 C.ar  143  PHE143     -0.0000
    119  N         82.2450   46.6330   52.5860 N.am  144  PRO144     -0.2729
    120  CA        82.2950   45.9390   51.2940 C.3   144  PRO144      0.1401
    121  C         81.3200   44.7630   51.2110 C.2   144  PRO144      0.2269
    122  O         80.9480   44.3620   50.1110 O.2   144  PRO144     -0.2865
    123  CB        83.7480   45.4590   51.2040 C.3   144  PRO144      0.0296
    124  CG        84.2290   45.4290   52.6000 C.3   144  PRO144      0.0237
    125  CD        83.5290   46.5400   53.3050 C.3   144  PRO144      0.0939
    126  N         75.1300   61.9600   59.2070 N.3   199  VAL199     -0.1231
    127  CA        74.8910   60.5910   59.6680 C.3   199  VAL199      0.1692
    128  C         75.7520   60.1980   60.8710 C.2   199  VAL199      0.2592
    129  O         75.2280   59.8380   61.9240 O.2   199  VAL199     -0.2718
    130  CB        75.1240   59.5660   58.5420 C.3   199  VAL199      0.0266
    131  CG1       74.7280   58.1810   59.0110 C.3   199  VAL199      0.0020
    132  CG2       74.3380   59.9560   57.3000 C.3   199  VAL199      0.0020
    133  N         77.0690   60.2600   60.7080 N.am  200  ASN200     -0.1974
    134  CA        77.9940   59.9200   61.7820 C.3   200  ASN200      0.1688
    135  C         78.0200   60.9670   62.8880 C.2   200  ASN200      0.2292
    136  O         77.5280   62.0790   62.7150 O.2   200  ASN200     -0.2864
    137  CB        79.4060   59.7370   61.2240 C.3   200  ASN200      0.1181
    138  CG        79.5320   58.5100   60.3480 C.2   200  ASN200      0.2629
    139  OD1       79.8240   58.6100   59.1570 O.2   200  ASN200     -0.2716
    140  ND2       79.3230   57.3410   60.9380 N.am  200  ASN200     -0.0877
    141  N         75.8230   54.8810   64.3710 N.3   281  ASP281     -0.1239
    142  CA        75.2850   55.6220   63.2360 C.3   281  ASP281      0.1674
    143  C         74.0070   54.9970   62.6840 C.2   281  ASP281      0.2266
    144  O         73.4850   55.4390   61.6630 O.2   281  ASP281     -0.2867
    145  CB        76.3300   55.7320   62.1270 C.3   281  ASP281      0.1410
    146  CG        76.6190   54.4030   61.4720 C.2   281  ASP281      0.3668
    147  OD1       76.5360   53.3690   62.1660 O.co2 281  ASP281     -0.2456
    148  OD2       76.9230   54.3950   60.2610 O.co2 281  ASP281     -0.2456
    149  N         85.5440   65.6610   41.5820 N.3   314  ALA314     -0.1245
    150  CA        85.3740   66.1020   42.9630 C.3   314  ALA314      0.1562
    151  C         85.6750   64.9780   43.9480 C.2   314  ALA314      0.2260
    152  O         85.2320   63.8460   43.7650 O.2   314  ALA314     -0.2867
    153  CB        83.9680   66.6290   43.1780 C.3   314  ALA314      0.0290
    154  N         85.7520   63.9960   48.1150 N.3   316  PHE316     -0.1241
    155  CA        85.3580   64.3360   49.4740 C.3   316  PHE316      0.1605
    156  C         85.9080   63.3130   50.4630 C.2   316  PHE316      0.2264
    157  O         85.9360   62.1190   50.1740 O.2   316  PHE316     -0.2867
    158  CB        83.8340   64.4080   49.5880 C.3   316  PHE316      0.0534
    159  CG        83.1890   65.3440   48.6040 C.ar  316  PHE316     -0.0203
    160  CD1       82.8390   64.9060   47.3370 C.ar  316  PHE316     -0.0042
    161  CD2       82.9160   66.6560   48.9520 C.ar  316  PHE316     -0.0042
    162  CE1       82.2410   65.7610   46.4330 C.ar  316  PHE316     -0.0003
    163  CE2       82.3170   67.5160   48.0520 C.ar  316  PHE316     -0.0003
    164  CZ        81.9800   67.0680   46.7910 C.ar  316  PHE316     -0.0000
    165  N         82.3790   53.6700   62.6120 N.3   332  MET332     -0.1245
    166  CA        82.0200   53.8300   61.2130 C.3   332  MET332      0.1570
    167  C         82.7530   55.0170   60.5970 C.2   332  MET332      0.2261
    168  O         83.2850   54.9250   59.4920 O.2   332  MET332     -0.2867
    169  CB        80.5100   54.0160   61.0750 C.3   332  MET332      0.0387
    170  CG        79.9930   53.8650   59.6640 C.3   332  MET332      0.0595
    171  SD        79.9560   52.1560   59.1050 S.3   332  MET332     -0.1393
    172  CE        79.0850   52.3690   57.5600 C.3   332  MET332      0.0692
    173  N         86.5000   54.5280   60.0820 N.3   335  GLY335     -0.1210
    174  CA        86.6920   53.5870   58.9950 C.3   335  GLY335      0.1956
    175  C         86.5880   54.2550   57.6390 C.2   335  GLY335      0.2611
    176  O         87.3530   53.9480   56.7270 O.2   335  GLY335     -0.2717
    177  N         85.6290   55.1680   57.5080 N.am  336  ARG336     -0.1979
    178  CA        85.4430   55.9360   56.2810 C.3   336  ARG336      0.1597
    179  C         86.6950   56.7260   55.9220 C.2   336  ARG336      0.2287
    180  O         87.1310   56.7310   54.7720 O.2   336  ARG336     -0.2864
    181  CB        84.2600   56.8940   56.4230 C.3   336  ARG336      0.0334
    182  CG        82.9240   56.2180   56.6170 C.3   336  ARG336      0.0492
    183  CD        81.8450   57.2310   56.9370 C.3   336  ARG336      0.2205
    184  NE        81.6050   58.1380   55.8220 N.pl3 336  ARG336     -0.0865
    185  CZ        80.7630   59.1640   55.8680 C.cat 336  ARG336      0.5346
    186  NH1       80.0850   59.4180   56.9780 N.pl3 336  ARG336      0.1354
    187  NH2       80.6030   59.9390   54.8060 N.pl3 336  ARG336      0.1354
    188  N         89.2160   55.0560   53.7280 N.3   339  SER339     -0.1202
    189  CA        88.8400   54.6530   52.3770 C.3   339  SER339      0.2020
    190  C         88.8100   55.7850   51.3580 C.2   339  SER339      0.2618
    191  O         89.1010   55.5650   50.1830 O.2   339  SER339     -0.2717
    192  CB        87.4730   53.9720   52.4040 C.3   339  SER339      0.2103
    193  OG        87.5570   52.7090   53.0340 O.3   339  SER339     -0.2182
    194  N         88.4550   56.9890   51.7970 N.am  340  TYR340     -0.1975
    195  CA        88.3120   58.1080   50.8700 C.3   340  TYR340      0.1639
    196  C         89.6440   58.4730   50.2270 C.2   340  TYR340      0.2290
    197  O         89.7520   58.5200   49.0050 O.2   340  TYR340     -0.2864
    198  CB        87.7120   59.3230   51.5790 C.3   340  TYR340      0.0560
    199  CG        86.2560   59.1390   51.9390 C.ar  340  TYR340     -0.0198
    200  CD1       85.2800   59.0640   50.9550 C.ar  340  TYR340     -0.0009
    201  CD2       85.8590   59.0400   53.2620 C.ar  340  TYR340     -0.0009
    202  CE1       83.9490   58.8910   51.2820 C.ar  340  TYR340      0.0417
    203  CE2       84.5330   58.8660   53.5980 C.ar  340  TYR340      0.0417
    204  CZ        83.5820   58.7920   52.6070 C.ar  340  TYR340      0.1957
    205  OH        82.2610   58.6200   52.9490 O.3   340  TYR340     -0.2866
    206  N         90.9130   55.5460   47.9470 N.3   343  THR343     -0.1203
    207  CA        90.2590   55.3530   46.6580 C.3   343  THR343      0.1994
    208  C         90.4560   56.5360   45.7120 C.2   343  THR343      0.2617
    209  O         90.3950   56.3750   44.4950 O.2   343  THR343     -0.2717
    210  CB        88.7420   55.1020   46.8290 C.3   343  THR343      0.1784
    211  OG1       88.1920   54.6050   45.6030 O.3   343  THR343     -0.2211
    212  CG2       88.0170   56.3790   47.2210 C.3   343  THR343      0.0376
    213  N         90.7110   57.7160   46.2690 N.am  344  GLN344     -0.1979
    214  CA        90.7790   58.9310   45.4650 C.3   344  GLN344      0.1601
    215  C         92.1340   59.0930   44.7850 C.2   344  GLN344      0.2287
    216  O         92.2240   59.6890   43.7140 O.2   344  GLN344     -0.2864
    217  CB        90.4540   60.1540   46.3260 C.3   344  GLN344      0.0394
    218  CG        88.9550   60.3450   46.5460 C.3   344  GLN344      0.0908
    219  CD        88.6270   61.1020   47.8180 C.2   344  GLN344      0.2608
    220  OE1       89.4880   61.7460   48.4140 O.2   344  GLN344     -0.2717
    221  NE2       87.3720   61.0210   48.2430 N.am  344  GLN344     -0.0878
    222  N         91.4000   56.7630   41.8670 N.3   347  ARG347     -0.1245
    223  CA        90.3480   57.2190   40.9660 C.3   347  ARG347      0.1563
    224  C         90.6790   58.5460   40.2930 C.2   347  ARG347      0.2260
    225  O         90.7610   58.6260   39.0680 O.2   347  ARG347     -0.2867
    226  CB        89.0230   57.3440   41.7190 C.3   347  ARG347      0.0307
    227  CG        87.8580   57.7640   40.8420 C.3   347  ARG347      0.0489
    228  CD        86.5480   57.7780   41.6090 C.3   347  ARG347      0.2205
    229  NE        86.4980   58.8360   42.6140 N.pl3 347  ARG347     -0.0865
    230  CZ        86.1380   60.0900   42.3610 C.cat 347  ARG347      0.5346
    231  NH1       85.8010   60.4510   41.1320 N.pl3 347  ARG347      0.1354
    232  NH2       86.1180   60.9850   43.3380 N.pl3 347  ARG347      0.1354
@<TRIPOS>BOND
     1   225   224    2
     2   224   223    1
     3     1     2    1
     4   227   228    1
     5   227   226    1
     6    10     9    1
     7   223   226    1
     8   223   222    1
     9   231   230    1
    10    46    44    1
    11   149   150    1
    12   228   229    1
    13     4     3    2
    14    43    44    2
    15    43    42    1
    16     9    11    1
    17     9     8    2
    18     2     3    1
    19     2     5    1
    20    44    45    1
    21   230   229    2
    22   230   232    1
    23     3    12   am
    24     6     5    1
    25     6     7    1
    26   150   153    1
    27   150   151    1
    28    29    28    2
    29    42    41    1
    30     8     7    1
    31    28    27    1
    32    41    40    1
    33    12    13    1
    34    13    14    1
    35    13    16    1
    36   216   215    2
    37   152   151    2
    38    15    14    2
    39    48    51    1
    40    48    49    1
    41    48    47    1
    42    14    19   am
    43    51    52    1
    44    40    37    1
    45   209   208    2
    46    27    26    1
    47    27    30    1
    48    16    18    1
    49    16    17    1
    50    49    50    2
    51    37    38    1
    52    37    36    1
    53   215   214    1
    54    26    21   am
    55    19    20    1
    56    22    21    2
    57    21    20    1
    58    38    39    2
    59    20    23    1
    60   214   213    1
    61   214   217    1
    62    30    31    1
    63   211   210    1
    64   208   213   am
    65   208   207    1
    66   217   218    1
    67   162   164   ar
    68   162   160   ar
    69   218   219    1
    70   207   210    1
    71   207   206    1
    72   164   163   ar
    73   210   212    1
    74    23    24    1
    75    23    25    1
    76    31    32   ar
    77    31    33   ar
    78   160   159   ar
    79    32    34   ar
    80   219   221   am
    81   219   220    2
    82    33    35   ar
    83    56    55    2
    84   163   161   ar
    85   154   155    1
    86    53    54    1
    87   159   161   ar
    88   159   158    1
    89    54    55    1
    90    34    35   ar
    91    71    70    2
    92    55    57   am
    93   197   196    2
    94    72    69    1
    95   155   158    1
    96   155   156    1
    97    68    69    1
    98    68    59   am
    99    57    58    1
   100    70    69    1
   101    58    59    1
   102    58    61    1
   103   122   121    2
   104   157   156    2
   105   191   190    2
   106   196   195    1
   107    59    60    2
   108    65    63   ar
   109    65    67   ar
   110    63    62   ar
   111    67    66   ar
   112   195   198    1
   113   195   194    1
   114    62    61    1
   115    62    64   ar
   116   200   202   ar
   117   200   199   ar
   118    66    64   ar
   119   117   118   ar
   120   117   115   ar
   121   123   120    1
   122   123   124    1
   123   121   120    1
   124   202   204   ar
   125   120   119    1
   126   118   116   ar
   127   190   194   am
   128   190   189    1
   129    90    89    2
   130   198   199    1
   131   199   201   ar
   132    78    77    1
   133   115   113   ar
   134   111   110    2
   135    83    82    2
   136   189   192    1
   137   189   188    1
   138    89    91   am
   139    89    88    1
   140   192   193    1
   141   116   114   ar
   142   119   110   am
   143   119   125    1
   144   124   125    1
   145   204   205    1
   146   204   203   ar
   147   110   109    1
   148    79    77    1
   149    85    88    1
   150    85    86    1
   151    85    84    1
   152    77    74    1
   153   113   114   ar
   154   113   112    1
   155   201   203   ar
   156    82    84   am
   157    82    81    1
   158    86    87    2
   159    74    75    1
   160    74    73    1
   161    80    75   am
   162    80    81    1
   163   102   100   ar
   164   102   101   ar
   165   100    98   ar
   166    75    76    2
   167   112   109    1
   168   109   108    1
   169   180   179    2
   170   187   185    1
   171   101    99   ar
   172    98    97   ar
   173   184   185    2
   174   184   183    1
   175   185   186    1
   176   179   178    1
   177    99    97   ar
   178   178   181    1
   179   178   177    1
   180    97    96    1
   181   181   182    1
   182   182   183    1
   183   106   105    2
   184   176   175    2
   185   132   130    1
   186   177   175   am
   187   172   171    1
   188   175   174    1
   189    96    93    1
   190    93    94    1
   191    93    92    1
   192   105   104    1
   193    94    95    2
   194   107   104    1
   195   104   103    1
   196   130   131    1
   197   130   127    1
   198   174   173    1
   199   171   170    1
   200   139   138    2
   201   126   127    1
   202   168   167    2
   203   170   169    1
   204   127   128    1
   205   148   146   ar
   206   138   140   am
   207   138   137    1
   208   167   166    1
   209   133   128   am
   210   133   134    1
   211   128   129    2
   212   169   166    1
   213   166   165    1
   214   137   134    1
   215   146   145    1
   216   146   147   ar
   217   144   143    2
   218   134   135    1
   219   145   142    1
   220   143   142    1
   221   136   135    2
   222   142   141    1
