@<TRIPOS>MOLECULE
tmp/4cadL00.pdb
 88 85 0 0 0
SMALL
GASTEIGER

@<TRIPOS>ATOM
      1  N       -100.5810   -6.9410   -6.5460 N.3    79  PHE79      -0.1227
      2  CA      -101.8730   -7.3860   -7.0600 C.3    79  PHE79       0.1736
      3  C       -102.8940   -6.2690   -7.2570 C.2    79  PHE79       0.2595
      4  O       -103.7470   -6.3540   -8.1420 O.2    79  PHE79      -0.2718
      5  CB      -102.4680   -8.4550   -6.1400 C.3    79  PHE79       0.0547
      6  CG      -102.1960   -9.8600   -6.5880 C.ar   79  PHE79      -0.0202
      7  CD1     -100.9810  -10.4660   -6.3150 C.ar   79  PHE79      -0.0042
      8  CD2     -103.1540  -10.5760   -7.2880 C.ar   79  PHE79      -0.0042
      9  CE1     -100.7270  -11.7600   -6.7280 C.ar   79  PHE79      -0.0003
     10  CE2     -102.9080  -11.8710   -7.7020 C.ar   79  PHE79      -0.0003
     11  CZ      -101.6920  -12.4650   -7.4220 C.ar   79  PHE79      -0.0000
     12  N       -102.8090   -5.2240   -6.4390 N.am   80  LEU80      -0.1980
     13  CA      -103.8910   -4.2450   -6.3610 C.3    80  LEU80       0.1596
     14  C       -103.5370   -2.8200   -6.7950 C.2    80  LEU80       0.2287
     15  O       -104.3870   -1.9320   -6.7370 O.2    80  LEU80      -0.2864
     16  CB      -104.4640   -4.2210   -4.9420 C.3    80  LEU80       0.0297
     17  CG      -104.9870   -5.5600   -4.4220 C.3    80  LEU80       0.0022
     18  CD1     -105.2940   -5.4740   -2.9360 C.3    80  LEU80       0.0001
     19  CD2     -106.2170   -5.9870   -5.2040 C.3    80  LEU80       0.0001
     20  N       -105.7140   -1.9790  -10.1640 N.3    83  PRO83      -0.2116
     21  CA      -107.1260   -1.6930   -9.8830 C.3    83  PRO83       0.1372
     22  C       -107.3260   -0.3680   -9.1520 C.2    83  PRO83       0.2244
     23  O       -108.3150    0.3170   -9.4010 O.2    83  PRO83      -0.2868
     24  CB      -107.5410   -2.8580   -8.9840 C.3    83  PRO83       0.0268
     25  CG      -106.6690   -3.9730   -9.4170 C.3    83  PRO83       0.0207
     26  CD      -105.3430   -3.3380   -9.7250 C.3    83  PRO83       0.0892
     27  N       -115.6450   -6.5100  -16.9560 N.3   105  PHE105     -0.1241
     28  CA      -115.0620   -7.2050  -18.0950 C.3   105  PHE105      0.1605
     29  C       -115.7230   -6.7100  -19.3760 C.2   105  PHE105      0.2264
     30  O       -116.9400   -6.5280  -19.4250 O.2   105  PHE105     -0.2867
     31  CB      -115.2380   -8.7180  -17.9550 C.3   105  PHE105      0.0534
     32  CG      -114.2420   -9.3650  -17.0340 C.ar  105  PHE105     -0.0203
     33  CD1     -112.9100   -8.9830  -17.0530 C.ar  105  PHE105     -0.0042
     34  CD2     -114.6380  -10.3560  -16.1500 C.ar  105  PHE105     -0.0042
     35  CE1     -111.9930   -9.5800  -16.2110 C.ar  105  PHE105     -0.0003
     36  CE2     -113.7250  -10.9540  -15.3020 C.ar  105  PHE105     -0.0003
     37  CZ      -112.4010  -10.5660  -15.3320 C.ar  105  PHE105     -0.0000
     38  N       -111.8320  -17.5950  -22.7520 N.3   111  PHE111     -0.1241
     39  CA      -111.2380  -16.9930  -21.5580 C.3   111  PHE111      0.1605
     40  C       -109.7790  -17.3910  -21.3220 C.2   111  PHE111      0.2264
     41  O       -108.9250  -16.5370  -21.0850 O.2   111  PHE111     -0.2867
     42  CB      -112.0620  -17.3330  -20.3130 C.3   111  PHE111      0.0534
     43  CG      -111.7540  -16.4600  -19.1280 C.ar  111  PHE111     -0.0203
     44  CD1     -111.2150  -15.1970  -19.3080 C.ar  111  PHE111     -0.0042
     45  CD2     -111.9970  -16.9020  -17.8370 C.ar  111  PHE111     -0.0042
     46  CE1     -110.9270  -14.3880  -18.2260 C.ar  111  PHE111     -0.0003
     47  CE2     -111.7100  -16.0950  -16.7490 C.ar  111  PHE111     -0.0003
     48  CZ      -111.1730  -14.8370  -16.9470 C.ar  111  PHE111     -0.0000
     49  N       -100.0880   -9.4740  -14.3660 N.3   214  LEU214     -0.1245
     50  CA      -101.2590   -8.8930  -13.7140 C.3   214  LEU214      0.1561
     51  C       -101.5930   -7.5030  -14.2550 C.2   214  LEU214      0.2260
     52  O       -102.7600   -7.1220  -14.3260 O.2   214  LEU214     -0.2867
     53  CB      -101.0640   -8.8400  -12.1950 C.3   214  LEU214      0.0270
     54  CG      -100.9620  -10.1870  -11.4750 C.3   214  LEU214      0.0019
     55  CD1     -100.5890   -9.9950  -10.0080 C.3   214  LEU214      0.0001
     56  CD2     -102.2620  -10.9650  -11.6060 C.3   214  LEU214      0.0001
     57  N       -103.3630   -7.9760  -17.5560 N.3   217  LEU217     -0.1231
     58  CA      -104.7060   -8.4940  -17.3660 C.3   217  LEU217      0.1693
     59  C       -105.6590   -7.3720  -17.0100 C.2   217  LEU217      0.2592
     60  O       -106.7730   -7.3070  -17.5180 O.2   217  LEU217     -0.2718
     61  CB      -104.7190   -9.5350  -16.2510 C.3   217  LEU217      0.0284
     62  CG      -104.3380  -10.9610  -16.6340 C.3   217  LEU217      0.0019
     63  CD1     -104.0910  -11.7830  -15.3820 C.3   217  LEU217      0.0001
     64  CD2     -105.4240  -11.5920  -17.4860 C.3   217  LEU217      0.0001
     65  N       -105.2130   -6.4880  -16.1290 N.am  218  ASN218     -0.1974
     66  CA      -106.0230   -5.3520  -15.7300 C.3   218  ASN218      0.1688
     67  C       -106.2890   -4.4010  -16.8870 C.2   218  ASN218      0.2292
     68  O       -107.4010   -3.9090  -17.0520 O.2   218  ASN218     -0.2864
     69  CB      -105.3700   -4.6140  -14.5640 C.3   218  ASN218      0.1181
     70  CG      -105.4350   -5.4000  -13.2750 C.2   218  ASN218      0.2629
     71  OD1     -106.3740   -5.2570  -12.4960 O.2   218  ASN218     -0.2716
     72  ND2     -104.4380   -6.2410  -13.0440 N.am  218  ASN218     -0.0877
     73  N       -108.3250   -6.7170  -20.0110 N.3   221  LEU221     -0.1231
     74  CA      -109.6030   -7.3480  -19.6890 C.3   221  LEU221      0.1693
     75  C       -110.6650   -6.3650  -19.2100 C.2   221  LEU221      0.2591
     76  O       -111.8410   -6.5120  -19.5380 O.2   221  LEU221     -0.2718
     77  CB      -109.4140   -8.4620  -18.6570 C.3   221  LEU221      0.0284
     78  CG      -109.1810   -9.8760  -19.1950 C.3   221  LEU221      0.0019
     79  CD1     -108.1020   -9.8990  -20.2720 C.3   221  LEU221      0.0001
     80  CD2     -108.8210  -10.8190  -18.0540 C.3   221  LEU221      0.0001
     81  N       -110.2590   -5.3740  -18.4270 N.am  222  LEU222     -0.1980
     82  CA      -111.2080   -4.3880  -17.9230 C.3   222  LEU222      0.1596
     83  C       -111.6180   -3.4210  -19.0300 C.2   222  LEU222      0.2287
     84  O       -110.7880   -2.9970  -19.8350 O.2   222  LEU222     -0.2864
     85  CB      -110.6380   -3.6360  -16.7180 C.3   222  LEU222      0.0297
     86  CG      -110.4920   -4.4610  -15.4350 C.3   222  LEU222      0.0022
     87  CD1     -109.8780   -3.6340  -14.3160 C.3   222  LEU222      0.0001
     88  CD2     -111.8380   -5.0280  -15.0060 C.3   222  LEU222      0.0001
@<TRIPOS>BOND
     1    38    39    1
     2    39    40    1
     3    39    42    1
     4    40    41    2
     5    42    43    1
     6    79    78    1
     7    73    74    1
     8    84    83    2
     9    74    75    1
    10    74    77    1
    11    76    75    2
    12    30    29    2
    13    29    28    1
    14    44    43   ar
    15    44    46   ar
    16    75    81   am
    17    78    77    1
    18    78    80    1
    19    43    45   ar
    20    83    82    1
    21    81    82    1
    22    46    48   ar
    23    28    31    1
    24    28    27    1
    25    31    32    1
    26    82    85    1
    27    45    47   ar
    28    57    58    1
    29    60    59    2
    30    64    62    1
    31    58    59    1
    32    58    61    1
    33    33    32   ar
    34    33    35   ar
    35    68    67    2
    36    32    34   ar
    37    59    65   am
    38    48    47   ar
    39    67    66    1
    40    85    86    1
    41    62    61    1
    42    62    63    1
    43    35    37   ar
    44    34    36   ar
    45    65    66    1
    46    66    69    1
    47    86    88    1
    48    86    87    1
    49    37    36   ar
    50    69    70    1
    51    49    50    1
    52    52    51    2
    53    51    50    1
    54    50    53    1
    55    70    72   am
    56    70    71    2
    57    53    54    1
    58    56    54    1
    59    54    55    1
    60    20    21    1
    61    20    26    1
    62    21    22    1
    63    21    24    1
    64    26    25    1
    65    25    24    1
    66    23    22    2
    67     4     3    2
    68    10    11   ar
    69    10     8   ar
    70    11     9   ar
    71     8     6   ar
    72     3     2    1
    73     3    12   am
    74     2     1    1
    75     2     5    1
    76    14    15    2
    77    14    13    1
    78     9     7   ar
    79     6     7   ar
    80     6     5    1
    81    12    13    1
    82    13    16    1
    83    19    17    1
    84    16    17    1
    85    17    18    1
