@<TRIPOS>MOLECULE
tmp/4cadI00.pdb
 88 85 0 0 0
SMALL
GASTEIGER

@<TRIPOS>ATOM
      1  N        -44.0160  -51.8820   -6.5810 N.3    80  PHE80      -0.1227
      2  CA       -45.2930  -52.3710   -7.0850 C.3    80  PHE80       0.1736
      3  C        -46.3130  -51.2550   -7.2830 C.2    80  PHE80       0.2595
      4  O        -47.1220  -51.3010   -8.2110 O.2    80  PHE80      -0.2718
      5  CB       -45.8700  -53.4170   -6.1290 C.3    80  PHE80       0.0547
      6  CG       -45.6250  -54.8330   -6.5590 C.ar   80  PHE80      -0.0202
      7  CD1      -44.4000  -55.4380   -6.3360 C.ar   80  PHE80      -0.0042
      8  CD2      -46.6220  -55.5600   -7.1880 C.ar   80  PHE80      -0.0042
      9  CE1      -44.1730  -56.7430   -6.7330 C.ar   80  PHE80      -0.0003
     10  CE2      -46.4030  -56.8640   -7.5850 C.ar   80  PHE80      -0.0003
     11  CZ       -45.1760  -57.4580   -7.3580 C.ar   80  PHE80      -0.0000
     12  N        -46.2680  -50.2510   -6.4130 N.am   81  LEU81      -0.1980
     13  CA       -47.3550  -49.2790   -6.3210 C.3    81  LEU81       0.1596
     14  C        -47.0190  -47.8620   -6.8010 C.2    81  LEU81       0.2287
     15  O        -47.8890  -46.9910   -6.7970 O.2    81  LEU81      -0.2864
     16  CB       -47.8850  -49.2240   -4.8840 C.3    81  LEU81       0.0297
     17  CG       -49.0100  -50.1700   -4.4470 C.3    81  LEU81       0.0022
     18  CD1      -49.1020  -51.4110   -5.3200 C.3    81  LEU81       0.0001
     19  CD2      -48.8140  -50.5640   -2.9900 C.3    81  LEU81       0.0001
     20  N        -49.1750  -47.0350  -10.1850 N.3    84  PRO84      -0.2116
     21  CA       -50.5890  -46.7600   -9.8980 C.3    84  PRO84       0.1372
     22  C        -50.8020  -45.4340   -9.1720 C.2    84  PRO84       0.2244
     23  O        -51.8090  -44.7660   -9.4030 O.2    84  PRO84      -0.2868
     24  CB       -50.9890  -47.9220   -8.9880 C.3    84  PRO84       0.0268
     25  CG       -50.1040  -49.0340   -9.4140 C.3    84  PRO84       0.0207
     26  CD       -48.7890  -48.3900   -9.7450 C.3    84  PRO84       0.0892
     27  N        -59.1410  -51.5080  -17.0480 N.3   106  PHE106     -0.1241
     28  CA       -58.5320  -52.2010  -18.1710 C.3   106  PHE106      0.1605
     29  C        -59.1790  -51.7470  -19.4750 C.2   106  PHE106      0.2264
     30  O        -60.3870  -51.5140  -19.5280 O.2   106  PHE106     -0.2867
     31  CB       -58.6810  -53.7150  -18.0090 C.3   106  PHE106      0.0534
     32  CG       -57.7000  -54.3260  -17.0480 C.ar  106  PHE106     -0.0203
     33  CD1      -56.4260  -53.7990  -16.9040 C.ar  106  PHE106     -0.0042
     34  CD2      -58.0530  -55.4310  -16.2910 C.ar  106  PHE106     -0.0042
     35  CE1      -55.5220  -54.3640  -16.0230 C.ar  106  PHE106     -0.0003
     36  CE2      -57.1530  -55.9990  -15.4070 C.ar  106  PHE106     -0.0003
     37  CZ       -55.8870  -55.4650  -15.2730 C.ar  106  PHE106     -0.0000
     38  N        -55.2420  -62.5810  -23.2290 N.3   112  PHE112     -0.1241
     39  CA       -54.6730  -61.9630  -22.0290 C.3   112  PHE112      0.1605
     40  C        -53.3180  -62.5080  -21.5790 C.2   112  PHE112      0.2264
     41  O        -52.4180  -61.7290  -21.2570 O.2   112  PHE112     -0.2867
     42  CB       -55.6610  -62.0050  -20.8580 C.3   112  PHE112      0.0534
     43  CG       -55.2040  -61.2180  -19.6590 C.ar  112  PHE112     -0.0203
     44  CD1      -55.0870  -59.8390  -19.7300 C.ar  112  PHE112     -0.0042
     45  CD2      -54.8880  -61.8530  -18.4660 C.ar  112  PHE112     -0.0042
     46  CE1      -54.6650  -59.1050  -18.6380 C.ar  112  PHE112     -0.0003
     47  CE2      -54.4670  -61.1220  -17.3670 C.ar  112  PHE112     -0.0003
     48  CZ       -54.3550  -59.7480  -17.4550 C.ar  112  PHE112     -0.0000
     49  N        -43.5580  -54.5040  -14.3760 N.3   215  LEU215     -0.1245
     50  CA       -44.7280  -53.9320  -13.7140 C.3   215  LEU215      0.1561
     51  C        -45.0690  -52.5370  -14.2350 C.2   215  LEU215      0.2260
     52  O        -46.2330  -52.1390  -14.2430 O.2   215  LEU215     -0.2867
     53  CB       -44.5290  -53.9000  -12.1960 C.3   215  LEU215      0.0270
     54  CG       -44.4470  -55.2640  -11.5060 C.3   215  LEU215      0.0019
     55  CD1      -44.1080  -55.1150  -10.0260 C.3   215  LEU215      0.0001
     56  CD2      -45.7460  -56.0350  -11.6920 C.3   215  LEU215      0.0001
     57  N        -46.8290  -53.0440  -17.4990 N.3   218  LEU218     -0.1231
     58  CA       -48.1520  -53.5820  -17.2150 C.3   218  LEU218      0.1693
     59  C        -49.1260  -52.4530  -16.8970 C.2   218  LEU218      0.2592
     60  O        -50.2300  -52.4050  -17.4360 O.2   218  LEU218     -0.2718
     61  CB       -48.0910  -54.5790  -16.0570 C.3   218  LEU218      0.0284
     62  CG       -48.7860  -55.9160  -16.3180 C.3   218  LEU218      0.0019
     63  CD1      -48.1610  -56.6070  -17.5180 C.3   218  LEU218      0.0001
     64  CD2      -48.7260  -56.8080  -15.0910 C.3   218  LEU218      0.0001
     65  N        -48.7030  -51.5390  -16.0280 N.am  219  ASN219     -0.1974
     66  CA       -49.5120  -50.3750  -15.6890 C.3   219  ASN219      0.1688
     67  C        -49.7910  -49.4960  -16.9040 C.2   219  ASN219      0.2292
     68  O        -50.9300  -49.0950  -17.1410 O.2   219  ASN219     -0.2864
     69  CB       -48.8340  -49.5450  -14.5960 C.3   219  ASN219      0.1181
     70  CG       -48.8880  -50.2120  -13.2380 C.2   219  ASN219      0.2629
     71  OD1      -49.8500  -50.0390  -12.4890 O.2   219  ASN219     -0.2716
     72  ND2      -47.8550  -50.9790  -12.9110 N.am  219  ASN219     -0.0877
     73  N        -51.8430  -51.7780  -19.9930 N.3   222  LEU222     -0.1231
     74  CA       -53.1120  -52.4160  -19.6570 C.3   222  LEU222      0.1693
     75  C        -54.1660  -51.4310  -19.1660 C.2   222  LEU222      0.2591
     76  O        -55.3470  -51.5760  -19.4790 O.2   222  LEU222     -0.2718
     77  CB       -52.9060  -53.5310  -18.6280 C.3   222  LEU222      0.0284
     78  CG       -52.6380  -54.9410  -19.1630 C.3   222  LEU222      0.0019
     79  CD1      -51.5070  -54.9550  -20.1880 C.3   222  LEU222      0.0001
     80  CD2      -52.3380  -55.8940  -18.0120 C.3   222  LEU222      0.0001
     81  N        -53.7470  -50.4370  -18.3910 N.am  223  LEU223     -0.1980
     82  CA       -54.6850  -49.4380  -17.8930 C.3   223  LEU223      0.1596
     83  C        -55.0720  -48.4700  -19.0050 C.2   223  LEU223      0.2287
     84  O        -54.2240  -48.0380  -19.7850 O.2   223  LEU223     -0.2864
     85  CB       -54.1060  -48.6890  -16.6900 C.3   223  LEU223      0.0297
     86  CG       -53.9640  -49.5330  -15.4210 C.3   223  LEU223      0.0022
     87  CD1      -53.3400  -48.7310  -14.2890 C.3   223  LEU223      0.0001
     88  CD2      -55.3170  -50.0900  -15.0030 C.3   223  LEU223      0.0001
@<TRIPOS>BOND
     1    38    39    1
     2    39    40    1
     3    39    42    1
     4    40    41    2
     5    42    43    1
     6    79    78    1
     7    73    74    1
     8    84    83    2
     9    44    43   ar
    10    44    46   ar
    11    43    45   ar
    12    74    75    1
    13    74    77    1
    14    30    29    2
    15    76    75    2
    16    29    28    1
    17    75    81   am
    18    78    77    1
    19    78    80    1
    20    83    82    1
    21    46    48   ar
    22    45    47   ar
    23    81    82    1
    24    28    31    1
    25    28    27    1
    26    31    32    1
    27    82    85    1
    28    63    62    1
    29    57    58    1
    30    48    47   ar
    31    60    59    2
    32    58    59    1
    33    58    61    1
    34    68    67    2
    35    32    33   ar
    36    32    34   ar
    37    67    66    1
    38    33    35   ar
    39    59    65   am
    40    85    86    1
    41    62    61    1
    42    62    64    1
    43    34    36   ar
    44    65    66    1
    45    35    37   ar
    46    66    69    1
    47    86    88    1
    48    86    87    1
    49    36    37   ar
    50    69    70    1
    51    49    50    1
    52    52    51    2
    53    51    50    1
    54    50    53    1
    55    70    72   am
    56    70    71    2
    57    53    54    1
    58    56    54    1
    59    54    55    1
    60    20    21    1
    61    20    26    1
    62    21    22    1
    63    21    24    1
    64    26    25    1
    65    25    24    1
    66    23    22    2
    67     4     3    2
    68    10    11   ar
    69    10     8   ar
    70    11     9   ar
    71     3     2    1
    72     3    12   am
    73     8     6   ar
    74     2     1    1
    75     2     5    1
    76    14    15    2
    77    14    13    1
    78     9     7   ar
    79     6     7   ar
    80     6     5    1
    81    12    13    1
    82    13    16    1
    83    18    17    1
    84    16    17    1
    85    17    19    1
