@<TRIPOS>MOLECULE
tmp/4caeB00.pdb
 234 225 0 0 0
SMALL
GASTEIGER

@<TRIPOS>ATOM
      1  N          7.4700   22.1940   23.3280 N.3    69  TYR69      -0.1227
      2  CA         7.7320   22.0510   24.7830 C.3    69  TYR69       0.1736
      3  C          8.1560   23.3600   25.4040 C.2    69  TYR69       0.2595
      4  O          7.9390   24.4400   24.8450 O.2    69  TYR69      -0.2718
      5  CB         8.7360   20.8900   25.0760 C.3    69  TYR69       0.0548
      6  CG         8.6150   20.2970   26.4470 C.ar   69  TYR69      -0.0200
      7  CD1        7.3660   19.9730   27.0200 C.ar   69  TYR69      -0.0009
      8  CD2        9.7400   20.0830   27.2080 C.ar   69  TYR69      -0.0009
      9  CE1        7.2670   19.4400   28.3070 C.ar   69  TYR69       0.0417
     10  CE2        9.6140   19.5560   28.4840 C.ar   69  TYR69       0.0417
     11  CZ         8.3750   19.2260   29.0160 C.ar   69  TYR69       0.1957
     12  OH         8.3170   18.6930   30.3090 O.3    69  TYR69      -0.2866
     13  N          8.7560   23.2710   26.5910 N.am   70  VAL70      -0.1966
     14  CA         8.9780   24.4190   27.4430 C.3    70  VAL70       0.1727
     15  C         10.0280   25.4030   26.8480 C.2    70  VAL70       0.2616
     16  O         11.1100   24.9420   26.4070 O.2    70  VAL70      -0.2715
     17  CB         9.5150   23.9630   28.8200 C.3    70  VAL70       0.0290
     18  CG1        9.8320   25.1890   29.7310 C.3    70  VAL70       0.0023
     19  CG2        8.5320   22.9990   29.5150 C.3    70  VAL70       0.0023
     20  N          9.7130   26.6960   26.8630 N.am   71  GLU71      -0.1963
     21  CA        10.6350   27.7950   26.5230 C.3    71  GLU71       0.1733
     22  C         11.0420   28.5680   27.7360 C.2    71  GLU71       0.2616
     23  O         10.3910   28.5170   28.7670 O.2    71  GLU71      -0.2715
     24  CB         9.9940   28.7600   25.5180 C.3    71  GLU71       0.0429
     25  CG         9.4590   27.9930   24.3210 C.3    71  GLU71       0.1163
     26  CD         8.9950   28.8210   23.1760 C.2    71  GLU71       0.3649
     27  OE1        8.9760   30.0710   23.3010 O.co2  71  GLU71      -0.2457
     28  OE2        8.6100   28.1680   22.1960 O.co2  71  GLU71      -0.2457
     29  N         12.1860   29.2120   27.6750 N.am   72  ASP72      -0.1957
     30  CA        12.5630   30.0760   28.7820 C.3    72  ASP72       0.1840
     31  C         11.6450   31.2800   28.8380 C.2    72  ASP72       0.2622
     32  O         10.8810   31.4790   27.9250 O.2    72  ASP72      -0.2715
     33  CB        13.9990   30.5410   28.6650 C.3    72  ASP72       0.1450
     34  CG        14.2000   31.4810   27.5440 C.2    72  ASP72       0.3671
     35  OD1       13.6750   31.2560   26.4420 O.co2  72  ASP72      -0.2456
     36  OD2       14.9450   32.4550   27.7760 O.co2  72  ASP72      -0.2456
     37  N         11.6850   32.0140   29.9460 N.am   73  ASP73      -0.1971
     38  CA        10.8480   33.2010   30.1360 C.3    73  ASP73       0.1709
     39  C         10.9860   34.1830   28.9780 C.2    73  ASP73       0.2293
     40  O         10.0070   34.7650   28.5450 O.2    73  ASP73      -0.2864
     41  CB        11.1960   33.9030   31.4240 C.3    73  ASP73       0.1436
     42  CG        10.4010   33.3750   32.5860 C.2    73  ASP73       0.3671
     43  OD1       10.7400   32.2750   33.1190 O.co2  73  ASP73      -0.2456
     44  OD2        9.4070   34.0560   32.9330 O.co2  73  ASP73      -0.2456
     45  N         14.8950   30.2730   23.9680 N.3    77  PHE77      -0.1241
     46  CA        15.3780   28.8540   23.9880 C.3    77  PHE77       0.1605
     47  C         14.1970   27.9500   24.1810 C.2    77  PHE77       0.2264
     48  O         13.2330   28.3510   24.8770 O.2    77  PHE77      -0.2867
     49  CB        16.3510   28.6660   25.1920 C.3    77  PHE77       0.0534
     50  CG        17.5320   29.5590   25.1120 C.ar   77  PHE77      -0.0203
     51  CD1       18.4910   29.3750   24.1150 C.ar   77  PHE77      -0.0042
     52  CD2       17.6910   30.6020   25.9980 C.ar   77  PHE77      -0.0042
     53  CE1       19.5670   30.2380   23.9990 C.ar   77  PHE77      -0.0003
     54  CE2       18.8100   31.4690   25.9020 C.ar   77  PHE77      -0.0003
     55  CZ        19.7260   31.3080   24.8660 C.ar   77  PHE77      -0.0000
     56  N         13.4590   23.7260   25.2420 N.3    79  PHE79      -0.1241
     57  CA        14.1190   22.4580   25.5330 C.3    79  PHE79       0.1605
     58  C         13.9910   21.5390   24.2950 C.2    79  PHE79       0.2264
     59  O         12.9820   21.5510   23.5470 O.2    79  PHE79      -0.2867
     60  CB        13.4090   21.7580   26.7030 C.3    79  PHE79       0.0534
     61  CG        13.7410   22.3270   28.0670 C.ar   79  PHE79      -0.0203
     62  CD1       15.0130   22.7760   28.3770 C.ar   79  PHE79      -0.0042
     63  CD2       12.7830   22.2760   29.0550 C.ar   79  PHE79      -0.0042
     64  CE1       15.2930   23.2240   29.7000 C.ar   79  PHE79      -0.0003
     65  CE2       13.0120   22.7860   30.3190 C.ar   79  PHE79      -0.0003
     66  CZ        14.2540   23.2400   30.6490 C.ar   79  PHE79      -0.0000
     67  N         14.9290   17.8240   24.2210 N.3    81  TYR81      -0.1241
     68  CA        15.2160   16.4890   24.6940 C.3    81  TYR81       0.1605
     69  C         15.4530   15.5900   23.4840 C.2    81  TYR81       0.2264
     70  O         14.6830   15.6080   22.5570 O.2    81  TYR81      -0.2867
     71  CB        14.0530   15.9050   25.5000 C.3    81  TYR81       0.0534
     72  CG        13.8310   16.5330   26.8370 C.ar   81  TYR81      -0.0201
     73  CD1       14.5260   16.0300   27.9750 C.ar   81  TYR81      -0.0009
     74  CD2       12.9400   17.5940   27.0360 C.ar   81  TYR81      -0.0009
     75  CE1       14.2750   16.5370   29.2650 C.ar   81  TYR81       0.0417
     76  CE2       12.7460   18.1310   28.3200 C.ar   81  TYR81       0.0417
     77  CZ        13.4090   17.6140   29.4100 C.ar   81  TYR81       0.1957
     78  OH        13.1770   18.1460   30.6610 O.3    81  TYR81      -0.2866
     79  N          5.8080   13.7770   33.8460 N.3   135  ASN135     -0.1240
     80  CA         6.6730   14.6830   33.0780 C.3   135  ASN135      0.1653
     81  C          6.2030   14.7300   31.6290 C.2   135  ASN135      0.2266
     82  O          5.4090   13.8850   31.1440 O.2   135  ASN135     -0.2867
     83  CB         8.1190   14.1670   33.0910 C.3   135  ASN135      0.1155
     84  CG         9.1660   15.2960   33.1440 C.2   135  ASN135      0.2627
     85  OD1        8.9350   16.4110   32.6790 O.2   135  ASN135     -0.2716
     86  ND2       10.3320   15.0050   33.7190 N.am  135  ASN135     -0.0877
     87  N          7.2590   18.6590   38.6790 N.3   171  THR171     -0.1218
     88  CA         7.9470   19.9360   38.8150 C.3   171  THR171      0.1862
     89  C          7.4040   20.8120   37.6960 C.2   171  THR171      0.2287
     90  O          6.9600   20.3160   36.6780 O.2   171  THR171     -0.2866
     91  CB         9.5040   19.8520   38.7310 C.3   171  THR171      0.1770
     92  OG1        9.9440   19.2660   37.4600 O.3   171  THR171     -0.2211
     93  CG2       10.1590   19.1380   39.9990 C.3   171  THR171      0.0375
     94  N          7.9310   25.1810   36.0500 N.3   173  GLY173     -0.1225
     95  CA         8.3580   26.5380   36.2610 C.3   173  GLY173      0.1811
     96  C          7.1710   27.4690   36.5770 C.2   173  GLY173      0.2280
     97  O          7.4000   28.5110   37.1600 O.2   173  GLY173     -0.2866
     98  N         17.3290   28.1350   39.5370 N.3   185  TYR185     -0.1241
     99  CA        18.4550   27.5840   38.8040 C.3   185  TYR185      0.1605
    100  C         19.5460   28.6120   38.5770 C.2   185  TYR185      0.2264
    101  O         19.3280   29.8120   38.5250 O.2   185  TYR185     -0.2867
    102  CB        18.0100   26.9800   37.4740 C.3   185  TYR185      0.0534
    103  CG        16.7910   27.6370   36.8310 C.ar  185  TYR185     -0.0201
    104  CD1       16.9040   28.7700   36.0220 C.ar  185  TYR185     -0.0009
    105  CD2       15.5380   27.0830   36.9790 C.ar  185  TYR185     -0.0009
    106  CE1       15.7940   29.3710   35.4300 C.ar  185  TYR185      0.0417
    107  CE2       14.4320   27.6370   36.3410 C.ar  185  TYR185      0.0417
    108  CZ        14.5710   28.7850   35.5700 C.ar  185  TYR185      0.1957
    109  OH        13.4760   29.3570   34.9590 O.3   185  TYR185     -0.2866
    110  N         23.6250   28.9640   36.6080 N.3   187  HIS187     -0.1241
    111  CA        24.3470   28.5700   35.3930 C.3   187  HIS187      0.1621
    112  C         25.8200   28.8730   35.5300 C.2   187  HIS187      0.2264
    113  O         26.1690   29.9390   36.0180 O.2   187  HIS187     -0.2867
    114  CB        23.7610   29.3770   34.2060 C.3   187  HIS187      0.0745
    115  CG        22.2660   29.3500   34.1720 C.ar  187  HIS187      0.0817
    116  ND1       21.5630   28.2100   33.8530 N.ar  187  HIS187     -0.2268
    117  CD2       21.3480   30.3040   34.4680 C.ar  187  HIS187      0.1154
    118  CE1       20.2760   28.4710   33.9360 C.ar  187  HIS187      0.1986
    119  NE2       20.1240   29.7320   34.3010 N.ar  187  HIS187     -0.2212
    120  N         22.5300   34.1830   26.0870 N.3   200  PHE200     -0.1241
    121  CA        22.3630   33.4150   27.2910 C.3   200  PHE200      0.1605
    122  C         23.0180   34.1930   28.4060 C.2   200  PHE200      0.2264
    123  O         22.4050   34.3090   29.4660 O.2   200  PHE200     -0.2867
    124  CB        22.9320   31.9990   27.1370 C.3   200  PHE200      0.0534
    125  CG        22.6670   31.0770   28.3400 C.ar  200  PHE200     -0.0203
    126  CD1       23.5190   31.0750   29.4480 C.ar  200  PHE200     -0.0042
    127  CD2       21.5810   30.2270   28.3670 C.ar  200  PHE200     -0.0042
    128  CE1       23.3020   30.2500   30.5480 C.ar  200  PHE200     -0.0003
    129  CE2       21.3460   29.3690   29.4640 C.ar  200  PHE200     -0.0003
    130  CZ        22.2140   29.3810   30.5470 C.ar  200  PHE200     -0.0000
    131  N         22.9780   15.1450   33.4660 N.3   289  TYR289     -0.1241
    132  CA        22.3210   14.6740   32.2150 C.3   289  TYR289      0.1605
    133  C         22.3980   15.7880   31.1410 C.2   289  TYR289      0.2264
    134  O         22.6160   16.9580   31.4230 O.2   289  TYR289     -0.2867
    135  CB        20.9090   14.1620   32.4410 C.3   289  TYR289      0.0534
    136  CG        19.9290   15.1170   33.0290 C.ar  289  TYR289     -0.0201
    137  CD1       19.2830   16.0670   32.2180 C.ar  289  TYR289     -0.0009
    138  CD2       19.5250   15.0010   34.3500 C.ar  289  TYR289     -0.0009
    139  CE1       18.3260   16.8950   32.7240 C.ar  289  TYR289      0.0417
    140  CE2       18.5450   15.8460   34.8650 C.ar  289  TYR289      0.0417
    141  CZ        17.9540   16.7840   34.0760 C.ar  289  TYR289      0.1957
    142  OH        16.9620   17.5990   34.5710 O.3   289  TYR289     -0.2866
    143  N         20.7300   18.0300   28.3390 N.3   291  LEU291     -0.1245
    144  CA        19.4210   18.5460   27.8980 C.3   291  LEU291      0.1561
    145  C         19.7410   19.7900   27.0580 C.2   291  LEU291      0.2260
    146  O         19.9750   20.8530   27.5960 O.2   291  LEU291     -0.2867
    147  CB        18.5590   18.8290   29.1050 C.3   291  LEU291      0.0270
    148  CG        17.2340   19.5950   28.7720 C.3   291  LEU291      0.0019
    149  CD1       16.5700   19.0160   27.4990 C.3   291  LEU291      0.0001
    150  CD2       16.3850   19.5400   30.0060 C.3   291  LEU291      0.0001
    151  N         19.1370   22.9530   24.5280 N.3   293  SER293     -0.1217
    152  CA        18.0290   23.7980   24.1110 C.3   293  SER293      0.1889
    153  C         18.1740   24.2250   22.6500 C.2   293  SER293      0.2288
    154  O         19.2880   24.5820   22.2110 O.2   293  SER293     -0.2866
    155  CB        17.9850   25.0630   24.9580 C.3   293  SER293      0.2089
    156  OG        17.5880   24.7910   26.3010 O.3   293  SER293     -0.2183
    157  N         22.1320   24.8910   21.9670 N.3   304  LEU304     -0.1301
    158  CA        22.9170   25.1580   23.1900 C.3   304  LEU304      0.1247
    159  C         23.0980   23.7910   23.8460 C.3   304  LEU304      0.2009
    160  O         22.0720   23.0910   24.1810 O.3   304  LEU304     -0.2188
    161  CB        22.0220   26.0070   24.1450 C.3   304  LEU304      0.0217
    162  CG        22.5330   26.2110   25.5950 C.3   304  LEU304      0.0015
    163  CD1       23.9480   26.6900   25.5320 C.3   304  LEU304      0.0000
    164  CD2       21.6450   27.1180   26.4600 C.3   304  LEU304      0.0000
    165  N         23.1800   19.2190   33.0140 N.3   308  TYR308     -0.1227
    166  CA        22.2740   19.4720   34.1690 C.3   308  TYR308      0.1736
    167  C         22.7110   18.6270   35.3800 C.2   308  TYR308      0.2596
    168  O         22.6450   17.3970   35.3740 O.2   308  TYR308     -0.2718
    169  CB        20.8230   19.0980   33.7460 C.3   308  TYR308      0.0548
    170  CG        20.1800   20.1930   32.9180 C.ar  308  TYR308     -0.0200
    171  CD1       20.6340   20.5020   31.6350 C.ar  308  TYR308     -0.0009
    172  CD2       19.0960   20.9270   33.4390 C.ar  308  TYR308     -0.0009
    173  CE1       20.0410   21.5190   30.8570 C.ar  308  TYR308      0.0417
    174  CE2       18.4880   21.9720   32.6770 C.ar  308  TYR308      0.0417
    175  CZ        19.0100   22.2550   31.3990 C.ar  308  TYR308      0.1957
    176  OH        18.4540   23.2680   30.6360 O.3   308  TYR308     -0.2866
    177  N         23.2020   19.3120   36.3980 N.am  309  SER309     -0.1952
    178  CA        23.5700   18.6760   37.6630 C.3   309  SER309      0.1924
    179  C         22.4710   17.7610   38.1690 C.2   309  SER309      0.2314
    180  O         21.3080   18.2170   38.3320 O.2   309  SER309     -0.2863
    181  CB        23.9250   19.7620   38.7040 C.3   309  SER309      0.2116
    182  OG        24.4140   19.1330   39.8670 O.3   309  SER309     -0.2180
    183  N         24.4280   23.5870   34.4570 N.3   339  ASN339     -0.1225
    184  CA        23.2740   24.1840   35.1710 C.3   339  ASN339      0.1785
    185  C         22.9870   23.3700   36.4400 C.2   339  ASN339      0.2597
    186  O         23.1950   22.1210   36.4960 O.2   339  ASN339     -0.2718
    187  CB        22.0530   24.0450   34.2600 C.3   339  ASN339      0.1169
    188  CG        22.1990   24.8820   32.9790 C.2   339  ASN339      0.2627
    189  OD1       22.5950   26.0530   33.0370 O.2   339  ASN339     -0.2716
    190  ND2       21.9350   24.2790   31.8480 N.am  339  ASN339     -0.0877
    191  N         22.5950   24.0880   37.4940 N.am  340  ALA340     -0.1966
    192  CA        22.3100   23.4090   38.8090 C.3   340  ALA340      0.1728
    193  C         21.1660   24.1700   39.4970 C.2   340  ALA340      0.2616
    194  O         21.0490   25.3880   39.3490 O.2   340  ALA340     -0.2715
    195  CB        23.5580   23.4250   39.6990 C.3   340  ALA340      0.0334
    196  N         20.2900   23.3950   40.1310 N.am  341  LEU341     -0.1977
    197  CA        19.3230   23.9510   41.0750 C.3   341  LEU341      0.1596
    198  C         19.8820   24.1410   42.4570 C.2   341  LEU341      0.2287
    199  O         20.8570   23.4490   42.8050 O.2   341  LEU341     -0.2864
    200  CB        18.1520   22.9690   41.1670 C.3   341  LEU341      0.0297
    201  CG        17.3530   22.7110   39.8870 C.3   341  LEU341      0.0022
    202  CD1       16.3740   21.5310   40.1240 C.3   341  LEU341      0.0001
    203  CD2       16.5940   24.0100   39.4750 C.3   341  LEU341      0.0001
    204  N         12.3140   26.4610   39.6380 N.3   362  LEU362     -0.1245
    205  CA        11.5260   25.2300   39.4240 C.3   362  LEU362      0.1561
    206  C         10.7910   24.9180   40.6980 C.2   362  LEU362      0.2260
    207  O         11.3820   24.7430   41.7550 O.2   362  LEU362     -0.2867
    208  CB        12.4660   24.1010   39.0230 C.3   362  LEU362      0.0270
    209  CG        11.8160   22.7950   38.5630 C.3   362  LEU362      0.0019
    210  CD1       11.2040   23.0140   37.1820 C.3   362  LEU362      0.0001
    211  CD2       12.9180   21.7410   38.4440 C.3   362  LEU362      0.0001
    212  N         16.1820   15.4240   41.9590 N.3   382  VAL382     -0.1231
    213  CA        16.2440   16.1870   40.7160 C.3   382  VAL382      0.1692
    214  C         15.4950   15.4030   39.6260 C.2   382  VAL382      0.2592
    215  O         15.8040   14.1920   39.4060 O.2   382  VAL382     -0.2718
    216  CB        17.7160   16.3890   40.3030 C.3   382  VAL382      0.0266
    217  CG1       17.8350   17.0410   38.9680 C.3   382  VAL382      0.0020
    218  CG2       18.4690   17.1670   41.3800 C.3   382  VAL382      0.0020
    219  N         14.4860   16.0490   39.0530 N.am  383  LEU383     -0.1966
    220  CA        13.7180   15.4690   37.9760 C.3   383  LEU383      0.1728
    221  C         14.3390   15.7680   36.6310 C.2   383  LEU383      0.2616
    222  O         15.3540   16.4370   36.5320 O.2   383  LEU383     -0.2715
    223  CB        12.2340   15.8790   38.0090 C.3   383  LEU383      0.0311
    224  CG        11.4140   15.3790   39.2010 C.3   383  LEU383      0.0022
    225  CD1        9.9520   15.1820   38.8010 C.3   383  LEU383      0.0001
    226  CD2       12.0350   14.0920   39.7000 C.3   383  LEU383      0.0001
    227  N         13.7000   15.2840   35.5800 N.am  384  LEU384     -0.1977
    228  CA        14.3640   15.3300   34.2510 C.3   384  LEU384      0.1596
    229  C         13.7060   16.4310   33.4180 C.2   384  LEU384      0.2287
    230  O         12.5300   16.8460   33.7210 O.2   384  LEU384     -0.2864
    231  CB        14.2450   13.9750   33.5330 C.3   384  LEU384      0.0297
    232  CG        14.7960   12.7010   34.2120 C.3   384  LEU384      0.0022
    233  CD1       14.6140   11.5500   33.2440 C.3   384  LEU384      0.0001
    234  CD2       16.2790   12.7960   34.5350 C.3   384  LEU384      0.0001
@<TRIPOS>BOND
     1   157   158    1
     2    28    26   ar
     3   154   153    2
     4    70    69    2
     5   153   152    1
     6    26    27   ar
     7    26    25    1
     8   158   159    1
     9   158   161    1
    10     1     2    1
    11    69    68    1
    12    59    58    2
    13   159   160    1
    14    45    46    1
    15    46    47    1
    16    46    49    1
    17    53    51   ar
    18    53    55   ar
    19   152   151    1
    20   152   155    1
    21    51    50   ar
    22   161   162    1
    23    47    48    2
    24    67    68    1
    25    58    57    1
    26    25    24    1
    27    68    71    1
    28     2     5    1
    29     2     3    1
    30     4     3    2
    31    55    54   ar
    32   155   156    1
    33     5     6    1
    34    50    49    1
    35    50    52   ar
    36    56    57    1
    37     3    13   am
    38    71    72    1
    39    24    21    1
    40   163   162    1
    41    57    60    1
    42   162   164    1
    43    54    52   ar
    44   120   121    1
    45    16    15    2
    46    35    34   ar
    47     6     7   ar
    48     6     8   ar
    49    21    20    1
    50    21    22    1
    51    13    14    1
    52    60    61    1
    53    72    74   ar
    54    72    73   ar
    55    15    20   am
    56    15    14    1
    57     7     9   ar
    58    74    76   ar
    59   145   146    2
    60   145   144    1
    61   124   121    1
    62   124   125    1
    63     8    10   ar
    64   121   122    1
    65    14    17    1
    66   149   148    1
    67    34    36   ar
    68    34    33    1
    69    29    22   am
    70    29    30    1
    71    22    23    2
    72   144   143    1
    73   144   147    1
    74    32    31    2
    75    73    75   ar
    76    61    62   ar
    77    61    63   ar
    78     9    11   ar
    79    76    77   ar
    80   125   127   ar
    81   125   126   ar
    82   127   129   ar
    83    62    64   ar
    84   122   123    2
    85    10    11   ar
    86    40    39    2
    87    33    30    1
    88   148   147    1
    89   148   150    1
    90    30    31    1
    91    17    19    1
    92    17    18    1
    93    31    37   am
    94    39    38    1
    95    11    12    1
    96    63    65   ar
    97    75    77   ar
    98    77    78    1
    99   126   128   ar
   100   129   130   ar
   101    64    66   ar
   102    37    38    1
   103    38    41    1
   104    65    66   ar
   105   130   128   ar
   106   176   175    1
   107   173   175   ar
   108   173   171   ar
   109   133   134    2
   110   133   132    1
   111    82    81    2
   112   175   174   ar
   113    41    42    1
   114    81    80    1
   115   171   170   ar
   116   190   188   am
   117   132   135    1
   118   132   131    1
   119   137   139   ar
   120   137   136   ar
   121   135   136    1
   122    42    44   ar
   123    42    43   ar
   124   174   172   ar
   125    85    84    2
   126   139   141   ar
   127   170   172   ar
   128   170   169    1
   129   188   189    2
   130   188   187    1
   131   165   166    1
   132   136   138   ar
   133    80    83    1
   134    80    79    1
   135    83    84    1
   136    84    86   am
   137   233   232    1
   138   229   230    2
   139   229   228    1
   140   231   232    1
   141   231   228    1
   142   169   166    1
   143   116   118   ar
   144   116   115   ar
   145   118   119   ar
   146   141   142    1
   147   141   140   ar
   148   166   167    1
   149   115   114    1
   150   115   117   ar
   151   114   111    1
   152   232   234    1
   153   228   227    1
   154   187   184    1
   155   119   117   ar
   156   138   140   ar
   157   183   184    1
   158   109   108    1
   159   184   185    1
   160   168   167    2
   161   167   177   am
   162   111   112    1
   163   111   110    1
   164   106   108   ar
   165   106   104   ar
   166   112   113    2
   167   108   107   ar
   168   227   221   am
   169   104   103   ar
   170    94    95    1
   171    95    96    1
   172   107   105   ar
   173   177   178    1
   174   185   186    2
   175   185   191   am
   176   222   221    2
   177    96    97    2
   178   221   220    1
   179    90    89    2
   180   103   105   ar
   181   103   102    1
   182   210   209    1
   183    92    91    1
   184   102    99    1
   185   191   192    1
   186   178   179    1
   187   178   181    1
   188    89    88    1
   189   220   223    1
   190   220   219    1
   191   223   224    1
   192   179   180    2
   193   211   209    1
   194   101   100    2
   195   209   208    1
   196   100    99    1
   197    87    88    1
   198   181   182    1
   199    91    88    1
   200    91    93    1
   201   225   224    1
   202    99    98    1
   203   192   193    1
   204   192   195    1
   205   217   216    1
   206   208   205    1
   207   219   214   am
   208   224   226    1
   209   194   193    2
   210   215   214    2
   211   205   204    1
   212   205   206    1
   213   203   201    1
   214   193   196   am
   215   214   213    1
   216   201   202    1
   217   201   200    1
   218   196   197    1
   219   216   213    1
   220   216   218    1
   221   206   207    2
   222   213   212    1
   223   197   200    1
   224   197   198    1
   225   198   199    2
