@<TRIPOS>MOLECULE
tmp/4cafB00.pdb
 226 217 0 0 0
SMALL
GASTEIGER

@<TRIPOS>ATOM
      1  N          7.5710   22.1300   23.3630 N.3    69  TYR69      -0.1227
      2  CA         7.8420   22.0270   24.8330 C.3    69  TYR69       0.1736
      3  C          8.3320   23.3270   25.4710 C.2    69  TYR69       0.2595
      4  O          8.1010   24.4370   24.9080 O.2    69  TYR69      -0.2718
      5  CB         8.7380   20.7710   25.1050 C.3    69  TYR69       0.0548
      6  CG         8.6310   20.2430   26.5150 C.ar   69  TYR69      -0.0200
      7  CD1        7.3900   19.8870   27.0580 C.ar   69  TYR69      -0.0009
      8  CD2        9.7620   20.0170   27.2610 C.ar   69  TYR69      -0.0009
      9  CE1        7.2970   19.3840   28.3400 C.ar   69  TYR69       0.0417
     10  CE2        9.6700   19.4730   28.5450 C.ar   69  TYR69       0.0417
     11  CZ         8.4360   19.1670   29.0590 C.ar   69  TYR69       0.1957
     12  OH         8.3750   18.6520   30.3530 O.3    69  TYR69      -0.2866
     13  N          8.8810   23.2260   26.6740 N.am   70  VAL70      -0.1966
     14  CA         9.1510   24.3830   27.5230 C.3    70  VAL70       0.1727
     15  C         10.1260   25.3800   26.9290 C.2    70  VAL70       0.2616
     16  O         11.2090   24.9700   26.4840 O.2    70  VAL70      -0.2715
     17  CB         9.7060   23.9110   28.8980 C.3    70  VAL70       0.0290
     18  CG1        9.9650   25.1620   29.7630 C.3    70  VAL70       0.0023
     19  CG2        8.6410   23.0190   29.5500 C.3    70  VAL70       0.0023
     20  N          9.7620   26.6850   26.9410 N.am   71  GLU71      -0.1963
     21  CA        10.7070   27.7520   26.5840 C.3    71  GLU71       0.1733
     22  C         11.0430   28.5700   27.7950 C.2    71  GLU71       0.2616
     23  O         10.2880   28.5190   28.7910 O.2    71  GLU71      -0.2715
     24  CB        10.0490   28.7070   25.5550 C.3    71  GLU71       0.0429
     25  CG         9.7850   27.9070   24.2680 C.3    71  GLU71       0.1163
     26  CD         9.0410   28.6880   23.2130 C.2    71  GLU71       0.3649
     27  OE1        8.8690   29.9210   23.3840 O.co2  71  GLU71      -0.2457
     28  OE2        8.6540   28.0820   22.2040 O.co2  71  GLU71      -0.2457
     29  N         12.2060   29.2210   27.8000 N.am   72  ASP72      -0.1971
     30  CA        12.5050   30.1840   28.8860 C.3    72  ASP72       0.1709
     31  C         11.5310   31.3650   28.7710 C.2    72  ASP72       0.2293
     32  O         10.8390   31.4710   27.7790 O.2    72  ASP72      -0.2864
     33  CB        13.9410   30.6890   28.7770 C.3    72  ASP72       0.1436
     34  CG        14.1500   31.5520   27.5490 C.2    72  ASP72       0.3671
     35  OD1       13.7660   31.1640   26.4150 O.co2  72  ASP72      -0.2456
     36  OD2       14.7640   32.6160   27.7160 O.co2  72  ASP72      -0.2456
     37  N         15.0510   30.2580   24.1410 N.3    77  PHE77      -0.1241
     38  CA        15.4230   28.8120   24.1140 C.3    77  PHE77       0.1605
     39  C         14.2080   27.9410   24.2770 C.2    77  PHE77       0.2264
     40  O         13.2780   28.3290   24.9670 O.2    77  PHE77      -0.2867
     41  CB        16.2900   28.4980   25.3160 C.3    77  PHE77       0.0534
     42  CG        17.4950   29.3600   25.3930 C.ar   77  PHE77      -0.0203
     43  CD1       18.5650   29.1050   24.5740 C.ar   77  PHE77      -0.0042
     44  CD2       17.5460   30.4490   26.2680 C.ar   77  PHE77      -0.0042
     45  CE1       19.6980   29.8750   24.6130 C.ar   77  PHE77      -0.0003
     46  CE2       18.6860   31.2560   26.3070 C.ar   77  PHE77      -0.0003
     47  CZ        19.7570   30.9730   25.4610 C.ar   77  PHE77      -0.0000
     48  N         13.5490   23.6450   25.2570 N.3    79  PHE79      -0.1241
     49  CA        14.1740   22.3650   25.5070 C.3    79  PHE79       0.1605
     50  C         14.1010   21.4860   24.2750 C.2    79  PHE79       0.2264
     51  O         13.0880   21.5080   23.5500 O.2    79  PHE79      -0.2867
     52  CB        13.4540   21.5990   26.6420 C.3    79  PHE79       0.0534
     53  CG        13.7370   22.1250   28.0280 C.ar   79  PHE79      -0.0203
     54  CD1       15.0190   22.5970   28.3590 C.ar   79  PHE79      -0.0042
     55  CD2       12.7330   22.1290   28.9930 C.ar   79  PHE79      -0.0042
     56  CE1       15.2720   23.0350   29.6800 C.ar   79  PHE79      -0.0003
     57  CE2       12.9810   22.5600   30.2920 C.ar   79  PHE79      -0.0003
     58  CZ        14.2580   23.0450   30.5900 C.ar   79  PHE79      -0.0000
     59  N         14.9870   17.8180   24.1810 N.3    81  TYR81      -0.1241
     60  CA        15.3350   16.4650   24.6490 C.3    81  TYR81       0.1605
     61  C         15.5590   15.5670   23.4580 C.2    81  TYR81       0.2264
     62  O         14.7350   15.5650   22.5030 O.2    81  TYR81      -0.2867
     63  CB        14.1530   15.8930   25.4730 C.3    81  TYR81       0.0534
     64  CG        13.9310   16.4990   26.8380 C.ar   81  TYR81      -0.0201
     65  CD1       14.6190   15.9960   27.9700 C.ar   81  TYR81      -0.0009
     66  CD2       13.0900   17.6060   27.0200 C.ar   81  TYR81      -0.0009
     67  CE1       14.3730   16.4960   29.2430 C.ar   81  TYR81       0.0417
     68  CE2       12.9280   18.1870   28.2980 C.ar   81  TYR81       0.0417
     69  CZ        13.5410   17.6130   29.3920 C.ar   81  TYR81       0.1957
     70  OH        13.3070   18.1400   30.6290 O.3    81  TYR81      -0.2866
     71  N          5.8990   13.7940   33.8200 N.3   135  ASN135     -0.1240
     72  CA         6.8000   14.6840   33.1000 C.3   135  ASN135      0.1653
     73  C          6.3270   14.7310   31.6470 C.2   135  ASN135      0.2266
     74  O          5.5170   13.8910   31.2290 O.2   135  ASN135     -0.2867
     75  CB         8.2380   14.1580   33.1460 C.3   135  ASN135      0.1155
     76  CG         9.2680   15.2820   33.1140 C.2   135  ASN135      0.2627
     77  OD1        9.0190   16.4160   32.6830 O.2   135  ASN135     -0.2716
     78  ND2       10.4530   14.9700   33.6590 N.am  135  ASN135     -0.0877
     79  N          7.3430   18.6430   38.7080 N.3   171  THR171     -0.1218
     80  CA         7.9550   19.9820   38.8500 C.3   171  THR171      0.1862
     81  C          7.4060   20.8580   37.7580 C.2   171  THR171      0.2287
     82  O          6.9830   20.3540   36.7240 O.2   171  THR171     -0.2866
     83  CB         9.5110   19.8960   38.7670 C.3   171  THR171      0.1770
     84  OG1        9.9530   19.2410   37.5430 O.3   171  THR171     -0.2211
     85  CG2       10.0700   19.2340   40.0170 C.3   171  THR171      0.0375
     86  N          7.9030   25.1390   36.0710 N.3   173  GLY173     -0.1225
     87  CA         8.3370   26.5180   36.2280 C.3   173  GLY173      0.1811
     88  C          7.2010   27.4360   36.5700 C.2   173  GLY173      0.2280
     89  O          7.4180   28.5140   37.1030 O.2   173  GLY173     -0.2866
     90  N         17.3520   27.9760   39.4370 N.3   185  TYR185     -0.1241
     91  CA        18.5510   27.4870   38.7520 C.3   185  TYR185      0.1605
     92  C         19.6130   28.5520   38.5940 C.2   185  TYR185      0.2264
     93  O         19.3530   29.7940   38.5550 O.2   185  TYR185     -0.2867
     94  CB        18.1600   26.8520   37.4160 C.3   185  TYR185      0.0534
     95  CG        16.9740   27.5080   36.7640 C.ar  185  TYR185     -0.0201
     96  CD1       17.1230   28.6130   35.9030 C.ar  185  TYR185     -0.0009
     97  CD2       15.7040   26.9420   36.8870 C.ar  185  TYR185     -0.0009
     98  CE1       16.0310   29.1810   35.2550 C.ar  185  TYR185      0.0417
     99  CE2       14.6000   27.4870   36.2440 C.ar  185  TYR185      0.0417
    100  CZ        14.7760   28.6120   35.4520 C.ar  185  TYR185      0.1957
    101  OH        13.6740   29.1120   34.8220 O.3   185  TYR185     -0.2866
    102  N         23.7370   29.0310   36.6670 N.3   187  HIS187     -0.1241
    103  CA        24.4340   28.6400   35.4220 C.3   187  HIS187      0.1621
    104  C         25.9330   28.9170   35.5490 C.2   187  HIS187      0.2264
    105  O         26.3460   30.0400   35.9290 O.2   187  HIS187     -0.2867
    106  CB        23.8950   29.5050   34.2730 C.3   187  HIS187      0.0745
    107  CG        22.4170   29.4480   34.1980 C.ar  187  HIS187      0.0817
    108  ND1       21.7570   28.2700   33.8760 N.ar  187  HIS187     -0.2268
    109  CD2       21.4480   30.3660   34.4890 C.ar  187  HIS187      0.1154
    110  CE1       20.4440   28.4740   33.9700 C.ar  187  HIS187      0.1986
    111  NE2       20.2290   29.7430   34.2890 N.ar  187  HIS187     -0.2212
    112  N         22.7120   34.5200   26.1420 N.3   200  PHE200     -0.1241
    113  CA        22.4460   33.7840   27.3930 C.3   200  PHE200      0.1605
    114  C         23.1930   34.6260   28.4580 C.2   200  PHE200      0.2264
    115  O         22.6210   35.0030   29.4610 O.2   200  PHE200     -0.2867
    116  CB        22.9300   32.3330   27.2710 C.3   200  PHE200      0.0534
    117  CG        22.6690   31.4550   28.4980 C.ar  200  PHE200     -0.0203
    118  CD1       23.4130   31.6140   29.6660 C.ar  200  PHE200     -0.0042
    119  CD2       21.7180   30.4280   28.4590 C.ar  200  PHE200     -0.0042
    120  CE1       23.1860   30.7900   30.7680 C.ar  200  PHE200     -0.0003
    121  CE2       21.4830   29.5900   29.5610 C.ar  200  PHE200     -0.0003
    122  CZ        22.2200   29.7830   30.7130 C.ar  200  PHE200     -0.0000
    123  N         23.0440   15.1550   33.4770 N.3   289  TYR289     -0.1241
    124  CA        22.4400   14.7060   32.2500 C.3   289  TYR289      0.1605
    125  C         22.5020   15.7530   31.1520 C.2   289  TYR289      0.2264
    126  O         22.6680   16.9360   31.4330 O.2   289  TYR289     -0.2867
    127  CB        21.0170   14.1620   32.4900 C.3   289  TYR289      0.0534
    128  CG        19.9690   15.0920   33.0640 C.ar  289  TYR289     -0.0201
    129  CD1       19.3490   16.0780   32.2690 C.ar  289  TYR289     -0.0009
    130  CD2       19.6120   15.0140   34.4060 C.ar  289  TYR289     -0.0009
    131  CE1       18.3750   16.9120   32.7510 C.ar  289  TYR289      0.0417
    132  CE2       18.6200   15.8740   34.9110 C.ar  289  TYR289      0.0417
    133  CZ        18.0190   16.8280   34.1030 C.ar  289  TYR289      0.1957
    134  OH        16.9990   17.6010   34.6110 O.3   289  TYR289     -0.2866
    135  N         20.8300   18.0010   28.3310 N.3   291  LEU291     -0.1245
    136  CA        19.4910   18.5200   27.9300 C.3   291  LEU291      0.1561
    137  C         19.7670   19.7710   27.1150 C.2   291  LEU291      0.2260
    138  O         19.9250   20.8470   27.6840 O.2   291  LEU291     -0.2867
    139  CB        18.6190   18.7770   29.1320 C.3   291  LEU291      0.0270
    140  CG        17.2770   19.5610   28.8790 C.3   291  LEU291      0.0019
    141  CD1       16.6190   19.0120   27.6210 C.3   291  LEU291      0.0001
    142  CD2       16.3920   19.4460   30.0950 C.3   291  LEU291      0.0001
    143  N         19.1890   22.9690   24.6620 N.3   293  SER293     -0.1217
    144  CA        18.0570   23.7990   24.2470 C.3   293  SER293      0.1889
    145  C         18.2460   24.2220   22.7860 C.2   293  SER293      0.2288
    146  O         19.3480   24.5490   22.3450 O.2   293  SER293     -0.2866
    147  CB        17.9230   25.0460   25.1080 C.3   293  SER293      0.2089
    148  OG        17.4570   24.6940   26.4070 O.3   293  SER293     -0.2183
    149  N         22.1760   24.9350   22.1010 N.3   304  LEU304     -0.1245
    150  CA        22.9570   25.2000   23.3080 C.3   304  LEU304      0.1561
    151  C         23.1130   23.8330   23.9760 C.2   304  LEU304      0.2260
    152  O         22.0990   23.2220   24.3190 O.2   304  LEU304     -0.2867
    153  CB        22.1800   26.1170   24.2610 C.3   304  LEU304      0.0270
    154  CG        22.9200   26.2880   25.6000 C.3   304  LEU304      0.0019
    155  CD1       24.2160   27.0540   25.4500 C.3   304  LEU304      0.0001
    156  CD2       21.9380   27.0750   26.4720 C.3   304  LEU304      0.0001
    157  N         23.1940   19.1990   33.0590 N.3   308  TYR308     -0.1227
    158  CA        22.3180   19.4370   34.2420 C.3   308  TYR308      0.1736
    159  C         22.7980   18.6250   35.3870 C.2   308  TYR308      0.2596
    160  O         22.6820   17.3880   35.3650 O.2   308  TYR308     -0.2718
    161  CB        20.8560   19.0070   33.8640 C.3   308  TYR308      0.0548
    162  CG        20.2020   20.0960   33.0100 C.ar  308  TYR308     -0.0200
    163  CD1       20.6110   20.3380   31.6790 C.ar  308  TYR308     -0.0009
    164  CD2       19.1000   20.7750   33.4960 C.ar  308  TYR308     -0.0009
    165  CE1       20.0210   21.3820   30.9020 C.ar  308  TYR308      0.0417
    166  CE2       18.5150   21.8270   32.7440 C.ar  308  TYR308      0.0417
    167  CZ        18.9600   22.0810   31.4530 C.ar  308  TYR308      0.1957
    168  OH        18.3300   23.1140   30.7950 O.3   308  TYR308     -0.2866
    169  N         23.2770   19.3270   36.4180 N.am  309  SER309     -0.1952
    170  CA        23.7430   18.6820   37.6560 C.3   309  SER309      0.1924
    171  C         22.6010   17.7730   38.1990 C.2   309  SER309      0.2314
    172  O         21.4430   18.2170   38.3610 O.2   309  SER309     -0.2863
    173  CB        24.0690   19.7700   38.6620 C.3   309  SER309      0.2116
    174  OG        24.4100   19.1230   39.9110 O.3   309  SER309     -0.2180
    175  N         24.3740   23.6230   34.4010 N.3   339  ASN339     -0.1225
    176  CA        23.1890   24.1620   35.0840 C.3   339  ASN339      0.1785
    177  C         22.9540   23.3970   36.3810 C.2   339  ASN339      0.2597
    178  O         23.1260   22.1500   36.4630 O.2   339  ASN339     -0.2718
    179  CB        21.9450   24.0290   34.1980 C.3   339  ASN339      0.1169
    180  CG        22.0510   24.8950   32.9320 C.2   339  ASN339      0.2627
    181  OD1       22.8180   25.8780   32.8880 O.2   339  ASN339     -0.2716
    182  ND2       21.2490   24.5660   31.9180 N.am  339  ASN339     -0.0877
    183  N         22.6130   24.1310   37.4190 N.am  340  ALA340     -0.1966
    184  CA        22.3210   23.4050   38.6830 C.3   340  ALA340      0.1728
    185  C         21.2060   24.1720   39.4180 C.2   340  ALA340      0.2616
    186  O         21.1130   25.4170   39.3450 O.2   340  ALA340     -0.2715
    187  CB        23.6000   23.3270   39.5720 C.3   340  ALA340      0.0334
    188  N         20.3480   23.4140   40.0890 N.am  341  LEU341     -0.1977
    189  CA        19.3360   23.9740   41.0120 C.3   341  LEU341      0.1596
    190  C         19.9520   24.1780   42.4130 C.2   341  LEU341      0.2287
    191  O         20.8720   23.4370   42.7720 O.2   341  LEU341     -0.2864
    192  CB        18.1750   22.9530   41.1520 C.3   341  LEU341      0.0297
    193  CG        17.3900   22.7470   39.8650 C.3   341  LEU341      0.0022
    194  CD1       16.5250   21.4710   40.0770 C.3   341  LEU341      0.0001
    195  CD2       16.5560   24.0030   39.5860 C.3   341  LEU341      0.0001
    196  N         12.3820   26.3970   39.6410 N.3   362  LEU362     -0.1245
    197  CA        11.5720   25.1770   39.4510 C.3   362  LEU362      0.1561
    198  C         10.8080   24.8520   40.7050 C.2   362  LEU362      0.2260
    199  O         11.4310   24.6560   41.7720 O.2   362  LEU362     -0.2867
    200  CB        12.4950   24.0430   39.0640 C.3   362  LEU362      0.0270
    201  CG        11.8920   22.7830   38.5580 C.3   362  LEU362      0.0019
    202  CD1       11.3720   23.0620   37.1340 C.3   362  LEU362      0.0001
    203  CD2       12.9250   21.6310   38.5000 C.3   362  LEU362      0.0001
    204  N         16.1920   15.4030   41.9770 N.3   382  VAL382     -0.1231
    205  CA        16.3020   16.2180   40.7430 C.3   382  VAL382      0.1692
    206  C         15.5640   15.4980   39.6470 C.2   382  VAL382      0.2592
    207  O         15.9030   14.3390   39.3710 O.2   382  VAL382     -0.2718
    208  CB        17.7700   16.3290   40.3200 C.3   382  VAL382      0.0266
    209  CG1       17.8840   17.0380   38.9860 C.3   382  VAL382      0.0020
    210  CG2       18.5890   17.0970   41.3680 C.3   382  VAL382      0.0020
    211  N         14.5200   16.1160   39.0870 N.am  383  LEU383     -0.1966
    212  CA        13.7350   15.4390   38.0410 C.3   383  LEU383      0.1728
    213  C         14.3930   15.6890   36.6730 C.2   383  LEU383      0.2616
    214  O         15.4150   16.4130   36.5880 O.2   383  LEU383     -0.2715
    215  CB        12.2440   15.8270   38.0720 C.3   383  LEU383      0.0311
    216  CG        11.3530   15.1440   39.1100 C.3   383  LEU383      0.0022
    217  CD1       11.4690   15.7810   40.4900 C.3   383  LEU383      0.0001
    218  CD2        9.9210   15.2680   38.5940 C.3   383  LEU383      0.0001
    219  N         13.8250   15.0910   35.6230 N.am  384  LEU384     -0.1977
    220  CA        14.3780   15.2470   34.2380 C.3   384  LEU384      0.1596
    221  C         13.7770   16.3730   33.3900 C.2   384  LEU384      0.2287
    222  O         12.6330   16.8470   33.7260 O.2   384  LEU384     -0.2864
    223  CB        14.2550   13.9070   33.4770 C.3   384  LEU384      0.0297
    224  CG        14.8350   12.6880   34.2310 C.3   384  LEU384      0.0022
    225  CD1       14.5470   11.4560   33.3690 C.3   384  LEU384      0.0001
    226  CD2       16.3480   12.8320   34.5640 C.3   384  LEU384      0.0001
@<TRIPOS>BOND
     1   149   150    1
     2    28    26   ar
     3   146   145    2
     4    62    61    2
     5   145   144    1
     6    26    27   ar
     7    26    25    1
     8   150   151    1
     9   150   153    1
    10     1     2    1
    11    61    60    1
    12    51    50    2
    13   151   152    2
    14    38    37    1
    15    38    39    1
    16    38    41    1
    17    59    60    1
    18   144   143    1
    19   144   147    1
    20   153   154    1
    21    25    24    1
    22    50    49    1
    23    39    40    2
    24    43    45   ar
    25    43    42   ar
    26    45    47   ar
    27    60    63    1
    28     2     5    1
    29     2     3    1
    30     4     3    2
    31     5     6    1
    32   147   148    1
    33    48    49    1
    34    41    42    1
    35    42    44   ar
    36   155   154    1
    37    47    46   ar
    38     3    13   am
    39    63    64    1
    40    49    52    1
    41    24    21    1
    42   154   156    1
    43   112   113    1
    44    44    46   ar
    45    35    34   ar
    46    16    15    2
    47     6     7   ar
    48     6     8   ar
    49    21    20    1
    50    21    22    1
    51    52    53    1
    52    13    14    1
    53    64    66   ar
    54    64    65   ar
    55    15    20   am
    56    15    14    1
    57    66    68   ar
    58     7     9   ar
    59   137   138    2
    60   137   136    1
    61     8    10   ar
    62   116   113    1
    63   116   117    1
    64   113   114    1
    65    14    17    1
    66    34    36   ar
    67    34    33    1
    68   141   140    1
    69    32    31    2
    70    22    29   am
    71    22    23    2
    72    29    30    1
    73   136   135    1
    74   136   139    1
    75    65    67   ar
    76    53    54   ar
    77    53    55   ar
    78    68    69   ar
    79     9    11   ar
    80    54    56   ar
    81   114   115    2
    82   119   117   ar
    83   119   121   ar
    84   117   118   ar
    85    10    11   ar
    86    31    30    1
    87    33    30    1
    88   140   139    1
    89   140   142    1
    90    17    19    1
    91    17    18    1
    92    55    57   ar
    93    11    12    1
    94    67    69   ar
    95    69    70    1
    96   121   122   ar
    97   118   120   ar
    98    56    58   ar
    99    57    58   ar
   100   122   120   ar
   101   168   167    1
   102   165   167   ar
   103   165   163   ar
   104   125   126    2
   105   125   124    1
   106    74    73    2
   107   167   166   ar
   108    73    72    1
   109   163   162   ar
   110   182   180   am
   111   124   127    1
   112   124   123    1
   113   129   131   ar
   114   129   128   ar
   115   127   128    1
   116    77    76    2
   117   166   164   ar
   118   131   133   ar
   119   181   180    2
   120   180   179    1
   121   162   164   ar
   122   162   161    1
   123   157   158    1
   124   128   130   ar
   125    72    75    1
   126    72    71    1
   127    76    75    1
   128    76    78   am
   129   225   224    1
   130   221   222    2
   131   221   220    1
   132   223   224    1
   133   223   220    1
   134   161   158    1
   135   108   110   ar
   136   108   107   ar
   137   110   111   ar
   138   133   134    1
   139   133   132   ar
   140   179   176    1
   141   107   106    1
   142   107   109   ar
   143   224   226    1
   144   220   219    1
   145   158   159    1
   146   106   103    1
   147   111   109   ar
   148   175   176    1
   149   130   132   ar
   150   101   100    1
   151   176   177    1
   152    98   100   ar
   153    98    96   ar
   154   160   159    2
   155   159   169   am
   156   103   104    1
   157   103   102    1
   158   100    99   ar
   159   104   105    2
   160   219   213   am
   161    96    95   ar
   162    86    87    1
   163    87    88    1
   164    99    97   ar
   165   177   178    2
   166   177   183   am
   167   169   170    1
   168    88    89    2
   169   214   213    2
   170   213   212    1
   171    82    81    2
   172    95    97   ar
   173    95    94    1
   174   202   201    1
   175    94    91    1
   176   183   184    1
   177    84    83    1
   178   170   171    1
   179   170   173    1
   180    81    80    1
   181   212   215    1
   182   212   211    1
   183   215   216    1
   184   171   172    2
   185   203   201    1
   186    93    92    2
   187   201   200    1
   188    92    91    1
   189   218   216    1
   190   173   174    1
   191   184   185    1
   192   184   187    1
   193    79    80    1
   194    91    90    1
   195    83    80    1
   196    83    85    1
   197   209   208    1
   198   200   197    1
   199   211   206   am
   200   216   217    1
   201   186   185    2
   202   207   206    2
   203   185   188   am
   204   197   196    1
   205   197   198    1
   206   195   193    1
   207   206   205    1
   208   193   194    1
   209   193   192    1
   210   188   189    1
   211   208   205    1
   212   208   210    1
   213   198   199    2
   214   205   204    1
   215   189   192    1
   216   189   190    1
   217   190   191    2
