@<TRIPOS>MOLECULE
tmp/4cakA04.pdb
 140 142 0 0 0
SMALL
GASTEIGER

@<TRIPOS>ATOM
      1  N        237.3780  245.2620  201.5730 N.3   563  PRO563     -0.2116
      2  CA       238.1080  245.7730  202.7340 C.3   563  PRO563      0.1372
      3  C        239.4230  246.4270  202.3380 C.2   563  PRO563      0.2244
      4  O        240.0390  246.0240  201.3510 O.2   563  PRO563     -0.2868
      5  CB       238.3690  244.5150  203.5670 C.3   563  PRO563      0.0268
      6  CG       238.3960  243.4030  202.5790 C.3   563  PRO563      0.0207
      7  CD       237.4680  243.7930  201.4630 C.3   563  PRO563      0.0892
      8  N        243.1470  246.8690  202.9180 N.3   565  VAL565     -0.1245
      9  CA       244.2350  246.1210  203.5570 C.3   565  VAL565      0.1561
     10  C        245.4690  246.9830  203.8270 C.2   565  VAL565      0.2260
     11  O        245.9520  247.6880  202.9420 O.2   565  VAL565     -0.2867
     12  CB       244.6590  244.9210  202.6880 C.3   565  VAL565      0.0252
     13  CG1      245.8360  244.1970  203.3200 C.3   565  VAL565      0.0019
     14  CG2      243.4920  243.9720  202.4960 C.3   565  VAL565      0.0019
     15  N        243.3980  245.0930  208.4480 N.am  594  GLN594     -0.2314
     16  CA       242.4940  245.7920  207.5450 C.3   594  GLN594      0.1438
     17  C        241.4350  246.6280  208.2450 C.3   594  GLN594      0.2893
     18  O        241.1870  246.4870  209.4400 O.3   594  GLN594     -0.1880
     19  CB       241.8250  244.7980  206.5900 C.3   594  GLN594      0.0870
     20  CG       240.8580  243.8350  207.2590 C.3   594  GLN594      0.0435
     21  CD       240.2570  242.8360  206.2880 C.3   594  GLN594      0.1847
     22  OE1      239.0400  242.7620  206.1350 O.3   594  GLN594     -0.3369
     23  NE2      241.1090  242.0630  205.6270 N.3   594  GLN594     -0.1677
     24  N        244.9620  246.4640  208.0680 N.3   607  CYS607     -0.1097
     25  CA       244.2600  245.1840  208.0080 C.3   607  CYS607      0.1823
     26  C        244.0120  244.6000  209.3980 C.2   607  CYS607      0.3247
     27  O        244.9510  244.2930  210.1300 O.2   607  CYS607     -0.2507
     28  CB       245.0410  244.1880  207.1450 C.3   607  CYS607      0.1083
     29  SG       244.7590  244.3690  205.3600 S.3   607  CYS607     -0.0787
     30  N        242.7350  244.4530  209.7420 N.am  608  VAL608     -0.1948
     31  CA       242.3170  243.9230  211.0360 C.3   608  VAL608      0.1712
     32  C        241.4780  242.6630  210.8250 C.2   608  VAL608      0.2458
     33  O        240.3040  242.7600  210.4670 O.2   608  VAL608     -0.2730
     34  CB       241.4760  244.9620  211.8070 C.3   608  VAL608      0.0289
     35  CG1      241.0550  244.4130  213.1610 C.3   608  VAL608      0.0023
     36  CG2      242.2550  246.2590  211.9700 C.3   608  VAL608      0.0023
     37  N        242.0760  241.4740  211.0340 N.am  609  PRO609     -0.2716
     38  CA       241.3540  240.2180  210.7970 C.3   609  PRO609      0.1536
     39  C        240.2900  239.8670  211.8420 C.2   609  PRO609      0.2598
     40  O        240.2800  240.4280  212.9380 O.2   609  PRO609     -0.2715
     41  CB       242.4640  239.1520  210.8250 C.3   609  PRO609      0.0310
     42  CG       243.7510  239.8910  210.7840 C.3   609  PRO609      0.0237
     43  CD       243.4930  241.2400  211.3600 C.3   609  PRO609      0.0939
     44  N        239.4020  238.9460  211.4700 N.am  610  GLN610     -0.1978
     45  CA       238.4420  238.3300  212.3840 C.3   610  GLN610      0.1601
     46  C        238.6130  236.8190  212.2780 C.2   610  GLN610      0.2287
     47  O        237.8120  236.1440  211.6300 O.2   610  GLN610     -0.2864
     48  CB       237.0000  238.6940  212.0070 C.3   610  GLN610      0.0394
     49  CG       236.5000  240.0550  212.4640 C.3   610  GLN610      0.0908
     50  CD       236.8310  240.3660  213.9070 C.2   610  GLN610      0.2608
     51  OE1      237.5440  241.3220  214.1950 O.2   610  GLN610     -0.2717
     52  NE2      236.3130  239.5550  214.8250 N.am  610  GLN610     -0.0878
     53  N        238.3550  233.0630  213.0100 N.3   612  GLN612     -0.1245
     54  CA       237.4440  232.1490  213.6950 C.3   612  GLN612      0.1566
     55  C        238.0010  230.7280  213.6650 C.2   612  GLN612      0.2260
     56  O        238.6650  230.3350  212.7050 O.2   612  GLN612     -0.2867
     57  CB       236.0690  232.1610  213.0220 C.3   612  GLN612      0.0367
     58  CG       235.4710  233.5490  212.7960 C.3   612  GLN612      0.0905
     59  CD       235.0840  234.2490  214.0840 C.2   612  GLN612      0.2608
     60  OE1      235.0310  233.6350  215.1510 O.2   612  GLN612     -0.2717
     61  NE2      234.8020  235.5460  213.9890 N.am  612  GLN612     -0.0878
     62  N        238.5680  230.0430  209.7620 N.3   637  ALA637     -0.1231
     63  CA       238.0300  231.0350  208.8360 C.3   637  ALA637      0.1694
     64  C        238.3570  232.4590  209.2780 C.2   637  ALA637      0.2592
     65  O        238.5160  232.7260  210.4670 O.2   637  ALA637     -0.2718
     66  CB       236.5240  230.8580  208.7000 C.3   637  ALA637      0.0304
     67  N        238.4630  233.3620  208.3030 N.am  638  ASN638     -0.1960
     68  CA       238.6490  234.7870  208.5680 C.3   638  ASN638      0.1819
     69  C        237.5190  235.5770  207.9350 C.2   638  ASN638      0.2621
     70  O        237.4130  235.6380  206.7100 O.2   638  ASN638     -0.2715
     71  CB       239.9860  235.2740  208.0080 C.3   638  ASN638      0.1195
     72  CG       240.2530  236.7450  208.3090 C.2   638  ASN638      0.2630
     73  OD1      239.6320  237.3390  209.1920 O.2   638  ASN638     -0.2716
     74  ND2      241.1950  237.3340  207.5790 N.am  638  ASN638     -0.0877
     75  N        236.6760  236.1760  208.7740 N.am  639  GLU639     -0.1963
     76  CA       235.5660  237.0060  208.3080 C.3   639  GLU639      0.1733
     77  C        235.9420  238.4910  208.3260 C.2   639  GLU639      0.2617
     78  O        235.0940  239.3590  208.1070 O.2   639  GLU639     -0.2715
     79  CB       234.3230  236.7680  209.1710 C.3   639  GLU639      0.0429
     80  CG       233.7840  235.3450  209.1100 C.3   639  GLU639      0.1163
     81  CD       232.5820  235.1290  210.0130 C.2   639  GLU639      0.3649
     82  OE1      232.0270  236.1260  210.5190 O.co2 639  GLU639     -0.2457
     83  OE2      232.1900  233.9570  210.2190 O.co2 639  GLU639     -0.2457
     84  N        237.2150  238.7730  208.5970 N.am  640  GLY640     -0.1940
     85  CA       237.7360  240.1330  208.5810 C.3   640  GLY640      0.2014
     86  C        238.7410  240.2910  207.4590 C.2   640  GLY640      0.2650
     87  O        238.6880  239.5710  206.4670 O.2   640  GLY640     -0.2714
     88  N        239.6680  241.2260  207.6270 N.am  641  GLU641     -0.1816
     89  CA       240.6310  241.5540  206.5790 C.3   641  GLU641      0.2129
     90  C        241.8530  240.6460  206.6530 C.2   641  GLU641      0.2752
     91  O        242.0010  239.8720  207.5940 O.2   641  GLU641     -0.2700
     92  CB       241.0300  243.0290  206.6800 C.3   641  GLU641      0.0880
     93  CG       239.8660  243.9750  206.4280 C.3   641  GLU641      0.1805
     94  CD       240.1760  245.4200  206.7670 C.3   641  GLU641      0.2488
     95  OE1      240.8400  245.6810  207.7930 O.3   641  GLU641     -0.3020
     96  OE2      239.7310  246.3080  206.0110 O.3   641  GLU641     -0.1925
     97  N        242.7240  240.7490  205.6520 N.am  642  GLY642     -0.1943
     98  CA       243.8580  239.8380  205.4920 C.3   642  GLY642      0.1870
     99  C        244.7290  239.6400  206.7200 C.2   642  GLY642      0.2309
    100  O        245.0980  240.6010  207.3900 O.2   642  GLY642     -0.2863
    101  N        243.2280  235.5160  203.1540 N.3   693  LYS693     -0.1231
    102  CA       242.3070  236.5280  202.6320 C.3   693  LYS693      0.1693
    103  C        240.9710  236.5930  203.3720 C.2   693  LYS693      0.2592
    104  O        240.6220  235.6990  204.1430 O.2   693  LYS693     -0.2718
    105  CB       242.0540  236.2910  201.1390 C.3   693  LYS693      0.0285
    106  CG       243.2680  236.5360  200.2600 C.3   693  LYS693      0.0035
    107  CD       242.9650  236.2290  198.8010 C.3   693  LYS693      0.0206
    108  CE       244.1800  236.4610  197.9120 C.3   693  LYS693      0.1093
    109  NZ       244.5000  237.9140  197.7580 N.3   693  LYS693     -0.1314
    110  N        240.2330  237.6740  203.1300 N.am  694  LYS694     -0.1966
    111  CA       238.9150  237.8660  203.7240 C.3   694  LYS694      0.1728
    112  C        237.9390  236.8110  203.2160 C.2   694  LYS694      0.2616
    113  O        237.9700  236.4380  202.0440 O.2   694  LYS694     -0.2715
    114  CB       238.3850  239.2680  203.4060 C.3   694  LYS694      0.0311
    115  CG       236.9380  239.5080  203.8360 C.3   694  LYS694      0.0038
    116  CD       236.5980  240.9950  203.8770 C.3   694  LYS694      0.0206
    117  CE       235.1930  241.2290  204.4110 C.3   694  LYS694      0.1093
    118  NZ       234.8690  242.6780  204.5080 N.3   694  LYS694     -0.1314
    119  N        237.0840  236.3330  204.1170 N.am  695  ASN695     -0.1958
    120  CA       236.1160  235.2780  203.8200 C.3   695  ASN695      0.1819
    121  C        236.7640  233.9600  203.3740 C.2   695  ASN695      0.2621
    122  O        236.1040  233.1180  202.7580 O.2   695  ASN695     -0.2715
    123  CB       235.0870  235.7580  202.7840 C.3   695  ASN695      0.1195
    124  CG       234.3350  236.9990  203.2390 C.2   695  ASN695      0.2630
    125  OD1      234.1390  237.2190  204.4360 O.2   695  ASN695     -0.2716
    126  ND2      233.9090  237.8170  202.2830 N.am  695  ASN695     -0.0877
    127  N        238.0430  233.7820  203.6990 N.am  696  ALA696     -0.1963
    128  CA       238.7330  232.5210  203.4400 C.3   696  ALA696      0.1728
    129  C        238.3820  231.5460  204.5510 C.2   696  ALA696      0.2616
    130  O        238.3150  231.9340  205.7150 O.2   696  ALA696     -0.2715
    131  CB       240.2360  232.7330  203.3810 C.3   696  ALA696      0.0334
    132  N        238.1500  230.2860  204.1910 N.am  697  GLN697     -0.1977
    133  CA       237.7640  229.2750  205.1710 C.3   697  GLN697      0.1601
    134  C        238.3990  227.9220  204.8680 C.2   697  GLN697      0.2287
    135  O        237.9960  227.2300  203.9290 O.2   697  GLN697     -0.2864
    136  CB       236.2420  229.1480  205.2310 C.3   697  GLN697      0.0394
    137  CG       235.7500  228.2390  206.3520 C.3   697  GLN697      0.0908
    138  CD       234.3740  228.6230  206.8710 C.2   697  GLN697      0.2608
    139  OE1      233.8980  229.7440  206.6610 O.2   697  GLN697     -0.2717
    140  NE2      233.7300  227.6920  207.5680 N.am  697  GLN697     -0.0878
@<TRIPOS>BOND
     1   109   108    1
     2   108   107    1
     3   107   106    1
     4   106   105    1
     5   105   102    1
     6     4     3    2
     7     7     1    1
     8     7     6    1
     9     1     2    1
    10   113   112    2
    11   126   124   am
    12     3     2    1
    13    14    12    1
    14     6     5    1
    15   102   101    1
    16   102   103    1
    17    12    13    1
    18    12     9    1
    19     2     5    1
    20   122   121    2
    21   123   124    1
    22   123   120    1
    23     8     9    1
    24    11    10    2
    25   110   103   am
    26   110   111    1
    27   112   111    1
    28   112   119   am
    29   124   125    2
    30   103   104    2
    31   121   127   am
    32   121   120    1
    33   131   128    1
    34   114   111    1
    35   114   115    1
    36   128   127    1
    37   128   129    1
    38     9    10    1
    39   120   119    1
    40   115   116    1
    41   116   117    1
    42   135   134    2
    43   132   129   am
    44   132   133    1
    45   117   118    1
    46   129   130    2
    47   134   133    1
    48   133   136    1
    49   136   137    1
    50    29    28    1
    51    98    97    1
    52    98    99    1
    53    23    21    1
    54    23    89    1
    55    97    90   am
    56    96    94    1
    57    22    21    1
    58    22    93    1
    59    21    93    1
    60    21    92    1
    61   137   138    1
    62    93    94    1
    63    93    20    1
    64    87    86    2
    65    89    90    1
    66    89    92    1
    67    89    88    1
    68    19    94    1
    69    19    16    1
    70    90    91    2
    71   139   138    2
    72    92    20    1
    73    70    69    2
    74    99   100    2
    75    94    95    1
    76   138   140   am
    77    28    25    1
    78    86    88   am
    79    86    85    1
    80    16    17    1
    81    16    15    1
    82    74    72   am
    83    95    17    1
    84    69    68    1
    85    69    75   am
    86    25    24    1
    87    25    15    1
    88    71    72    1
    89    71    68    1
    90    78    77    2
    91    17    18    1
    92    67    68    1
    93    67    64   am
    94    76    77    1
    95    76    75    1
    96    76    79    1
    97    72    73    2
    98    77    84   am
    99    15    26    1
   100    15    30    1
   101    85    84    1
   102    66    63    1
   103    63    64    1
   104    63    62    1
   105    80    79    1
   106    80    81    1
   107    64    65    2
   108    26    30   am
   109    26    27    2
   110    30    31    1
   111    81    83   ar
   112    81    82   ar
   113    33    32    2
   114    42    41    1
   115    42    43    1
   116    38    41    1
   117    38    37    1
   118    38    39    1
   119    32    37   am
   120    32    31    1
   121    37    43    1
   122    31    34    1
   123    44    39   am
   124    44    45    1
   125    47    46    2
   126    34    36    1
   127    34    35    1
   128    39    40    2
   129    48    45    1
   130    48    49    1
   131    46    45    1
   132    49    50    1
   133    56    55    2
   134    58    57    1
   135    58    59    1
   136    53    54    1
   137    57    54    1
   138    55    54    1
   139    50    51    2
   140    50    52   am
   141    61    59   am
   142    59    60    2
