@<TRIPOS>MOLECULE
tmp/4cakB04.pdb
 134 127 0 0 0
SMALL
GASTEIGER

@<TRIPOS>ATOM
      1  N        230.4720  192.9790  189.5320 N.3   519  VAL519     -0.1242
      2  CA       230.0610  192.2190  190.7020 C.3   519  VAL519      0.1599
      3  C        229.6730  190.7930  190.3050 C.2   519  VAL519      0.2264
      4  O        229.1470  190.5650  189.2150 O.2   519  VAL519     -0.2867
      5  CB       228.8680  192.8930  191.4090 C.3   519  VAL519      0.0473
      6  CG1      228.6450  192.2670  192.7680 C.2   519  VAL519      0.0052
      7  CG2      229.1070  194.3910  191.5530 C.3   519  VAL519      0.0064
      8  N        230.2040  198.3570  185.4000 N.3   536  ASP536     -0.1239
      9  CA       228.7550  198.2230  185.5360 C.3   536  ASP536      0.1674
     10  C        228.2050  197.1250  184.6300 C.2   536  ASP536      0.2266
     11  O        228.6030  197.0080  183.4700 O.2   536  ASP536     -0.2867
     12  CB       228.0740  199.5530  185.1970 C.3   536  ASP536      0.1410
     13  CG       228.4560  200.6700  186.1560 C.2   536  ASP536      0.3668
     14  OD1      228.7240  200.3780  187.3410 O.co2 536  ASP536     -0.2456
     15  OD2      228.4820  201.8410  185.7250 O.co2 536  ASP536     -0.2456
     16  N        217.2470  191.8090  185.2370 N.3   544  THR544     -0.1203
     17  CA       217.3530  193.1670  185.7550 C.3   544  THR544      0.1994
     18  C        218.1280  193.1800  187.0650 C.2   544  THR544      0.2618
     19  O        218.4850  192.1260  187.5940 O.2   544  THR544     -0.2717
     20  CB       215.9580  193.7790  185.9990 C.3   544  THR544      0.1784
     21  OG1      216.0900  195.1610  186.3520 O.3   544  THR544     -0.2211
     22  CG2      215.2330  193.0390  187.1170 C.3   544  THR544      0.0376
     23  N        218.3890  194.3770  187.5790 N.am  545  GLY545     -0.1942
     24  CA       219.0710  194.5370  188.8560 C.3   545  GLY545      0.2014
     25  C        220.5550  194.7840  188.6950 C.2   545  GLY545      0.2639
     26  O        221.1050  194.6220  187.6090 O.2   545  GLY545     -0.2714
     27  N        221.1990  195.1660  189.7950 N.am  546  TYR546     -0.1959
     28  CA       222.6200  195.5060  189.8050 C.3   546  TYR546      0.1771
     29  C        223.5160  194.2900  189.5450 C.2   546  TYR546      0.2619
     30  O        224.6510  194.4360  189.0980 O.2   546  TYR546     -0.2715
     31  CB       222.9740  196.1580  191.1470 C.3   546  TYR546      0.0574
     32  CG       224.4140  196.6040  191.2900 C.ar  546  TYR546     -0.0198
     33  CD1      225.0170  197.4140  190.3320 C.ar  546  TYR546     -0.0009
     34  CD2      225.1720  196.2210  192.3930 C.ar  546  TYR546     -0.0009
     35  CE1      226.3360  197.8260  190.4660 C.ar  546  TYR546      0.0417
     36  CE2      226.4890  196.6290  192.5370 C.ar  546  TYR546      0.0417
     37  CZ       227.0660  197.4310  191.5720 C.ar  546  TYR546      0.1957
     38  OH       228.3750  197.8330  191.7190 O.3   546  TYR546     -0.2866
     39  N        222.9960  193.0960  189.8180 N.am  547  TYR547     -0.1974
     40  CA       223.7390  191.8560  189.6130 C.3   547  TYR547      0.1639
     41  C        223.2830  191.0960  188.3680 C.2   547  TYR547      0.2290
     42  O        223.9260  190.1290  187.9660 O.2   547  TYR547     -0.2864
     43  CB       223.5760  190.9460  190.8320 C.3   547  TYR547      0.0560
     44  CG       224.2730  191.4330  192.0820 C.ar  547  TYR547     -0.0198
     45  CD1      223.8390  192.5750  192.7470 C.ar  547  TYR547     -0.0009
     46  CD2      225.3570  190.7450  192.6060 C.ar  547  TYR547     -0.0009
     47  CE1      224.4700  193.0170  193.8950 C.ar  547  TYR547      0.0417
     48  CE2      225.9920  191.1780  193.7540 C.ar  547  TYR547      0.0417
     49  CZ       225.5480  192.3160  194.3930 C.ar  547  TYR547      0.1957
     50  OH       226.1840  192.7510  195.5370 O.3   547  TYR547     -0.2866
     51  N        228.6260  189.8920  191.9590 N.3   549  ASN549     -0.1210
     52  CA       229.1290  190.2340  193.2940 C.3   549  ASN549      0.1956
     53  C        228.1760  189.8420  194.4240 C.2   549  ASN549      0.2612
     54  O        228.4150  190.1820  195.5830 O.2   549  ASN549     -0.2717
     55  CB       229.4800  191.7240  193.3820 C.2   549  ASN549     -0.0051
     56  CG       228.2620  192.6240  193.3340 C.3   549  ASN549      0.2605
     57  OD1      227.2550  192.3020  192.7010 O.3   549  ASN549     -0.1975
     58  ND2      228.3570  193.7690  194.0060 N.3   549  ASN549     -0.0923
     59  N        227.1060  189.1270  194.0850 N.am  550  CYS550     -0.1956
     60  CA       226.1750  188.6110  195.0820 C.3   550  CYS550      0.1843
     61  C        226.3980  187.1120  195.2660 C.2   550  CYS550      0.2626
     62  O        226.0890  186.3190  194.3760 O.2   550  CYS550     -0.2714
     63  CB       224.7320  188.8750  194.6570 C.3   550  CYS550      0.0997
     64  SG       223.5050  188.2730  195.8420 S.3   550  CYS550     -0.0797
     65  N        226.9360  186.7320  196.4200 N.am  551  THR551     -0.1950
     66  CA       227.2710  185.3370  196.6860 C.3   551  THR551      0.1897
     67  C        226.0280  184.4620  196.7950 C.2   551  THR551      0.2313
     68  O        224.9470  184.9370  197.1410 O.2   551  THR551     -0.2863
     69  CB       228.0890  185.1900  197.9850 C.3   551  THR551      0.1794
     70  OG1      228.6480  183.8730  198.0530 O.3   551  THR551     -0.2208
     71  CG2      227.2180  185.4310  199.2070 C.3   551  THR551      0.0378
     72  N        220.4600  187.5900  198.7640 N.3   573  CYS573     -0.1235
     73  CA       221.7500  188.0570  198.2550 C.3   573  CYS573      0.1677
     74  C        222.7580  188.2880  199.3770 C.2   573  CYS573      0.2270
     75  O        223.5200  189.2540  199.3490 O.2   573  CYS573     -0.2867
     76  CB       221.5680  189.3350  197.4330 C.3   573  CYS573      0.0956
     77  SG       220.1060  189.3140  196.3680 S.3   573  CYS573     -0.0801
     78  N        222.1180  189.1110  202.3770 N.3   575  SER575     -0.1217
     79  CA       221.6410  190.1230  203.3110 C.3   575  SER575      0.1889
     80  C        220.2070  189.8260  203.7110 C.2   575  SER575      0.2288
     81  O        219.3720  189.5050  202.8680 O.2   575  SER575     -0.2866
     82  CB       221.7220  191.5160  202.6850 C.3   575  SER575      0.2089
     83  OG       223.0530  192.0020  202.6940 O.3   575  SER575     -0.2183
     84  N        212.2220  203.9970  198.8730 N.3   615  LEU615     -0.1245
     85  CA       212.4930  202.5580  198.9400 C.3   615  LEU615      0.1561
     86  C        211.2830  201.7260  198.5000 C.2   615  LEU615      0.2260
     87  O        211.0910  200.6020  198.9660 O.2   615  LEU615     -0.2867
     88  CB       212.9320  202.1510  200.3540 C.3   615  LEU615      0.0270
     89  CG       213.9900  203.0360  201.0230 C.3   615  LEU615      0.0019
     90  CD1      214.0990  202.7190  202.5060 C.3   615  LEU615      0.0001
     91  CD2      215.3390  202.8880  200.3350 C.3   615  LEU615      0.0001
     92  N        210.3610  201.5650  194.9040 N.3   617  ASP617     -0.1225
     93  CA       210.7930  200.9900  193.6300 C.3   617  ASP617      0.1805
     94  C        212.2660  200.5660  193.6540 C.2   617  ASP617      0.2598
     95  O        212.8070  200.1390  192.6320 O.2   617  ASP617     -0.2718
     96  CB       210.5630  201.9880  192.4910 C.3   617  ASP617      0.1424
     97  CG       209.0900  202.2190  192.2040 C.2   617  ASP617      0.3668
     98  OD1      208.2490  201.8680  193.0580 O.co2 617  ASP617     -0.2456
     99  OD2      208.7740  202.7560  191.1210 O.co2 617  ASP617     -0.2456
    100  N        212.9060  200.6850  194.8160 N.am  618  GLU618     -0.1965
    101  CA       214.3090  200.3030  194.9730 C.3   618  GLU618      0.1733
    102  C        214.4660  199.3030  196.1180 C.2   618  GLU618      0.2616
    103  O        213.8180  199.4340  197.1580 O.2   618  GLU618     -0.2715
    104  CB       215.1760  201.5390  195.2280 C.3   618  GLU618      0.0429
    105  CG       214.9540  202.6820  194.2370 C.3   618  GLU618      0.1163
    106  CD       215.1810  202.2730  192.7910 C.2   618  GLU618      0.3649
    107  OE1      216.0650  201.4290  192.5370 O.co2 618  GLU618     -0.2457
    108  OE2      214.4750  202.8010  191.9060 O.co2 618  GLU618     -0.2457
    109  N        215.3360  198.3150  195.9230 N.am  619  ASN619     -0.1958
    110  CA       215.5000  197.2170  196.8770 C.3   619  ASN619      0.1819
    111  C        216.2930  197.6160  198.1190 C.2   619  ASN619      0.2621
    112  O        217.4470  197.2140  198.2810 O.2   619  ASN619     -0.2715
    113  CB       216.1850  196.0230  196.2020 C.3   619  ASN619      0.1195
    114  CG       215.3730  195.4520  195.0540 C.2   619  ASN619      0.2630
    115  OD1      214.5360  196.1360  194.4660 O.2   619  ASN619     -0.2716
    116  ND2      215.6240  194.1900  194.7250 N.am  619  ASN619     -0.0877
    117  N        215.6790  198.4080  198.9930 N.am  620  THR620     -0.1951
    118  CA       216.3070  198.7930  200.2580 C.3   620  THR620      0.1897
    119  C        215.2740  199.2840  201.2810 C.2   620  THR620      0.2313
    120  O        215.5420  200.2140  202.0390 O.2   620  THR620     -0.2863
    121  CB       217.3790  199.8950  200.0480 C.3   620  THR620      0.1794
    122  OG1      218.2460  199.5400  198.9640 O.3   620  THR620     -0.2208
    123  CG2      218.2140  200.0910  201.3080 C.3   620  THR620      0.0378
    124  N        215.9460  196.6110  204.3890 N.3   623  ARG623     -0.1245
    125  CA       217.3680  196.2840  204.4520 C.3   623  ARG623      0.1563
    126  C        217.9920  196.9210  205.6910 C.2   623  ARG623      0.2260
    127  O        218.5720  196.2290  206.5280 O.2   623  ARG623     -0.2867
    128  CB       218.0760  196.7710  203.1840 C.3   623  ARG623      0.0307
    129  CG       219.5500  196.4010  203.0980 C.3   623  ARG623      0.0489
    130  CD       220.1580  196.9140  201.8040 C.3   623  ARG623      0.2205
    131  NE       221.5930  196.6590  201.7270 N.pl3 623  ARG623     -0.0865
    132  CZ       222.3700  197.0290  200.7120 C.cat 623  ARG623      0.5346
    133  NH1      221.8590  197.6790  199.6710 N.pl3 623  ARG623      0.1354
    134  NH2      223.6680  196.7490  200.7360 N.pl3 623  ARG623      0.1354
@<TRIPOS>BOND
     1    11    10    2
     2    10     9    1
     3    12     9    1
     4    12    13    1
     5    16    17    1
     6     8     9    1
     7    15    13   ar
     8    17    20    1
     9    17    18    1
    10    20    21    1
    11    20    22    1
    12    13    14   ar
    13    18    23   am
    14    18    19    2
    15    23    24    1
    16    26    25    2
    17    42    41    2
    18    41    40    1
    19    25    24    1
    20    25    27   am
    21    30    29    2
    22     4     3    2
    23     1     2    1
    24    29    28    1
    25    29    39   am
    26    40    39    1
    27    40    43    1
    28    27    28    1
    29    28    31    1
    30     3     2    1
    31    33    35   ar
    32    33    32   ar
    33    35    37   ar
    34     2     5    1
    35    43    44    1
    36    99    97   ar
    37    31    32    1
    38    32    34   ar
    39     5     7    1
    40     5     6    1
    41    37    38    1
    42    37    36   ar
    43   108   106   ar
    44    51    52    1
    45    44    46   ar
    46    44    45   ar
    47    97    96    1
    48    97    98   ar
    49    34    36   ar
    50    96    93    1
    51   107   106   ar
    52    46    48   ar
    53    95    94    2
    54    57    56    1
    55    45    47   ar
    56     6    56    1
    57     6    55    2
    58   106   105    1
    59    52    53    1
    60    56    58    1
    61    93    94    1
    62    93    92    1
    63    94   100   am
    64    48    49   ar
    65    47    49   ar
    66    59    53   am
    67    59    60    1
    68   105   104    1
    69    62    61    2
    70    49    50    1
    71    53    54    2
    72   115   114    2
    73    63    60    1
    74    63    64    1
    75   116   114   am
    76   100   101    1
    77   101   104    1
    78   101   102    1
    79   114   113    1
    80    60    61    1
    81    61    65   am
    82   109   102   am
    83   109   110    1
    84   102   103    2
    85   113   110    1
    86    77    76    1
    87    65    66    1
    88    66    67    1
    89    66    69    1
    90    67    68    2
    91   110   111    1
    92    76    73    1
    93    69    70    1
    94    69    71    1
    95   111   112    2
    96   111   117   am
    97    73    72    1
    98    73    74    1
    99    86    85    1
   100    86    87    2
   101    84    85    1
   102    85    88    1
   103   122   121    1
   104   117   118    1
   105    75    74    2
   106   133   132    1
   107   121   118    1
   108   121   123    1
   109   118   119    1
   110    91    89    1
   111    88    89    1
   112   132   134    1
   113   132   131    2
   114    89    90    1
   115   119   120    2
   116   131   130    1
   117   130   129    1
   118    78    79    1
   119    82    83    1
   120    82    79    1
   121    81    80    2
   122   129   128    1
   123   128   125    1
   124    79    80    1
   125   124   125    1
   126   125   126    1
   127   126   127    2
