@<TRIPOS>MOLECULE
tmp/4cakA01.pdb
 111 104 0 0 0
SMALL
GASTEIGER

@<TRIPOS>ATOM
      1  N        263.1480  240.7020  201.9690 N.3     1  ASN1       -0.1225
      2  CA       264.4070  241.3380  202.3730 C.3     1  ASN1        0.1785
      3  C        265.5850  240.4080  202.0510 C.2     1  ASN1        0.2597
      4  O        266.5270  240.2930  202.8300 O.2     1  ASN1       -0.2718
      5  CB       264.3510  241.8830  203.8200 C.3     1  ASN1        0.1169
      6  CG       264.0910  240.8140  204.8960 C.2     1  ASN1        0.2627
      7  OD1      263.0600  240.1520  204.8740 O.2     1  ASN1       -0.2716
      8  ND2      265.0200  240.6160  205.8320 N.am    1  ASN1       -0.0877
      9  N        265.5030  239.6950  200.9260 N.am    2  LEU2       -0.1966
     10  CA       266.4540  238.7060  200.4400 C.3     2  LEU2        0.1728
     11  C        266.3870  238.7530  198.9260 C.2     2  LEU2        0.2616
     12  O        265.8060  237.8770  198.2810 O.2     2  LEU2       -0.2715
     13  CB       266.1700  237.3230  201.0810 C.3     2  LEU2        0.0311
     14  CG       267.0930  236.1630  200.6530 C.3     2  LEU2        0.0022
     15  CD1      268.5540  236.3970  201.0560 C.3     2  LEU2        0.0001
     16  CD2      266.5950  234.8260  201.2130 C.3     2  LEU2        0.0001
     17  N        266.9030  239.8310  198.3590 N.am    3  ASP3       -0.1971
     18  CA       266.8440  240.1300  196.9310 C.3     3  ASP3        0.1709
     19  C        268.2400  239.9470  196.3220 C.2     3  ASP3        0.2293
     20  O        269.2430  240.1010  197.0310 O.2     3  ASP3       -0.2864
     21  CB       266.2970  241.5610  196.7480 C.3     3  ASP3        0.1436
     22  CG       264.7850  241.5520  196.9430 C.2     3  ASP3        0.3671
     23  OD1      264.1110  241.1420  195.9730 O.co2   3  ASP3       -0.2456
     24  OD2      264.3210  241.8140  198.0750 O.co2   3  ASP3       -0.2456
     25  N        262.3940  237.4580  207.8800 N.3   366  ASP366     -0.1299
     26  CA       261.7020  238.7510  207.9100 C.3   366  ASP366      0.1322
     27  C        261.7460  239.3510  209.3450 C.3   366  ASP366      0.0548
     28  O        261.6340  240.5690  209.4950 O.3   366  ASP366     -0.2230
     29  CB       260.2450  238.5630  207.3870 C.3   366  ASP366      0.2535
     30  CG       259.1850  238.3050  208.4460 C.3   366  ASP366      0.4825
     31  OD1      258.6590  239.3190  208.9700 O.2   366  ASP366     -0.2412
     32  OD2      258.9880  237.1080  208.7490 O.2   366  ASP366     -0.2412
     33  N        257.1200  232.2260  203.8860 N.3   392  LEU392     -0.1245
     34  CA       257.0810  232.7010  205.2720 C.3   392  LEU392      0.1561
     35  C        256.2170  231.7500  206.1150 C.2   392  LEU392      0.2260
     36  O        255.3730  231.0300  205.5790 O.2   392  LEU392     -0.2867
     37  CB       256.3790  234.0770  205.2840 C.3   392  LEU392      0.0270
     38  CG       257.1600  235.2380  204.6200 C.3   392  LEU392      0.0019
     39  CD1      256.2400  236.4510  204.4060 C.3   392  LEU392      0.0001
     40  CD2      258.3970  235.6420  205.4280 C.3   392  LEU392      0.0001
     41  N        257.0340  234.5940  199.0300 N.3   403  SER403     -0.1202
     42  CA       257.3070  236.0210  199.1780 C.3   403  SER403      0.2020
     43  C        258.5790  236.4480  198.4220 C.2   403  SER403      0.2618
     44  O        258.8890  237.6410  198.3830 O.2   403  SER403     -0.2717
     45  CB       257.4480  236.2860  200.7000 C.3   403  SER403      0.2103
     46  OG       258.3960  235.4170  201.3040 O.3   403  SER403     -0.2182
     47  N        259.3060  235.4920  197.8310 N.am  404  GLN404     -0.1979
     48  CA       260.4350  235.6520  196.9350 C.3   404  GLN404      0.1601
     49  C        260.5430  234.3900  196.0690 C.2   404  GLN404      0.2287
     50  O        260.2760  233.2900  196.5620 O.2   404  GLN404     -0.2864
     51  CB       261.7130  236.0100  197.7240 C.3   404  GLN404      0.0394
     52  CG       263.0350  236.0850  196.9340 C.3   404  GLN404      0.0908
     53  CD       263.0370  237.2490  195.9410 C.2   404  GLN404      0.2608
     54  OE1      262.2450  237.2580  195.0130 O.2   404  GLN404     -0.2717
     55  NE2      263.8940  238.2290  196.1670 N.am  404  GLN404     -0.0878
     56  N        268.9450  241.5190  203.6470 N.3   450  GLN450     -0.1245
     57  CA       268.9380  242.9610  203.8810 C.3   450  GLN450      0.1566
     58  C        268.1440  243.2850  205.1780 C.2   450  GLN450      0.2260
     59  O        267.3000  242.4820  205.5940 O.2   450  GLN450     -0.2867
     60  CB       268.2050  243.6540  202.6990 C.3   450  GLN450      0.0367
     61  CG       269.0220  243.7360  201.3940 C.3   450  GLN450      0.0905
     62  CD       269.1110  242.3970  200.6560 C.2   450  GLN450      0.2608
     63  OE1      268.0960  241.7990  200.3010 O.2   450  GLN450     -0.2717
     64  NE2      270.3110  241.8900  200.4590 N.am  450  GLN450     -0.0878
     65  N        264.3480  248.9140  208.4640 N.3   504  ASN504     -0.1240
     66  CA       263.4330  249.6640  207.6110 C.3   504  ASN504      0.1653
     67  C        262.0220  249.0970  207.7390 C.2   504  ASN504      0.2266
     68  O        261.8370  247.8820  207.7190 O.2   504  ASN504     -0.2867
     69  CB       263.8980  249.6120  206.1540 C.3   504  ASN504      0.1155
     70  CG       265.2590  250.2630  205.9490 C.2   504  ASN504      0.2627
     71  OD1      265.6190  251.2160  206.6410 O.2   504  ASN504     -0.2716
     72  ND2      266.0200  249.7480  204.9910 N.am  504  ASN504     -0.0877
     73  N        246.7670  247.8100  200.0730 N.3   511  ARG511     -0.1245
     74  CA       247.7490  247.0340  199.3170 C.3   511  ARG511      0.1563
     75  C        247.1550  246.2570  198.1400 C.2   511  ARG511      0.2260
     76  O        247.7610  246.1810  197.0710 O.2   511  ARG511     -0.2867
     77  CB       248.4720  246.0610  200.2530 C.3   511  ARG511      0.0307
     78  CG       249.5590  245.2420  199.5730 C.3   511  ARG511      0.0489
     79  CD       250.2320  244.2880  200.5380 C.3   511  ARG511      0.2205
     80  NE       251.2680  243.5000  199.8780 N.pl3 511  ARG511     -0.0865
     81  CZ       252.5380  243.8790  199.7800 C.cat 511  ARG511      0.5346
     82  NH1      252.9310  245.0310  200.3040 N.pl3 511  ARG511      0.1354
     83  NH2      253.4170  243.1010  199.1600 N.pl3 511  ARG511      0.1354
     84  N        255.9890  245.8330  206.3700 N.3   569  ASN569     -0.1225
     85  CA       257.1040  244.9490  206.0410 C.3   569  ASN569      0.1785
     86  C        258.4050  245.4750  206.6330 C.2   569  ASN569      0.2597
     87  O        258.7840  246.6210  206.3910 O.2   569  ASN569     -0.2718
     88  CB       257.2460  244.8130  204.5230 C.3   569  ASN569      0.1169
     89  CG       258.2680  243.7550  204.1230 C.2   569  ASN569      0.2627
     90  OD1      258.5300  242.8240  204.8890 O.2   569  ASN569     -0.2716
     91  ND2      258.8560  243.8850  202.9330 N.am  569  ASN569     -0.0877
     92  N        259.0840  244.6300  207.4040 N.am  570  VAL570     -0.1966
     93  CA       260.3110  245.0160  208.1020 C.3   570  VAL570      0.1727
     94  C        261.5190  244.2530  207.5580 C.2   570  VAL570      0.2616
     95  O        261.4620  243.0390  207.3690 O.2   570  VAL570     -0.2715
     96  CB       260.1890  244.7400  209.6140 C.3   570  VAL570      0.0290
     97  CG1      261.5390  244.8940  210.2960 C.3   570  VAL570      0.0023
     98  CG2      259.1570  245.6650  210.2390 C.3   570  VAL570      0.0023
     99  N        262.6130  244.9670  207.3110 N.am  571  SER571     -0.1950
    100  CA       263.8320  244.3470  206.8030 C.3   571  SER571      0.1924
    101  C        265.0730  245.0560  207.3250 C.2   571  SER571      0.2314
    102  O        264.9910  246.1690  207.8490 O.2   571  SER571     -0.2863
    103  CB       263.8460  244.3750  205.2740 C.3   571  SER571      0.2116
    104  OG       264.0480  245.6930  204.7960 O.3   571  SER571     -0.2180
    105  N        258.2870  239.4430  210.4870 N.3   589  THR589     -0.1244
    106  CA       258.7680  240.6320  209.7800 C.3   589  THR589      0.1587
    107  C        257.7160  241.2270  208.8400 C.2   589  THR589      0.2261
    108  O        257.9220  242.2990  208.2690 O.2   589  THR589     -0.2867
    109  CB       260.0260  240.3240  208.9590 C.3   589  THR589      0.0599
    110  OG1      259.6880  239.4710  207.8590 O.3   589  THR589     -0.2767
    111  CG2      261.0780  239.6580  209.8280 C.3   589  THR589      0.1554
@<TRIPOS>BOND
     1    54    53    2
     2    53    55   am
     3    53    52    1
     4    23    22   ar
     5    49    50    2
     6    49    48    1
     7    19    18    1
     8    19    20    2
     9    21    18    1
    10    21    22    1
    11    18    17    1
    12    52    51    1
    13    48    51    1
    14    48    47    1
    15    22    24   ar
    16    76    75    2
    17    47    43   am
    18    75    74    1
    19    12    11    2
    20    17    11   am
    21    44    43    2
    22    43    42    1
    23    11    10    1
    24    41    42    1
    25    83    81    1
    26    42    45    1
    27    74    73    1
    28    74    77    1
    29    78    77    1
    30    78    79    1
    31    81    80    2
    32    81    82    1
    33    80    79    1
    34    63    62    2
    35    10     9    1
    36    10    13    1
    37    64    62   am
    38    14    15    1
    39    14    13    1
    40    14    16    1
    41    62    61    1
    42    45    46    1
    43     9     3   am
    44    61    60    1
    45     1     2    1
    46     3     2    1
    47     3     4    2
    48     2     5    1
    49    60    57    1
    50    91    89   am
    51    56    57    1
    52     5     6    1
    53    57    58    1
    54    33    34    1
    55    89    88    1
    56    89    90    2
    57    39    38    1
    58    88    85    1
    59    38    37    1
    60    38    40    1
    61   104   103    1
    62     7     6    2
    63     6     8   am
    64    72    70   am
    65    58    59    2
    66    34    37    1
    67    34    35    1
    68   103   100    1
    69    36    35    2
    70    70    69    1
    71    70    71    2
    72    85    84    1
    73    85    86    1
    74    69    66    1
    75    87    86    2
    76    86    92   am
    77   100    99    1
    78   100   101    1
    79    99    94   am
    80   101   102    2
    81    95    94    2
    82    29   110    1
    83    29    26    1
    84    29    30    1
    85    92    93    1
    86    94    93    1
    87    66    67    1
    88    66    65    1
    89    68    67    2
    90   110    30    1
    91    25    26    1
    92    26    27    1
    93    93    96    1
    94   108   107    2
    95    30    32    1
    96    30    31    1
    97   107   106    1
    98   109   106    1
    99   109   111    1
   100    27   111    1
   101    28   111    1
   102    96    98    1
   103    96    97    1
   104   106   105    1
