@<TRIPOS>MOLECULE
tmp/4cakB01.pdb
 81 76 0 0 0
SMALL
GASTEIGER

@<TRIPOS>ATOM
      1  N        251.9190  205.2440  187.3760 N.3   249  LYS249     -0.1245
      2  CA       252.5880  206.3690  188.0250 C.3   249  LYS249      0.1562
      3  C        253.1830  207.3230  186.9970 C.2   249  LYS249      0.2260
      4  O        253.1860  207.0410  185.7940 O.2   249  LYS249     -0.2867
      5  CB       253.7110  205.8630  188.9400 C.3   249  LYS249      0.0290
      6  CG       253.2470  205.0520  190.1410 C.2   249  LYS249     -0.0070
      7  CD       254.4330  204.4200  190.8500 C.3   249  LYS249      0.0394
      8  CE       253.9950  203.4890  191.9660 C.3   249  LYS249      0.1133
      9  NZ       255.1600  202.8210  192.6100 N.3   249  LYS249     -0.1310
     10  N        248.9560  204.0620  191.6840 N.3   312  ASN312     -0.1230
     11  CA       249.3590  204.3740  193.0570 C.3   312  ASN312      0.1711
     12  C        250.6770  205.1390  193.1170 C.2   312  ASN312      0.2595
     13  O        250.8640  205.9990  193.9800 O.2   312  ASN312     -0.2718
     14  CB       249.4640  203.0990  193.8940 C.3   312  ASN312      0.0528
     15  CG       248.1270  202.4210  194.0950 C.3   312  ASN312      0.2182
     16  OD1      247.1040  202.8790  193.5860 O.2   312  ASN312     -0.2538
     17  ND2      248.1250  201.3240  194.8410 N.3   312  ASN312     -0.1297
     18  N        251.5870  204.8230  192.1980 N.am  313  LEU313     -0.1937
     19  CA       252.8560  205.5330  192.0950 C.3   313  LEU313      0.1779
     20  C        252.6270  207.0200  191.8560 C.2   313  LEU313      0.2329
     21  O        253.1160  207.8600  192.6110 O.2   313  LEU313     -0.2860
     22  CB       253.6980  204.9520  190.9570 C.2   313  LEU313     -0.0162
     23  CG       255.0040  205.6820  190.6260 C.3   313  LEU313      0.0052
     24  CD1      255.9800  205.6110  191.7940 C.3   313  LEU313      0.0004
     25  CD2      255.6300  205.1080  189.3610 C.3   313  LEU313      0.0004
     26  N        249.7820  208.7120  191.9540 N.3   315  GLN315     -0.1231
     27  CA       248.9060  209.2970  192.9660 C.3   315  GLN315      0.1698
     28  C        249.7390  209.7700  194.1590 C.2   315  GLN315      0.2592
     29  O        249.4640  210.8230  194.7340 O.2   315  GLN315     -0.2718
     30  CB       247.8380  208.2920  193.4140 C.3   315  GLN315      0.0381
     31  CG       247.0130  208.7210  194.6340 C.3   315  GLN315      0.0905
     32  CD       246.3550  210.0800  194.4670 C.2   315  GLN315      0.2608
     33  OE1      245.6880  210.3460  193.4640 O.2   315  GLN315     -0.2717
     34  NE2      246.5300  210.9490  195.4600 N.am  315  GLN315     -0.0878
     35  N        250.7600  208.9950  194.5180 N.am  316  ASN316     -0.1974
     36  CA       251.6690  209.3820  195.5920 C.3   316  ASN316      0.1688
     37  C        252.5620  210.5680  195.2220 C.2   316  ASN316      0.2292
     38  O        253.0460  211.2780  196.1010 O.2   316  ASN316     -0.2864
     39  CB       252.5300  208.1930  196.0290 C.3   316  ASN316      0.1181
     40  CG       251.7520  207.1790  196.8440 C.2   316  ASN316      0.2629
     41  OD1      250.6400  207.4490  197.2950 O.2   316  ASN316     -0.2716
     42  ND2      252.3350  206.0050  197.0410 N.am  316  ASN316     -0.0877
     43  N        250.4110  213.7900  195.7230 N.3   319  GLU319     -0.1245
     44  CA       250.3380  214.1890  197.1250 C.3   319  GLU319      0.1567
     45  C        251.3710  215.2700  197.4110 C.2   319  GLU319      0.2260
     46  O        251.0710  216.2720  198.0560 O.2   319  GLU319     -0.2867
     47  CB       250.5750  212.9850  198.0420 C.3   319  GLU319      0.0388
     48  CG       249.4970  211.9060  197.9530 C.3   319  GLU319      0.1160
     49  CD       248.3000  212.1810  198.8440 C.2   319  GLU319      0.3649
     50  OE1      248.4880  212.3090  200.0710 O.co2 319  GLU319     -0.2457
     51  OE2      247.1690  212.2500  198.3180 O.co2 319  GLU319     -0.2457
     52  N        244.0690  206.2280  192.8660 N.3   499  HIS499     -0.1226
     53  CA       244.6300  205.6480  194.0790 C.3   499  HIS499      0.1752
     54  C        245.9030  204.8880  193.7420 C.2   499  HIS499      0.2592
     55  O        246.1160  204.4970  192.5950 O.2   499  HIS499     -0.2718
     56  CB       243.6390  204.6810  194.7330 C.3   499  HIS499      0.0759
     57  CG       242.3000  205.2800  195.0240 C.ar  499  HIS499      0.0818
     58  ND1      241.1270  204.5690  194.9040 N.ar  499  HIS499     -0.2268
     59  CD2      241.9460  206.5240  195.4280 C.ar  499  HIS499      0.1154
     60  CE1      240.1080  205.3450  195.2250 C.ar  499  HIS499      0.1986
     61  NE2      240.5780  206.5360  195.5470 N.ar  499  HIS499     -0.2212
     62  N        246.7410  204.6720  194.7510 N.am  500  SER500     -0.2032
     63  CA       247.9150  203.8250  194.6020 C.3   500  SER500      0.1302
     64  C        247.4900  202.3610  194.6300 C.3   500  SER500      0.4338
     65  O        246.3470  202.0460  194.9690 O.2   500  SER500     -0.2538
     66  CB       248.9100  204.0940  195.7310 C.3   500  SER500      0.2036
     67  OG       249.1800  205.4800  195.8560 O.3   500  SER500     -0.2185
     68  N        248.4070  201.4690  194.2720 N.3   501  SER501     -0.1312
     69  CA       248.1440  200.0360  194.3310 C.3   501  SER501      0.1163
     70  C        249.4410  199.2580  194.5230 C.2   501  SER501      0.3205
     71  O        250.5090  199.6950  194.0910 O.2   501  SER501     -0.2633
     72  CB       247.4370  199.5660  193.0600 C.3   501  SER501      0.2175
     73  OG       247.0910  198.1940  193.1460 O.3   501  SER501     -0.2175
     74  N        249.3350  198.1040  195.1760 N.am  502  ASP502     -0.1909
     75  CA       250.4910  197.2460  195.4250 C.3   502  ASP502      0.1713
     76  C        250.9750  196.5680  194.1440 C.2   502  ASP502      0.2293
     77  O        252.1630  196.2750  194.0060 O.2   502  ASP502     -0.2864
     78  CB       250.1470  196.1750  196.4680 C.3   502  ASP502      0.1436
     79  CG       249.8380  196.7590  197.8380 C.2   502  ASP502      0.3671
     80  OD1      250.2600  197.9020  198.1170 O.co2 502  ASP502     -0.2456
     81  OD2      249.1740  196.0700  198.6430 O.co2 502  ASP502     -0.2456
@<TRIPOS>BOND
     1     4     3    2
     2     3     2    1
     3     1     2    1
     4     2     5    1
     5    25    23    1
     6     6    22    2
     7    23     7    1
     8    23    24    1
     9     7    22    1
    10     7     8    1
    11    22    19    1
    12    10    11    1
    13    20    19    1
    14    20    21    2
    15    26    27    1
    16     8     9    1
    17    19    18    1
    18    18    12   am
    19    55    54    2
    20    52    53    1
    21    27    30    1
    22    27    28    1
    23    11    12    1
    24    11    14    1
    25    72    73    1
    26    12    13    2
    27    30    31    1
    28    33    32    2
    29    16    64    1
    30    54    53    1
    31    54    62   am
    32    14    63    1
    33    77    76    2
    34    53    56    1
    35    71    70    2
    36    15    68    1
    37    15    64    1
    38    76    75    1
    39    28    35   am
    40    28    29    2
    41    68    17    1
    42    69    17    1
    43    32    31    1
    44    32    34   am
    45    35    36    1
    46    70    74   am
    47    63    62    1
    48    63    66    1
    49    64    17    1
    50    64    65    1
    51    56    57    1
    52    58    57   ar
    53    58    60   ar
    54    57    59   ar
    55    74    75    1
    56    37    36    1
    57    37    38    2
    58    60    61   ar
    59    75    78    1
    60    59    61   ar
    61    36    39    1
    62    43    44    1
    63    66    67    1
    64    39    40    1
    65    78    79    1
    66    40    42   am
    67    40    41    2
    68    44    45    1
    69    44    47    1
    70    45    46    2
    71    79    80   ar
    72    79    81   ar
    73    48    47    1
    74    48    49    1
    75    51    49   ar
    76    49    50   ar
