@<TRIPOS>MOLECULE
tmp/4camB03.pdb
 131 127 0 0 0
SMALL
GASTEIGER

@<TRIPOS>ATOM
      1  N         18.0830   12.2550   47.6980 N.3    38  MET38      -0.1230
      2  CA        17.9230   11.6250   49.0200 C.3    38  MET38       0.1702
      3  C         17.5390   12.6180   50.1440 C.2    38  MET38       0.2592
      4  O         16.6180   12.3560   50.9030 O.2    38  MET38      -0.2718
      5  CB        19.1870   10.8440   49.3770 C.3    38  MET38       0.0401
      6  CG        19.0640    9.9670   50.6140 C.3    38  MET38       0.0596
      7  SD        18.8760    8.2100   50.2290 S.3    38  MET38      -0.1393
      8  CE        20.4600    7.9040   49.4770 C.3    38  MET38       0.0692
      9  N         18.2170   13.7650   50.2220 N.am   39  LEU39      -0.1980
     10  CA        17.8940   14.7980   51.2310 C.3    39  LEU39       0.1596
     11  C         17.6600   16.1590   50.5530 C.2    39  LEU39       0.2287
     12  O         18.5910   16.9470   50.4290 O.2    39  LEU39      -0.2864
     13  CB        19.0370   14.9400   52.2430 C.3    39  LEU39       0.0297
     14  CG        19.7450   13.6940   52.7780 C.3    39  LEU39       0.0022
     15  CD1       21.0240   14.0590   53.5150 C.3    39  LEU39       0.0001
     16  CD2       18.8140   12.8970   53.6850 C.3    39  LEU39       0.0001
     17  N          7.1980    5.6900   53.7320 N.3   108  CYS108     -0.1235
     18  CA         6.8840    4.4700   54.4840 C.3   108  CYS108      0.1677
     19  C          5.8430    3.5750   53.8660 C.2   108  CYS108      0.2270
     20  O          4.6300    3.9010   53.8160 O.2   108  CYS108     -0.2867
     21  CB         6.5490    4.7630   55.9650 C.3   108  CYS108      0.0956
     22  SG         6.1920    3.2940   56.9230 S.3   108  CYS108     -0.0801
     23  N         20.3460    3.7240   64.4860 N.3   171  GLN171     -0.1245
     24  CA        19.2990    2.7840   64.9410 C.3   171  GLN171      0.1566
     25  C         19.7000    2.3510   66.3510 C.2   171  GLN171      0.2260
     26  O         20.9000    2.3200   66.6650 O.2   171  GLN171     -0.2867
     27  CB        19.1230    1.5420   64.0400 C.3   171  GLN171      0.0367
     28  CG        18.7280    1.8040   62.6020 C.3   171  GLN171      0.0905
     29  CD        18.5130    0.5330   61.7940 C.2   171  GLN171      0.2608
     30  OE1       18.2220   -0.5410   62.3340 O.2   171  GLN171     -0.2717
     31  NE2       18.6840    0.6450   60.4850 N.am  171  GLN171     -0.0878
     32  N         14.0870   -3.3390   63.9440 N.3   258  PRO258     -0.2116
     33  CA        14.5330   -2.1280   63.2930 C.3   258  PRO258      0.1372
     34  C         14.0170   -0.9140   64.0680 C.2   258  PRO258      0.2244
     35  O         12.7810   -0.6970   64.1870 O.2   258  PRO258     -0.2868
     36  CB        13.9280   -2.2560   61.8940 C.3   258  PRO258      0.0268
     37  CG        12.6310   -3.0190   62.1170 C.3   258  PRO258      0.0207
     38  CD        12.7780   -3.7940   63.4090 C.3   258  PRO258      0.0892
     39  N         14.7340    3.0090   64.3110 N.3   260  VAL260     -0.1245
     40  CA        15.3740    4.2480   63.8350 C.3   260  VAL260      0.1561
     41  C         15.4370    5.2950   64.9350 C.2   260  VAL260      0.2260
     42  O         14.4380    5.6180   65.5160 O.2   260  VAL260     -0.2867
     43  CB        14.6440    4.7740   62.5920 C.3   260  VAL260      0.0252
     44  CG1       15.1260    6.1560   62.1690 C.3   260  VAL260      0.0019
     45  CG2       14.8100    3.7670   61.4640 C.3   260  VAL260      0.0019
     46  N         15.9480   10.5520   63.8440 N.3   263  MET263     -0.1245
     47  CA        15.0300   11.4690   63.1960 C.3   263  MET263      0.1570
     48  C         14.4350   12.4840   64.1640 C.2   263  MET263      0.2261
     49  O         14.5170   12.3200   65.3940 O.2   263  MET263     -0.2867
     50  CB        13.9170   10.7060   62.4330 C.3   263  MET263      0.0387
     51  CG        14.4540    9.9330   61.2050 C.3   263  MET263      0.0595
     52  SD        13.1350    9.2270   60.1810 S.3   263  MET263     -0.1393
     53  CE        12.8680   10.5990   59.0370 C.3   263  MET263      0.0692
     54  N         11.9370    5.2230   67.2280 N.3   277  PHE277     -0.1227
     55  CA        10.7480    4.4170   66.9340 C.3   277  PHE277      0.1736
     56  C         11.1190    3.0890   66.2540 C.2   277  PHE277      0.2596
     57  O         12.2070    2.9270   65.6940 O.2   277  PHE277     -0.2718
     58  CB         9.7710    5.2470   66.0990 C.3   277  PHE277      0.0547
     59  CG        10.3320    5.6930   64.7510 C.ar  277  PHE277     -0.0202
     60  CD1       10.3580    4.8170   63.6670 C.ar  277  PHE277     -0.0042
     61  CD2       10.8210    6.9870   64.5670 C.ar  277  PHE277     -0.0042
     62  CE1       10.8390    5.2220   62.4160 C.ar  277  PHE277     -0.0003
     63  CE2       11.3470    7.3840   63.3210 C.ar  277  PHE277     -0.0003
     64  CZ        11.3260    6.5090   62.2370 C.ar  277  PHE277     -0.0000
     65  N         10.2220    2.1260   66.2990 N.am  278  SER278     -0.1938
     66  CA        10.5070    0.7870   65.8050 C.3   278  SER278      0.2055
     67  C          9.2120    0.2070   65.2830 C.2   278  SER278      0.2644
     68  O          8.1610    0.5650   65.7790 O.2   278  SER278     -0.2714
     69  CB        11.0940   -0.1370   66.9070 C.3   278  SER278      0.2130
     70  OG        10.2390   -0.3060   68.0570 O.3   278  SER278     -0.2179
     71  N          9.3430   -0.6150   64.2470 N.am  279  GLY279     -0.1939
     72  CA         8.2880   -1.4510   63.6920 C.3   279  GLY279      0.2014
     73  C          8.7860   -2.8880   63.5730 C.2   279  GLY279      0.2638
     74  O          9.2160   -3.5040   64.5650 O.2   279  GLY279     -0.2714
     75  N          8.7120   -3.4350   62.3630 N.am  280  TRP280     -0.1973
     76  CA         9.3710   -4.7020   62.0270 C.3   280  TRP280      0.1640
     77  C          9.9340   -4.6320   60.5820 C.2   280  TRP280      0.2290
     78  O          9.6200   -3.7230   59.8400 O.2   280  TRP280     -0.2864
     79  CB         8.4440   -5.9000   62.1630 C.3   280  TRP280      0.0576
     80  CG         7.0740   -5.7710   61.4890 C.ar  280  TRP280      0.0006
     81  CD1        6.7620   -5.9770   60.1480 C.ar  280  TRP280      0.0946
     82  CD2        5.8660   -5.3940   62.1220 C.ar  280  TRP280      0.0152
     83  NE1        5.4180   -5.7440   59.9360 N.ar  280  TRP280     -0.2442
     84  CE2        4.8400   -5.3990   61.1320 C.ar  280  TRP280      0.0810
     85  CE3        5.5300   -5.0690   63.4410 C.ar  280  TRP280      0.0012
     86  CZ2        3.5120   -5.0850   61.4300 C.ar  280  TRP280      0.0191
     87  CZ3        4.2060   -4.7570   63.7400 C.ar  280  TRP280      0.0001
     88  CH2        3.2060   -4.7850   62.7360 C.ar  280  TRP280      0.0015
     89  N         10.7810   -5.3040   56.6480 N.3   282  MET282     -0.1245
     90  CA        10.4230   -5.9220   55.3660 C.3   282  MET282      0.1570
     91  C         11.6910   -6.6430   54.9400 C.2   282  MET282      0.2261
     92  O         12.7980   -6.0720   55.0490 O.2   282  MET282     -0.2867
     93  CB        10.0400   -4.8560   54.3350 C.3   282  MET282      0.0387
     94  CG         9.6930   -5.4110   52.9390 C.3   282  MET282      0.0595
     95  SD         8.8170   -4.2350   51.8880 S.3   282  MET282     -0.1393
     96  CE        10.1730   -3.1260   51.3990 C.3   282  MET282      0.0692
     97  N         14.9220   -5.1310   53.1510 N.3   285  GLU285     -0.1245
     98  CA        15.8270   -4.2360   53.8780 C.3   285  GLU285      0.1567
     99  C         17.1400   -4.9470   54.2660 C.2   285  GLU285      0.2260
    100  O         18.2110   -4.3880   54.0380 O.2   285  GLU285     -0.2867
    101  CB        15.2160   -3.6340   55.1370 C.3   285  GLU285      0.0388
    102  CG        13.9930   -2.7730   54.8790 C.3   285  GLU285      0.1160
    103  CD        13.4120   -2.2700   56.2010 C.2   285  GLU285      0.3649
    104  OE1       14.0470   -1.3840   56.7890 O.co2 285  GLU285     -0.2457
    105  OE2       12.3430   -2.7280   56.6270 O.co2 285  GLU285     -0.2457
    106  N         10.8950    5.5580   46.9860 N.3   371  TRP371     -0.1241
    107  CA        11.1110    4.7910   48.2020 C.3   371  TRP371      0.1605
    108  C         10.1530    3.6250   48.4310 C.2   371  TRP371      0.2264
    109  O         10.5260    2.6110   49.0230 O.2   371  TRP371     -0.2867
    110  CB        11.1120    5.7490   49.4090 C.3   371  TRP371      0.0550
    111  CG        12.4090    6.5000   49.5310 C.ar  371  TRP371      0.0003
    112  CD1       12.9510    7.3910   48.6250 C.ar  371  TRP371      0.0946
    113  CD2       13.3410    6.4020   50.6080 C.ar  371  TRP371      0.0152
    114  NE1       14.1590    7.8550   49.1030 N.ar  371  TRP371     -0.2442
    115  CE2       14.4100    7.2730   50.3170 C.ar  371  TRP371      0.0810
    116  CE3       13.3520    5.6960   51.8230 C.ar  371  TRP371      0.0012
    117  CZ2       15.5030    7.4250   51.1820 C.ar  371  TRP371      0.0191
    118  CZ3       14.4460    5.8660   52.6970 C.ar  371  TRP371      0.0001
    119  CH2       15.4940    6.7100   52.3570 C.ar  371  TRP371      0.0015
    120  N         14.6420   14.6040   58.7410 N.3   399  TYR399     -0.1241
    121  CA        16.0590   14.3720   59.0030 C.3   399  TYR399      0.1605
    122  C         16.6590   15.4800   59.8300 C.2   399  TYR399      0.2264
    123  O         16.1700   16.5990   59.8360 O.2   399  TYR399     -0.2867
    124  CB        16.8530   14.2280   57.7010 C.3   399  TYR399      0.0534
    125  CG        16.4430   13.0370   56.9190 C.ar  399  TYR399     -0.0201
    126  CD1       16.6840   11.7450   57.3910 C.ar  399  TYR399     -0.0009
    127  CD2       15.7380   13.1960   55.7340 C.ar  399  TYR399     -0.0009
    128  CE1       16.2830   10.6410   56.6680 C.ar  399  TYR399      0.0417
    129  CE2       15.3360   12.1020   54.9990 C.ar  399  TYR399      0.0417
    130  CZ        15.6180   10.8350   55.4700 C.ar  399  TYR399      0.1957
    131  OH        15.2130    9.7770   54.7150 O.3   399  TYR399     -0.2866
@<TRIPOS>BOND
     1   106   107    1
     2     1     2    1
     3   107   108    1
     4   107   110    1
     5   108   109    2
     6   112   114   ar
     7   112   111   ar
     8     2     5    1
     9     2     3    1
    10   114   115   ar
    11     5     6    1
    12   110   111    1
    13     8     7    1
    14   111   113   ar
    15     3     9   am
    16     3     4    2
    17     9    10    1
    18     7     6    1
    19   115   113   ar
    20   115   117   ar
    21    12    11    2
    22    11    10    1
    23   113   116   ar
    24   117   119   ar
    25    10    13    1
    26    96    95    1
    27   116   118   ar
    28    95    94    1
    29    13    14    1
    30   119   118   ar
    31    14    15    1
    32    14    16    1
    33    94    93    1
    34    97    98    1
    35    17    18    1
    36    20    19    2
    37    19    18    1
    38    98    99    1
    39    98   101    1
    40   100    99    2
    41    93    90    1
    42    18    21    1
    43   131   130    1
    44   102   101    1
    45   102   103    1
    46    91    92    2
    47    91    90    1
    48   129   130   ar
    49   129   127   ar
    50    90    89    1
    51   130   128   ar
    52   127   125   ar
    53    21    22    1
    54   103   105   ar
    55   103   104   ar
    56   128   126   ar
    57   125   126   ar
    58   125   124    1
    59   124   121    1
    60   120   121    1
    61   121   122    1
    62    53    52    1
    63   122   123    2
    64    78    77    2
    65    83    81   ar
    66    83    84   ar
    67    81    80   ar
    68    52    51    1
    69    31    29   am
    70    77    76    1
    71    84    86   ar
    72    84    82   ar
    73    51    50    1
    74    86    88   ar
    75    45    43    1
    76    80    82   ar
    77    80    79    1
    78    29    30    2
    79    29    28    1
    80    36    37    1
    81    36    33    1
    82    76    79    1
    83    76    75    1
    84    37    38    1
    85    82    85   ar
    86    44    43    1
    87    64    62   ar
    88    64    63   ar
    89    75    73   am
    90    62    60   ar
    91    50    47    1
    92    43    40    1
    93    28    27    1
    94    88    87   ar
    95    47    46    1
    96    47    48    1
    97    33    32    1
    98    33    34    1
    99    63    61   ar
   100    38    32    1
   101    85    87   ar
   102    73    72    1
   103    73    74    2
   104    60    59   ar
   105    72    71    1
   106    40    39    1
   107    40    41    1
   108    27    24    1
   109    34    35    2
   110    48    49    2
   111    71    67   am
   112    23    24    1
   113    61    59   ar
   114    59    58    1
   115    41    42    2
   116    24    25    1
   117    67    68    2
   118    67    66    1
   119    57    56    2
   120    66    65    1
   121    66    69    1
   122    58    55    1
   123    56    65   am
   124    56    55    1
   125    25    26    2
   126    69    70    1
   127    55    54    1
