@<TRIPOS>MOLECULE
tmp/4canA02.pdb
 168 165 0 0 0
SMALL
GASTEIGER

@<TRIPOS>ATOM
      1  N          2.8250    8.8350   34.9160 N.3    38  MET38      -0.1230
      2  CA         3.1930    8.4030   33.5580 C.3    38  MET38       0.1702
      3  C          3.2410    9.5540   32.5170 C.2    38  MET38       0.2592
      4  O          4.2360    9.6760   31.7770 O.2    38  MET38      -0.2718
      5  CB         2.2280    7.3080   33.0890 C.3    38  MET38       0.0401
      6  CG         2.6750    6.5180   31.8650 C.3    38  MET38       0.0596
      7  SD         3.7510    5.1270   32.2860 S.3    38  MET38      -0.1393
      8  CE         2.5390    3.9090   32.7920 C.3    38  MET38       0.0692
      9  N          2.1740   10.3740   32.4810 N.am   39  LEU39      -0.1980
     10  CA         2.0350   11.5260   31.5600 C.3    39  LEU39       0.1596
     11  C          1.6320   12.8170   32.3130 C.2    39  LEU39       0.2287
     12  O          0.4580   12.9920   32.6420 O.2    39  LEU39      -0.2864
     13  CB         0.9720   11.2210   30.4900 C.3    39  LEU39       0.0297
     14  CG         0.6330    9.7510   30.1790 C.3    39  LEU39       0.0022
     15  CD1       -0.8310    9.5720   29.8180 C.3    39  LEU39       0.0001
     16  CD2        1.5390    9.1440   29.1140 C.3    39  LEU39       0.0001
     17  N         15.4470    7.5590   28.9420 N.3   106  CYS106     -0.1235
     18  CA        16.1780    6.5630   28.1580 C.3   106  CYS106      0.1677
     19  C         17.5270    6.2360   28.8250 C.2   106  CYS106      0.2270
     20  O         18.3930    7.0920   28.8820 O.2   106  CYS106     -0.2867
     21  CB        16.5350    7.0610   26.7340 C.3   106  CYS106      0.0956
     22  SG        17.2710    5.7990   25.6510 S.3   106  CYS106     -0.0801
     23  N          1.8340    1.5540   17.6830 N.3   168  SER168     -0.1202
     24  CA         2.6090    2.0620   18.7970 C.3   168  SER168      0.2020
     25  C          4.1070    1.7330   18.6420 C.2   168  SER168      0.2618
     26  O          4.9450    2.5590   18.9900 O.2   168  SER168     -0.2717
     27  CB         2.0420    1.5710   20.1280 C.3   168  SER168      0.2103
     28  OG         2.0810    0.1570   20.2020 O.3   168  SER168     -0.2182
     29  N          4.4280    0.5440   18.1170 N.am  169  GLN169     -0.1979
     30  CA         5.8120    0.1870   17.6710 C.3   169  GLN169      0.1601
     31  C          5.5790   -0.3990   16.2870 C.2   169  GLN169      0.2287
     32  O          4.4650   -0.8760   15.9910 O.2   169  GLN169     -0.2864
     33  CB         6.4450   -0.8740   18.5650 C.3   169  GLN169      0.0394
     34  CG         6.7950   -0.3700   19.9600 C.3   169  GLN169      0.0908
     35  CD         7.3880   -1.4580   20.8270 C.2   169  GLN169      0.2608
     36  OE1        8.0770   -2.3720   20.3440 O.2   169  GLN169     -0.2717
     37  NE2        7.1050   -1.3930   22.0970 N.am  169  GLN169     -0.0878
     38  N          4.7730   -5.4260   16.4970 N.3   172  ARG172     -0.1245
     39  CA         4.1030   -5.7970   17.7430 C.3   172  ARG172      0.1563
     40  C          3.1110   -6.9460   17.4900 C.2   172  ARG172      0.2260
     41  O          2.6760   -7.1360   16.3570 O.2   172  ARG172     -0.2867
     42  CB         3.4160   -4.5830   18.3910 C.3   172  ARG172      0.0307
     43  CG         4.1830   -4.0030   19.5680 C.3   172  ARG172      0.0489
     44  CD         3.3590   -3.0460   20.4140 C.3   172  ARG172      0.2205
     45  NE         3.5470   -3.2800   21.8440 N.pl3 172  ARG172     -0.0865
     46  CZ         2.9290   -2.5790   22.8050 C.cat 172  ARG172      0.5346
     47  NH1        2.0840   -1.6100   22.4810 N.pl3 172  ARG172      0.1354
     48  NH2        3.1350   -2.8340   24.0990 N.pl3 172  ARG172      0.1354
     49  N         13.0320   -3.2170   18.6970 N.3   256  PRO256     -0.2116
     50  CA        12.1710   -2.3140   19.3850 C.3   256  PRO256      0.1372
     51  C         12.0600   -0.9930   18.6220 C.2   256  PRO256      0.2244
     52  O         13.0370   -0.2740   18.4920 O.2   256  PRO256     -0.2868
     53  CB        12.8440   -2.1680   20.7610 C.3   256  PRO256      0.0268
     54  CG        14.3270   -2.3550   20.5030 C.3   256  PRO256      0.0207
     55  CD        14.4230   -3.1880   19.2290 C.3   256  PRO256      0.0892
     56  N          9.7550    2.3470   18.2740 N.3   258  VAL258     -0.1245
     57  CA         8.5860    3.0960   18.7900 C.3   258  VAL258      0.1561
     58  C          8.1250    4.0320   17.7270 C.2   258  VAL258      0.2260
     59  O          8.9100    4.7770   17.1550 O.2   258  VAL258     -0.2867
     60  CB         8.9250    3.8390   20.1090 C.3   258  VAL258      0.0252
     61  CG1        7.8820    4.9160   20.4400 C.3   258  VAL258      0.0019
     62  CG2        9.0280    2.8270   21.2420 C.3   258  VAL258      0.0019
     63  N          4.8280    5.8860   17.7510 N.3   260  ASN260     -0.1225
     64  CA         3.6590    6.7650   18.0210 C.3   260  ASN260      0.1785
     65  C          4.0220    8.0840   18.6640 C.2   260  ASN260      0.2597
     66  O          3.1340    8.8320   19.0750 O.2   260  ASN260     -0.2718
     67  CB         2.5890    6.0850   18.8780 C.3   260  ASN260      0.1169
     68  CG         3.1090    5.6330   20.2170 C.2   260  ASN260      0.2627
     69  OD1        2.3550    5.0920   20.9820 O.2   260  ASN260     -0.2716
     70  ND2        4.4430    5.7830   20.4870 N.am  260  ASN260     -0.0877
     71  N          5.3130    8.3950   18.6970 N.am  261  MET261     -0.1979
     72  CA         5.7400    9.6360   19.3290 C.3   261  MET261      0.1605
     73  C          5.8860   10.8110   18.3810 C.2   261  MET261      0.2287
     74  O          5.8910   10.6470   17.1670 O.2   261  MET261     -0.2864
     75  CB         7.0410    9.4190   20.1240 C.3   261  MET261      0.0413
     76  CG         6.8380    8.4820   21.3090 C.3   261  MET261      0.0598
     77  SD         8.1790    8.4470   22.5330 S.3   261  MET261     -0.1393
     78  CE         7.7650    9.8220   23.6000 C.3   261  MET261      0.0692
     79  N         11.3500    5.3500   15.4610 N.3   275  PHE275     -0.1227
     80  CA        12.7990    5.1800   15.7640 C.3   275  PHE275      0.1736
     81  C         13.0310    3.8530   16.4820 C.2   275  PHE275      0.2596
     82  O         12.1250    3.2760   17.0990 O.2   275  PHE275     -0.2718
     83  CB        13.2920    6.3560   16.5850 C.3   275  PHE275      0.0547
     84  CG        12.5410    6.5790   17.8790 C.ar  275  PHE275     -0.0202
     85  CD1       12.8700    5.8720   19.0310 C.ar  275  PHE275     -0.0042
     86  CD2       11.4980    7.4960   17.9460 C.ar  275  PHE275     -0.0042
     87  CE1       12.2230    6.1100   20.2540 C.ar  275  PHE275     -0.0003
     88  CE2       10.8480    7.7230   19.1460 C.ar  275  PHE275     -0.0003
     89  CZ        11.1880    7.0320   20.2850 C.ar  275  PHE275     -0.0000
     90  N         14.2480    3.3350   16.4100 N.am  276  SER276     -0.1938
     91  CA        14.4850    2.0230   16.9270 C.3   276  SER276      0.2055
     92  C         15.9160    2.0150   17.4110 C.2   276  SER276      0.2644
     93  O         16.6820    2.7950   16.9000 O.2   276  SER276     -0.2714
     94  CB        14.3050    0.9400   15.8370 C.3   276  SER276      0.2130
     95  OG        15.1140    1.0740   14.6650 O.3   276  SER276     -0.2179
     96  N         16.2130    1.1170   18.3620 N.am  277  GLY277     -0.1939
     97  CA        17.5780    0.8230   18.8350 C.3   277  GLY277      0.2014
     98  C         17.6330   -0.6740   19.0040 C.2   277  GLY277      0.2639
     99  O         17.4010   -1.4410   18.0700 O.2   277  GLY277     -0.2714
    100  N         17.9140   -1.1120   20.2140 N.am  278  TRP278     -0.1959
    101  CA        17.7840   -2.5310   20.5190 C.3   278  TRP278      0.1771
    102  C         17.3500   -2.7150   21.9760 C.2   278  TRP278      0.2620
    103  O         17.4670   -1.8060   22.7820 O.2   278  TRP278     -0.2715
    104  CB        19.1340   -3.2010   20.3110 C.3   278  TRP278      0.0590
    105  CG        20.2470   -2.5520   21.0620 C.ar  278  TRP278      0.0006
    106  CD1       20.5500   -2.6900   22.4030 C.ar  278  TRP278      0.0946
    107  CD2       21.2360   -1.6770   20.5160 C.ar  278  TRP278      0.0152
    108  NE1       21.6720   -1.9380   22.7140 N.ar  278  TRP278     -0.2442
    109  CE2       22.1100   -1.3120   21.5750 C.ar  278  TRP278      0.0810
    110  CE3       21.4710   -1.1640   19.2250 C.ar  278  TRP278      0.0012
    111  CZ2       23.2110   -0.4540   21.3780 C.ar  278  TRP278      0.0191
    112  CZ3       22.5470   -0.3110   19.0270 C.ar  278  TRP278      0.0001
    113  CH2       23.4220    0.0220   20.1020 C.ar  278  TRP278      0.0015
    114  N         16.9210   -3.9210   22.3140 N.am  279  TYR279     -0.1960
    115  CA        16.3160   -4.1940   23.5950 C.3   279  TYR279      0.1771
    116  C         17.2920   -4.2940   24.7640 C.2   279  TYR279      0.2619
    117  O         18.4230   -4.7820   24.6270 O.2   279  TYR279     -0.2715
    118  CB        15.5410   -5.4930   23.4920 C.3   279  TYR279      0.0574
    119  CG        14.1000   -5.3620   23.0920 C.ar  279  TYR279     -0.0198
    120  CD1       13.1990   -4.6550   23.8940 C.ar  279  TYR279     -0.0009
    121  CD2       13.6120   -5.9950   21.9390 C.ar  279  TYR279     -0.0009
    122  CE1       11.8350   -4.5710   23.5570 C.ar  279  TYR279      0.0417
    123  CE2       12.2640   -5.9160   21.5970 C.ar  279  TYR279      0.0417
    124  CZ        11.3830   -5.1950   22.4030 C.ar  279  TYR279      0.1957
    125  OH        10.0210   -5.1250   22.0600 O.3   279  TYR279     -0.2866
    126  N         16.8420   -3.8070   25.9200 N.am  280  MET280     -0.1977
    127  CA        17.4210   -4.2270   27.1980 C.3   280  MET280      0.1605
    128  C         16.5810   -5.4390   27.5510 C.2   280  MET280      0.2287
    129  O         15.3490   -5.3780   27.3990 O.2   280  MET280     -0.2864
    130  CB        17.3190   -3.0900   28.2110 C.3   280  MET280      0.0413
    131  CG        17.8700   -3.4420   29.6070 C.3   280  MET280      0.0598
    132  SD        18.2540   -2.0000   30.6380 S.3   280  MET280     -0.1393
    133  CE        16.5690   -1.5930   31.1670 C.3   280  MET280      0.0692
    134  N         13.0030   -5.4410   29.3420 N.3   283  GLU283     -0.1245
    135  CA        11.8510   -4.9380   28.6290 C.3   283  GLU283      0.1567
    136  C         10.9570   -6.0940   28.1720 C.2   283  GLU283      0.2260
    137  O          9.7620   -6.0480   28.3600 O.2   283  GLU283     -0.2867
    138  CB        12.2640   -4.1120   27.4330 C.3   283  GLU283      0.0388
    139  CG        12.7380   -2.7220   27.7730 C.3   283  GLU283      0.1160
    140  CD        13.2890   -2.0290   26.5370 C.2   283  GLU283      0.3649
    141  OE1       14.4360   -2.3120   26.0830 O.co2 283  GLU283     -0.2457
    142  OE2       12.5730   -1.1870   25.9890 O.co2 283  GLU283     -0.2457
    143  N         12.0160    5.7720   35.6380 N.3   369  TRP369     -0.1241
    144  CA        12.2000    5.0080   34.4200 C.3   369  TRP369      0.1605
    145  C         13.5900    4.3900   34.2280 C.2   369  TRP369      0.2264
    146  O         13.7000    3.3120   33.6730 O.2   369  TRP369     -0.2867
    147  CB        11.8970    5.8830   33.2240 C.3   369  TRP369      0.0550
    148  CG        10.3470    5.9810   33.0820 C.ar  369  TRP369      0.0003
    149  CD1        9.4790    6.5420   33.9660 C.ar  369  TRP369      0.0946
    150  CD2        9.5740    5.4860   31.9850 C.ar  369  TRP369      0.0152
    151  NE1        8.1710    6.4240   33.4760 N.ar  369  TRP369     -0.2442
    152  CE2        8.2180    5.7900   32.2540 C.ar  369  TRP369      0.0810
    153  CE3        9.8960    4.8210   30.7980 C.ar  369  TRP369      0.0012
    154  CZ2        7.1970    5.4390   31.3770 C.ar  369  TRP369      0.0191
    155  CZ3        8.8890    4.4810   29.9250 C.ar  369  TRP369      0.0001
    156  CH2        7.5510    4.7950   30.2170 C.ar  369  TRP369      0.0015
    157  N          4.8240   12.5780   23.8480 N.3   397  TYR397     -0.1241
    158  CA         3.6760   11.7480   23.5730 C.3   397  TYR397      0.1605
    159  C          2.6300   12.5310   22.8050 C.2   397  TYR397      0.2264
    160  O          2.5810   13.7570   22.8270 O.2   397  TYR397     -0.2867
    161  CB         3.0220   11.2440   24.8440 C.3   397  TYR397      0.0534
    162  CG         3.8660   10.3420   25.6720 C.ar  397  TYR397     -0.0201
    163  CD1        4.1680    9.0360   25.2590 C.ar  397  TYR397     -0.0009
    164  CD2        4.3510   10.7820   26.8920 C.ar  397  TYR397     -0.0009
    165  CE1        4.9370    8.2010   26.0590 C.ar  397  TYR397      0.0417
    166  CE2        5.1140    9.9610   27.6900 C.ar  397  TYR397      0.0417
    167  CZ         5.3970    8.6820   27.2730 C.ar  397  TYR397      0.1957
    168  OH         6.1450    7.9150   28.1130 O.3   397  TYR397     -0.2866
@<TRIPOS>BOND
     1    95    94    1
     2    79    80    1
     3    80    81    1
     4    80    83    1
     5    94    91    1
     6    32    31    2
     7    31    30    1
     8    41    40    2
     9    90    81   am
    10    90    91    1
    11    81    82    2
    12    38    39    1
    13    83    84    1
    14    93    92    2
    15    91    92    1
    16    59    58    2
    17    74    73    2
    18    92    96   am
    19    40    39    1
    20    30    29    1
    21    30    33    1
    22    23    24    1
    23    58    57    1
    24    39    42    1
    25    63    64    1
    26    84    86   ar
    27    84    85   ar
    28    86    88   ar
    29    64    65    1
    30    64    67    1
    31    99    98    2
    32    29    25   am
    33    56    57    1
    34    96    97    1
    35    73    72    1
    36    42    43    1
    37    52    51    2
    38    33    34    1
    39    51    50    1
    40    25    24    1
    41    25    26    2
    42    65    71   am
    43    65    66    2
    44    71    72    1
    45    49    55    1
    46    49    50    1
    47    57    60    1
    48    24    27    1
    49    97    98    1
    50    67    68    1
    51    98   100   am
    52   112   110   ar
    53   112   113   ar
    54    85    87   ar
    55    88    89   ar
    56   110   107   ar
    57    55    54    1
    58    72    75    1
    59    50    53    1
    60    43    44    1
    61    34    35    1
    62   113   111   ar
    63    60    61    1
    64    60    62    1
    65    75    76    1
    66    27    28    1
    67   100   101    1
    68    68    70   am
    69    68    69    2
    70    87    89   ar
    71   104   101    1
    72   104   105    1
    73    36    35    2
    74    44    45    1
    75    54    53    1
    76   107   105   ar
    77   107   109   ar
    78   101   102    1
    79    35    37   am
    80   105   106   ar
    81    76    77    1
    82   111   109   ar
    83   109   108   ar
    84   123   121   ar
    85   123   124   ar
    86    45    46    2
    87   121   119   ar
    88   102   114   am
    89   102   103    2
    90   125   124    1
    91   114   115    1
    92   106   108   ar
    93   124   122   ar
    94    47    46    1
    95    77    78    1
    96    46    48    1
    97   159   160    2
    98   159   158    1
    99   119   118    1
   100   119   120   ar
   101   118   115    1
   102   122   120   ar
   103   158   157    1
   104   158   161    1
   105   115   116    1
   106   117   116    2
   107   116   126   am
   108   161   162    1
   109   163   162   ar
   110   163   165   ar
   111    22    21    1
   112   162   164   ar
   113   126   127    1
   114   142   140   ar
   115   165   167   ar
   116   141   140   ar
   117   140   139    1
   118    21    18    1
   119   164   166   ar
   120   127   128    1
   121   127   130    1
   122   167   166   ar
   123   167   168    1
   124   129   128    2
   125   138   139    1
   126   138   135    1
   127    18    19    1
   128    18    17    1
   129   136   137    2
   130   136   135    1
   131   130   131    1
   132   135   134    1
   133    19    20    2
   134    16    14    1
   135   131   132    1
   136    15    14    1
   137   155   156   ar
   138   155   153   ar
   139    14    13    1
   140   156   154   ar
   141    13    10    1
   142   132   133    1
   143   153   150   ar
   144   154   152   ar
   145    10    11    1
   146    10     9    1
   147     4     3    2
   148     6     7    1
   149     6     5    1
   150   150   152   ar
   151   150   148   ar
   152   152   151   ar
   153     7     8    1
   154    11    12    2
   155     9     3   am
   156     3     2    1
   157   148   147    1
   158   148   149   ar
   159     5     2    1
   160   147   144    1
   161   151   149   ar
   162     2     1    1
   163   146   145    2
   164   145   144    1
   165   144   143    1
