@<TRIPOS>MOLECULE
tmp/4caoB03.pdb
 157 155 0 0 0
SMALL
GASTEIGER

@<TRIPOS>ATOM
      1  N         18.2470   12.4610   47.7180 N.3    38  MET38      -0.1230
      2  CA        17.9830   11.8010   49.0390 C.3    38  MET38       0.1702
      3  C         17.5480   12.7970   50.1880 C.2    38  MET38       0.2592
      4  O         16.5830   12.5430   50.9090 O.2    38  MET38      -0.2718
      5  CB        19.1760   10.9090   49.4320 C.3    38  MET38       0.0401
      6  CG        18.8290    9.8830   50.5180 C.3    38  MET38       0.0596
      7  SD        19.3390    8.1750   50.1340 S.3    38  MET38      -0.1393
      8  CE        20.9920    8.4740   49.5950 C.3    38  MET38       0.0692
      9  N         18.2240   13.9410   50.2880 N.am   39  LEU39      -0.1980
     10  CA        17.8150   15.0740   51.1750 C.3    39  LEU39       0.1596
     11  C         17.7920   16.4280   50.3940 C.2    39  LEU39       0.2287
     12  O         18.8040   17.1390   50.3590 O.2    39  LEU39      -0.2864
     13  CB        18.7480   15.1800   52.3990 C.3    39  LEU39       0.0297
     14  CG        20.2140   14.6780   52.3760 C.3    39  LEU39       0.0022
     15  CD1       21.2450   15.7920   52.5830 C.3    39  LEU39       0.0001
     16  CD2       20.4110   13.5650   53.3990 C.3    39  LEU39       0.0001
     17  N          7.2270    5.5430   53.7560 N.3   108  CYS108     -0.1235
     18  CA         6.9880    4.3060   54.5660 C.3   108  CYS108      0.1677
     19  C          5.9100    3.4340   54.0160 C.2   108  CYS108      0.2270
     20  O          4.6820    3.7930   53.9640 O.2   108  CYS108     -0.2867
     21  CB         6.6410    4.5880   56.0580 C.3   108  CYS108      0.0956
     22  SG         6.3420    3.1900   57.1590 S.3   108  CYS108     -0.0801
     23  N         22.4000    5.7790   64.9730 N.3   170  SER170     -0.1202
     24  CA        21.3670    6.0110   63.9280 C.3   170  SER170      0.2020
     25  C         20.2110    5.0020   64.0780 C.2   170  SER170      0.2618
     26  O         19.0660    5.3060   63.7590 O.2   170  SER170     -0.2717
     27  CB        22.0090    6.0260   62.5250 C.3   170  SER170      0.2103
     28  OG        22.5480    4.7800   62.2400 O.3   170  SER170     -0.2182
     29  N         20.4940    3.8280   64.6450 N.am  171  GLN171     -0.1979
     30  CA        19.4360    2.8670   65.0670 C.3   171  GLN171      0.1601
     31  C         19.8590    2.3620   66.4790 C.2   171  GLN171      0.2287
     32  O         21.0620    2.3170   66.8220 O.2   171  GLN171     -0.2864
     33  CB        19.2950    1.6660   64.1250 C.3   171  GLN171      0.0394
     34  CG        18.8740    1.9680   62.7070 C.3   171  GLN171      0.0908
     35  CD        18.7810    0.7430   61.7880 C.2   171  GLN171      0.2608
     36  OE1       18.5330   -0.3950   62.2210 O.2   171  GLN171     -0.2717
     37  NE2       18.9410    0.9900   60.4830 N.am  171  GLN171     -0.0878
     38  N         14.1470   -3.3880   64.1450 N.3   258  PRO258     -0.2116
     39  CA        14.5990   -2.2170   63.4290 C.3   258  PRO258      0.1372
     40  C         14.1040   -0.9870   64.1550 C.2   258  PRO258      0.2244
     41  O         12.8810   -0.7850   64.2850 O.2   258  PRO258     -0.2868
     42  CB        13.9210   -2.3450   62.0700 C.3   258  PRO258      0.0268
     43  CG        12.6450   -3.0630   62.3160 C.3   258  PRO258      0.0207
     44  CD        12.9170   -3.9450   63.5310 C.3   258  PRO258      0.0892
     45  N         14.7700    3.1110   64.4640 N.3   260  VAL260     -0.1245
     46  CA        15.4610    4.3230   63.9720 C.3   260  VAL260      0.1561
     47  C         15.5080    5.3860   65.0600 C.2   260  VAL260      0.2260
     48  O         14.4970    5.7320   65.6200 O.2   260  VAL260     -0.2867
     49  CB        14.8190    4.8290   62.6830 C.3   260  VAL260      0.0252
     50  CG1       15.4340    6.1580   62.2700 C.3   260  VAL260      0.0019
     51  CG2       14.9990    3.7890   61.5490 C.3   260  VAL260      0.0019
     52  N         17.5590    8.4820   64.9980 N.3   262  ASN262     -0.1225
     53  CA        18.1640    9.7670   64.6830 C.3   262  ASN262      0.1785
     54  C         17.2820   10.7840   63.9650 C.2   262  ASN262      0.2597
     55  O         17.7840   11.8130   63.5050 O.2   262  ASN262     -0.2718
     56  CB        19.4650    9.5880   63.8770 C.3   262  ASN262      0.1169
     57  CG        19.2610    8.8760   62.5300 C.2   262  ASN262      0.2627
     58  OD1       18.1600    8.4520   62.1700 O.2   262  ASN262     -0.2716
     59  ND2       20.3800    8.6330   61.8350 N.am  262  ASN262     -0.0877
     60  N         15.9740   10.5490   63.9490 N.am  263  MET263     -0.1979
     61  CA        15.0760   11.4780   63.3340 C.3   263  MET263      0.1605
     62  C         14.4540   12.4260   64.3490 C.2   263  MET263      0.2287
     63  O         14.5080   12.2100   65.5720 O.2   263  MET263     -0.2864
     64  CB        14.0230   10.7390   62.4740 C.3   263  MET263      0.0413
     65  CG        14.6670    9.9010   61.3720 C.3   263  MET263      0.0598
     66  SD        13.4760    9.2920   60.1910 S.3   263  MET263     -0.1393
     67  CE        13.2650   10.7360   59.0900 C.3   263  MET263      0.0692
     68  N         12.0150    5.1810   67.3090 N.3   277  PHE277     -0.1227
     69  CA        10.8030    4.4000   67.0230 C.3   277  PHE277      0.1736
     70  C         11.2020    3.0680   66.3510 C.2   277  PHE277      0.2596
     71  O         12.2930    2.8780   65.8380 O.2   277  PHE277     -0.2718
     72  CB         9.8110    5.2030   66.1690 C.3   277  PHE277      0.0547
     73  CG        10.4030    5.7530   64.8910 C.ar  277  PHE277     -0.0202
     74  CD1       11.0700    6.9880   64.8760 C.ar  277  PHE277     -0.0042
     75  CD2       10.3500    5.0210   63.7050 C.ar  277  PHE277     -0.0042
     76  CE1       11.6380    7.4840   63.7010 C.ar  277  PHE277     -0.0003
     77  CE2       10.8910    5.5270   62.5420 C.ar  277  PHE277     -0.0003
     78  CZ        11.5520    6.7500   62.5360 C.ar  277  PHE277     -0.0000
     79  N         10.3040    2.1160   66.3920 N.am  278  SER278     -0.1938
     80  CA        10.6080    0.7870   65.9380 C.3   278  SER278      0.2055
     81  C          9.3540    0.1460   65.3980 C.2   278  SER278      0.2644
     82  O          8.2490    0.4650   65.8250 O.2   278  SER278     -0.2714
     83  CB        11.2490   -0.0840   67.0560 C.3   278  SER278      0.2130
     84  OG        10.4030   -0.3340   68.1530 O.3   278  SER278     -0.2179
     85  N          9.5580   -0.6860   64.3910 N.am  279  GLY279     -0.1939
     86  CA         8.5320   -1.5390   63.8920 C.3   279  GLY279      0.2014
     87  C          9.0200   -2.9620   63.7670 C.2   279  GLY279      0.2639
     88  O          9.4400   -3.5640   64.7660 O.2   279  GLY279     -0.2714
     89  N          8.8780   -3.5210   62.5670 N.am  280  TRP280     -0.1959
     90  CA         9.5470   -4.7800   62.1600 C.3   280  TRP280      0.1771
     91  C         10.0360   -4.7460   60.7340 C.2   280  TRP280      0.2620
     92  O          9.5540   -3.9520   59.9170 O.2   280  TRP280     -0.2715
     93  CB         8.6370   -5.9930   62.3120 C.3   280  TRP280      0.0590
     94  CG         7.3120   -5.8740   61.6800 C.ar  280  TRP280      0.0006
     95  CD1        6.9800   -6.0970   60.3310 C.ar  280  TRP280      0.0946
     96  CD2        6.0790   -5.4490   62.3080 C.ar  280  TRP280      0.0152
     97  NE1        5.6580   -5.8590   60.1280 N.ar  280  TRP280     -0.2442
     98  CE2        5.0620   -5.4770   61.2830 C.ar  280  TRP280      0.0810
     99  CE3        5.7150   -5.0810   63.6020 C.ar  280  TRP280      0.0012
    100  CZ2        3.7190   -5.1490   61.5630 C.ar  280  TRP280      0.0191
    101  CZ3        4.3700   -4.7420   63.8580 C.ar  280  TRP280      0.0001
    102  CH2        3.4030   -4.8110   62.8580 C.ar  280  TRP280      0.0015
    103  N         10.9880   -5.6230   60.4200 N.am  281  TYR281     -0.1960
    104  CA        11.6530   -5.5910   59.1290 C.3   281  TYR281      0.1771
    105  C         10.7830   -6.1190   57.9830 C.2   281  TYR281      0.2619
    106  O         10.0200   -7.0760   58.1470 O.2   281  TYR281     -0.2715
    107  CB        12.8910   -6.4250   59.1500 C.3   281  TYR281      0.0574
    108  CG        14.1160   -5.7220   59.6070 C.ar  281  TYR281     -0.0198
    109  CD1       14.6820   -4.7510   58.8250 C.ar  281  TYR281     -0.0009
    110  CD2       14.7270   -6.0380   60.7890 C.ar  281  TYR281     -0.0009
    111  CE1       15.8500   -4.1310   59.1850 C.ar  281  TYR281      0.0417
    112  CE2       15.8690   -5.3860   61.1720 C.ar  281  TYR281      0.0417
    113  CZ        16.4340   -4.4560   60.3550 C.ar  281  TYR281      0.1957
    114  OH        17.6020   -3.8120   60.6530 O.3   281  TYR281     -0.2866
    115  N         10.8860   -5.4430   56.8360 N.am  282  MET282     -0.1977
    116  CA        10.5790   -6.0410   55.5090 C.3   282  MET282      0.1605
    117  C         11.8520   -6.7430   55.1230 C.2   282  MET282      0.2287
    118  O         12.9620   -6.1760   55.2800 O.2   282  MET282     -0.2864
    119  CB        10.2440   -4.9820   54.4740 C.3   282  MET282      0.0413
    120  CG         9.8550   -5.4650   53.0460 C.3   282  MET282      0.0598
    121  SD         8.8610   -4.3250   52.0140 S.3   282  MET282     -0.1393
    122  CE        10.2400   -3.2680   51.5310 C.3   282  MET282      0.0692
    123  N         15.0670   -5.0950   53.2560 N.3   285  GLU285     -0.1245
    124  CA        15.9650   -4.2050   53.9770 C.3   285  GLU285      0.1567
    125  C         17.2700   -4.8810   54.3890 C.2   285  GLU285      0.2260
    126  O         18.3240   -4.2850   54.2050 O.2   285  GLU285     -0.2867
    127  CB        15.3110   -3.5840   55.2060 C.3   285  GLU285      0.0388
    128  CG        14.0480   -2.7600   54.9480 C.3   285  GLU285      0.1160
    129  CD        13.4360   -2.2700   56.2610 C.2   285  GLU285      0.3649
    130  OE1       13.9420   -1.2320   56.7850 O.co2 285  GLU285     -0.2457
    131  OE2       12.4230   -2.8640   56.7290 O.co2 285  GLU285     -0.2457
    132  N         10.9670    5.4680   47.0860 N.3   371  TRP371     -0.1241
    133  CA        11.1960    4.7060   48.2760 C.3   371  TRP371      0.1605
    134  C         10.2080    3.5800   48.5180 C.2   371  TRP371      0.2264
    135  O         10.5350    2.5970   49.1750 O.2   371  TRP371     -0.2867
    136  CB        11.2320    5.6890   49.5200 C.3   371  TRP371      0.0550
    137  CG        12.5490    6.4430   49.7090 C.ar  371  TRP371      0.0003
    138  CD1       13.1510    7.3820   48.8740 C.ar  371  TRP371      0.0946
    139  CD2       13.4710    6.3030   50.8400 C.ar  371  TRP371      0.0152
    140  NE1       14.3820    7.7830   49.3840 N.ar  371  TRP371     -0.2442
    141  CE2       14.6020    7.1970   50.5760 C.ar  371  TRP371      0.0810
    142  CE3       13.4360    5.6000   52.0300 C.ar  371  TRP371      0.0012
    143  CZ2       15.6520    7.3360   51.4960 C.ar  371  TRP371      0.0191
    144  CZ3       14.4880    5.7530   52.9560 C.ar  371  TRP371      0.0001
    145  CH2       15.5710    6.5910   52.6850 C.ar  371  TRP371      0.0015
    146  N         14.8390   14.5640   58.9410 N.3   399  TYR399     -0.1241
    147  CA        16.2420   14.3440   59.2110 C.3   399  TYR399      0.1605
    148  C         16.7880   15.5160   60.0170 C.2   399  TYR399      0.2264
    149  O         16.1740   16.5880   60.0870 O.2   399  TYR399     -0.2867
    150  CB        17.0780   14.1800   57.9210 C.3   399  TYR399      0.0534
    151  CG        16.8080   12.9400   57.0970 C.ar  399  TYR399     -0.0201
    152  CD1       16.3710   11.7330   57.6760 C.ar  399  TYR399     -0.0009
    153  CD2       17.0250   12.9590   55.7310 C.ar  399  TYR399     -0.0009
    154  CE1       16.0990   10.6160   56.8990 C.ar  399  TYR399      0.0417
    155  CE2       16.8070   11.8350   54.9500 C.ar  399  TYR399      0.0417
    156  CZ        16.3270   10.6820   55.5360 C.ar  399  TYR399      0.1957
    157  OH        16.1340    9.6070   54.7090 O.3   399  TYR399     -0.2866
@<TRIPOS>BOND
     1   132   133    1
     2     1     2    1
     3   133   134    1
     4   133   136    1
     5   134   135    2
     6   138   140   ar
     7   138   137   ar
     8     2     5    1
     9     2     3    1
    10   140   141   ar
    11     5     6    1
    12   136   137    1
    13     8     7    1
    14   137   139   ar
    15     7     6    1
    16     3     9   am
    17     3     4    2
    18     9    10    1
    19    12    11    2
    20    11    10    1
    21   141   139   ar
    22   141   143   ar
    23   139   142   ar
    24    10    13    1
    25   143   145   ar
    26   122   121    1
    27   121   120    1
    28   142   144   ar
    29    14    13    1
    30    14    15    1
    31    14    16    1
    32   145   144   ar
    33   120   119    1
    34   123   124    1
    35    17    18    1
    36    20    19    2
    37   124   125    1
    38   124   127    1
    39    19    18    1
    40   126   125    2
    41   119   116    1
    42    18    21    1
    43   157   156    1
    44   128   127    1
    45   128   129    1
    46   155   156   ar
    47   155   153   ar
    48   117   118    2
    49   117   116    1
    50   116   115    1
    51   156   154   ar
    52   153   151   ar
    53    21    22    1
    54   129   131   ar
    55   129   130   ar
    56   115   105   am
    57   154   152   ar
    58   151   152   ar
    59   151   150    1
    60   150   147    1
    61   105   106    2
    62   105   104    1
    63   109   111   ar
    64   109   108   ar
    65   146   147    1
    66    67    66    1
    67   104   107    1
    68   104   103    1
    69   107   108    1
    70   111   113   ar
    71   147   148    1
    72   108   110   ar
    73    92    91    2
    74   148   149    2
    75    97    95   ar
    76    97    98   ar
    77    66    65    1
    78    95    94   ar
    79   113   114    1
    80   113   112   ar
    81   103    91   am
    82    37    35   am
    83    91    90    1
    84   110   112   ar
    85    98   100   ar
    86    98    96   ar
    87    65    64    1
    88    51    49    1
    89   100   102   ar
    90    94    96   ar
    91    94    93    1
    92    35    36    2
    93    35    34    1
    94    59    57   am
    95    42    43    1
    96    42    39    1
    97    90    93    1
    98    90    89    1
    99    58    57    2
   100    28    27    1
   101    50    49    1
   102    96    99   ar
   103    43    44    1
   104    64    61    1
   105    27    24    1
   106    57    56    1
   107    78    77   ar
   108    78    76   ar
   109    77    75   ar
   110    89    87   am
   111    49    46    1
   112    34    33    1
   113   102   101   ar
   114    61    60    1
   115    61    62    1
   116    39    38    1
   117    39    40    1
   118    55    54    2
   119    44    38    1
   120    99   101   ar
   121    76    74   ar
   122    75    73   ar
   123    26    25    2
   124    87    86    1
   125    87    88    2
   126    56    53    1
   127    86    85    1
   128    24    25    1
   129    24    23    1
   130    60    54   am
   131    54    53    1
   132    46    45    1
   133    46    47    1
   134    25    29   am
   135    33    30    1
   136    40    41    2
   137    62    63    2
   138    85    81   am
   139    29    30    1
   140    53    52    1
   141    74    73   ar
   142    73    72    1
   143    47    48    2
   144    30    31    1
   145    81    82    2
   146    81    80    1
   147    71    70    2
   148    80    79    1
   149    80    83    1
   150    72    69    1
   151    70    79   am
   152    70    69    1
   153    31    32    2
   154    69    68    1
   155    83    84    1
