@<TRIPOS>MOLECULE
tmp/4capB03.pdb
 165 162 0 0 0
SMALL
GASTEIGER

@<TRIPOS>ATOM
      1  N         18.0690   12.3410   47.6870 N.3    38  MET38      -0.1230
      2  CA        17.9030   11.6730   48.9850 C.3    38  MET38       0.1702
      3  C         17.4950   12.6820   50.1080 C.2    38  MET38       0.2592
      4  O         16.4880   12.4640   50.7830 O.2    38  MET38      -0.2718
      5  CB        19.2020   10.9500   49.2950 C.3    38  MET38       0.0401
      6  CG        19.1720    9.9410   50.3860 C.3    38  MET38       0.0596
      7  SD        19.2800    8.2430   49.8010 S.3    38  MET38      -0.1393
      8  CE        20.9770    8.0650   49.4850 C.3    38  MET38       0.0692
      9  N         18.2490   13.7860   50.2610 N.am   39  LEU39      -0.1980
     10  CA        17.9260   14.8620   51.2400 C.3    39  LEU39       0.1596
     11  C         17.6980   16.2020   50.4980 C.2    39  LEU39       0.2287
     12  O         18.6630   16.9090   50.1910 O.2    39  LEU39      -0.2864
     13  CB        19.0680   15.0760   52.2420 C.3    39  LEU39       0.0297
     14  CG        19.8970   13.9040   52.7550 C.3    39  LEU39       0.0022
     15  CD1       21.2460   14.3460   53.3120 C.3    39  LEU39       0.0001
     16  CD2       19.1190   13.1280   53.8050 C.3    39  LEU39       0.0001
     17  N          7.6030    8.1400   52.7350 N.3   107  ARG107     -0.1231
     18  CA         8.5600    7.1250   52.3340 C.3   107  ARG107      0.1694
     19  C          8.2930    5.7340   52.9850 C.2   107  ARG107      0.2592
     20  O          9.0390    4.8170   52.6880 O.2   107  ARG107     -0.2718
     21  CB        10.0110    7.6100   52.5960 C.3   107  ARG107      0.0321
     22  CG        10.3880    8.8620   51.7970 C.3   107  ARG107      0.0489
     23  CD        11.8690    9.1670   51.9640 C.3   107  ARG107      0.2205
     24  NE        12.3430   10.0780   50.9260 N.pl3 107  ARG107     -0.0865
     25  CZ        13.5420   10.6700   50.9390 C.cat 107  ARG107      0.5346
     26  NH1       14.4090   10.4730   51.9380 N.pl3 107  ARG107      0.1354
     27  NH2       13.8770   11.4530   49.9450 N.pl3 107  ARG107      0.1354
     28  N          7.2020    5.5730   53.7860 N.am  108  CYS108     -0.1970
     29  CA         6.9330    4.3420   54.6110 C.3   108  CYS108      0.1712
     30  C          5.9050    3.4290   54.0250 C.2   108  CYS108      0.2296
     31  O          4.7130    3.7570   53.9310 O.2   108  CYS108     -0.2864
     32  CB         6.4790    4.6770   56.0660 C.3   108  CYS108      0.0983
     33  SG         6.2100    3.2060   57.0880 S.3   108  CYS108     -0.0798
     34  N         20.4130    3.6390   64.6740 N.3   171  GLN171     -0.1245
     35  CA        19.3360    2.7200   65.0750 C.3   171  GLN171      0.1566
     36  C         19.7150    2.2150   66.4790 C.2   171  GLN171      0.2260
     37  O         20.9380    2.1380   66.8410 O.2   171  GLN171     -0.2867
     38  CB        19.1080    1.5210   64.1460 C.3   171  GLN171      0.0367
     39  CG        18.6530    1.8020   62.6950 C.3   171  GLN171      0.0905
     40  CD        18.4530    0.5230   61.8760 C.2   171  GLN171      0.2608
     41  OE1       18.1000   -0.5210   62.4130 O.2   171  GLN171     -0.2717
     42  NE2       18.6730    0.6060   60.5670 N.am  171  GLN171     -0.0878
     43  N         22.3950   -1.9530   66.1240 N.3   174  ARG174     -0.1245
     44  CA        23.0220   -1.9250   64.8530 C.3   174  ARG174      0.1563
     45  C         24.4120   -2.4600   65.0830 C.2   174  ARG174      0.2260
     46  O         24.9280   -2.3020   66.1900 O.2   174  ARG174     -0.2867
     47  CB        23.1390   -0.4700   64.4020 C.3   174  ARG174      0.0307
     48  CG        22.5680   -0.3590   63.0350 C.3   174  ARG174      0.0489
     49  CD        23.2130    0.6480   62.1810 C.3   174  ARG174      0.2205
     50  NE        22.6190    0.4410   60.8800 N.pl3 174  ARG174     -0.0865
     51  CZ        22.6980    1.3100   59.8850 C.cat 174  ARG174      0.5346
     52  NH1       23.3510    2.4780   60.0520 N.pl3 174  ARG174      0.1354
     53  NH2       22.1250    0.9870   58.7320 N.pl3 174  ARG174      0.1354
     54  N         14.0170   -3.4480   64.0360 N.3   258  PRO258     -0.2116
     55  CA        14.4690   -2.2420   63.3630 C.3   258  PRO258      0.1372
     56  C         13.9950   -1.0340   64.1870 C.2   258  PRO258      0.2244
     57  O         12.7770   -0.8270   64.3340 O.2   258  PRO258     -0.2868
     58  CB        13.7380   -2.2920   61.9940 C.3   258  PRO258      0.0268
     59  CG        12.5150   -3.1560   62.1900 C.3   258  PRO258      0.0207
     60  CD        12.8760   -4.1010   63.3440 C.3   258  PRO258      0.0892
     61  N         14.6840    2.9640   64.5360 N.3   260  VAL260     -0.1245
     62  CA        15.3330    4.1970   64.0300 C.3   260  VAL260      0.1561
     63  C         15.3800    5.2380   65.1070 C.2   260  VAL260      0.2260
     64  O         14.3480    5.5900   65.6450 O.2   260  VAL260     -0.2867
     65  CB        14.6550    4.6870   62.7380 C.3   260  VAL260      0.0252
     66  CG1       15.0920    6.0780   62.3120 C.3   260  VAL260      0.0019
     67  CG2       14.9480    3.6730   61.6350 C.3   260  VAL260      0.0019
     68  N         15.9310   10.4610   64.0020 N.3   263  MET263     -0.1245
     69  CA        15.0100   11.3440   63.3340 C.3   263  MET263      0.1570
     70  C         14.3860   12.3570   64.2830 C.2   263  MET263      0.2261
     71  O         14.5140   12.2480   65.5120 O.2   263  MET263     -0.2867
     72  CB        13.9600   10.5160   62.5610 C.3   263  MET263      0.0387
     73  CG        14.5930    9.7700   61.3500 C.3   263  MET263      0.0595
     74  SD        13.2390    9.2260   60.3160 S.3   263  MET263     -0.1393
     75  CE        13.0580   10.6260   59.1310 C.3   263  MET263      0.0692
     76  N         11.8530    5.0280   67.3250 N.3   277  PHE277     -0.1227
     77  CA        10.5860    4.2730   67.0570 C.3   277  PHE277      0.1736
     78  C         11.0300    2.9550   66.3800 C.2   277  PHE277      0.2596
     79  O         12.1750    2.7940   65.9260 O.2   277  PHE277     -0.2718
     80  CB         9.6070    5.0780   66.2000 C.3   277  PHE277      0.0547
     81  CG        10.2180    5.5760   64.8600 C.ar  277  PHE277     -0.0202
     82  CD1       10.9210    6.7700   64.7850 C.ar  277  PHE277     -0.0042
     83  CD2       10.1070    4.8230   63.6950 C.ar  277  PHE277     -0.0042
     84  CE1       11.5050    7.2090   63.5800 C.ar  277  PHE277     -0.0003
     85  CE2       10.6620    5.2700   62.4830 C.ar  277  PHE277     -0.0003
     86  CZ        11.3620    6.4600   62.4250 C.ar  277  PHE277     -0.0000
     87  N         10.1480    1.9900   66.3720 N.am  278  SER278     -0.1938
     88  CA        10.4730    0.6840   65.9100 C.3   278  SER278      0.2055
     89  C          9.2210    0.0650   65.3700 C.2   278  SER278      0.2644
     90  O          8.1180    0.3730   65.8170 O.2   278  SER278     -0.2714
     91  CB        11.1170   -0.1900   67.0390 C.3   278  SER278      0.2130
     92  OG        10.2280   -0.4470   68.1060 O.3   278  SER278     -0.2179
     93  N          9.3920   -0.7320   64.3330 N.am  279  GLY279     -0.1939
     94  CA         8.2920   -1.5240   63.8420 C.3   279  GLY279      0.2014
     95  C          8.7670   -2.9620   63.6850 C.2   279  GLY279      0.2639
     96  O          9.2120   -3.5990   64.6480 O.2   279  GLY279     -0.2714
     97  N          8.6900   -3.4640   62.4640 N.am  280  TRP280     -0.1959
     98  CA         9.4130   -4.7080   62.1010 C.3   280  TRP280      0.1771
     99  C          9.9260   -4.6750   60.6660 C.2   280  TRP280      0.2620
    100  O          9.5500   -3.8020   59.8950 O.2   280  TRP280     -0.2715
    101  CB         8.5340   -5.9110   62.3010 C.3   280  TRP280      0.0590
    102  CG         7.1910   -5.7960   61.6370 C.ar  280  TRP280      0.0006
    103  CD1        6.8700   -6.0270   60.2850 C.ar  280  TRP280      0.0946
    104  CD2        5.9340   -5.4230   62.2710 C.ar  280  TRP280      0.0152
    105  NE1        5.5340   -5.8440   60.0670 N.ar  280  TRP280     -0.2442
    106  CE2        4.9100   -5.4800   61.2330 C.ar  280  TRP280      0.0810
    107  CE3        5.5530   -5.1080   63.5740 C.ar  280  TRP280      0.0012
    108  CZ2        3.5620   -5.2210   61.5150 C.ar  280  TRP280      0.0191
    109  CZ3        4.2100   -4.8180   63.8320 C.ar  280  TRP280      0.0001
    110  CH2        3.2380   -4.9140   62.8280 C.ar  280  TRP280      0.0015
    111  N         10.7740   -5.6260   60.2990 N.am  281  TYR281     -0.1960
    112  CA        11.4600   -5.5430   59.0250 C.3   281  TYR281      0.1771
    113  C         10.6640   -6.0640   57.8910 C.2   281  TYR281      0.2619
    114  O          9.9200   -7.0400   58.0500 O.2   281  TYR281     -0.2715
    115  CB        12.6830   -6.3730   59.0590 C.3   281  TYR281      0.0574
    116  CG        13.8960   -5.6610   59.5230 C.ar  281  TYR281     -0.0198
    117  CD1       14.5040   -4.6890   58.7330 C.ar  281  TYR281     -0.0009
    118  CD2       14.5260   -6.0390   60.6970 C.ar  281  TYR281     -0.0009
    119  CE1       15.7080   -4.0830   59.1110 C.ar  281  TYR281      0.0417
    120  CE2       15.7060   -5.4350   61.1050 C.ar  281  TYR281      0.0417
    121  CZ        16.2990   -4.4750   60.3040 C.ar  281  TYR281      0.1957
    122  OH        17.4860   -3.9170   60.6700 O.3   281  TYR281     -0.2866
    123  N         10.8160   -5.3960   56.7390 N.am  282  MET282     -0.1977
    124  CA        10.4880   -6.0280   55.4420 C.3   282  MET282      0.1605
    125  C         11.7790   -6.6950   55.0500 C.2   282  MET282      0.2287
    126  O         12.8540   -6.0840   55.1860 O.2   282  MET282     -0.2864
    127  CB        10.1020   -4.9670   54.3910 C.3   282  MET282      0.0413
    128  CG         9.8920   -5.4490   52.9200 C.3   282  MET282      0.0598
    129  SD         8.7800   -4.3060   52.0260 S.3   282  MET282     -0.1393
    130  CE        10.0790   -3.2800   51.3500 C.3   282  MET282      0.0692
    131  N         14.9740   -5.0500   53.2800 N.3   285  GLU285     -0.1245
    132  CA        15.9030   -4.1930   53.9990 C.3   285  GLU285      0.1567
    133  C         17.2110   -4.9300   54.4010 C.2   285  GLU285      0.2260
    134  O         18.3240   -4.4040   54.1850 O.2   285  GLU285     -0.2867
    135  CB        15.2500   -3.5690   55.2340 C.3   285  GLU285      0.0388
    136  CG        13.9310   -2.8420   54.9520 C.3   285  GLU285      0.1160
    137  CD        13.3580   -2.3690   56.3010 C.2   285  GLU285      0.3649
    138  OE1       13.9930   -1.4470   56.8690 O.co2 285  GLU285     -0.2457
    139  OE2       12.3030   -2.8840   56.7770 O.co2 285  GLU285     -0.2457
    140  N         10.9130    5.4740   47.0720 N.3   371  TRP371     -0.1241
    141  CA        11.0740    4.7280   48.3080 C.3   371  TRP371      0.1605
    142  C         10.1290    3.5600   48.5330 C.2   371  TRP371      0.2264
    143  O         10.5290    2.5220   49.1160 O.2   371  TRP371     -0.2867
    144  CB        11.0500    5.7120   49.5470 C.3   371  TRP371      0.0550
    145  CG        12.4020    6.4080   49.7170 C.ar  371  TRP371      0.0003
    146  CD1       13.0550    7.2540   48.8190 C.ar  371  TRP371      0.0946
    147  CD2       13.3250    6.2790   50.8570 C.ar  371  TRP371      0.0152
    148  NE1       14.2780    7.6210   49.3020 N.ar  371  TRP371     -0.2442
    149  CE2       14.4880    7.0890   50.5370 C.ar  371  TRP371      0.0810
    150  CE3       13.2700    5.6260   52.1090 C.ar  371  TRP371      0.0012
    151  CZ2       15.5480    7.2320   51.4350 C.ar  371  TRP371      0.0191
    152  CZ3       14.3270    5.8000   53.0170 C.ar  371  TRP371      0.0001
    153  CH2       15.4460    6.5670   52.6730 C.ar  371  TRP371      0.0015
    154  N         14.6580   14.4710   58.8510 N.3   399  TYR399     -0.1241
    155  CA        16.0680   14.2410   59.1550 C.3   399  TYR399      0.1605
    156  C         16.6820   15.3730   59.9930 C.2   399  TYR399      0.2264
    157  O         16.1450   16.4580   60.0490 O.2   399  TYR399     -0.2867
    158  CB        16.8690   14.0430   57.8620 C.3   399  TYR399      0.0534
    159  CG        16.4010   12.8510   57.1120 C.ar  399  TYR399     -0.0201
    160  CD1       16.6240   11.5440   57.5930 C.ar  399  TYR399     -0.0009
    161  CD2       15.6090   13.0250   55.9820 C.ar  399  TYR399     -0.0009
    162  CE1       16.1310   10.4490   56.9040 C.ar  399  TYR399      0.0417
    163  CE2       15.1310   11.9440   55.2790 C.ar  399  TYR399      0.0417
    164  CZ        15.4050   10.6650   55.7330 C.ar  399  TYR399      0.1957
    165  OH        14.9040    9.6380   54.9630 O.3   399  TYR399     -0.2866
@<TRIPOS>BOND
     1   140   141    1
     2     1     2    1
     3   141   142    1
     4   141   144    1
     5   142   143    2
     6   146   148   ar
     7   146   145   ar
     8     2     5    1
     9     2     3    1
    10     5     6    1
    11   148   149   ar
    12     8     7    1
    13   144   145    1
    14   145   147   ar
    15     7     6    1
    16    27    25    1
    17     3     9   am
    18     3     4    2
    19    12    11    2
    20     9    10    1
    21    11    10    1
    22   149   147   ar
    23   149   151   ar
    24   147   150   ar
    25    24    25    2
    26    24    23    1
    27    25    26    1
    28    10    13    1
    29   130   129    1
    30   151   153   ar
    31    22    23    1
    32    22    21    1
    33   129   128    1
    34   150   152   ar
    35    13    14    1
    36    18    21    1
    37    18    17    1
    38    18    19    1
    39   153   152   ar
    40    20    19    2
    41    14    15    1
    42    14    16    1
    43   128   127    1
    44    19    28   am
    45   131   132    1
    46    28    29    1
    47    31    30    2
    48   132   133    1
    49   132   135    1
    50    30    29    1
    51   134   133    2
    52   127   124    1
    53    29    32    1
    54   136   135    1
    55   136   137    1
    56   165   164    1
    57   125   126    2
    58   125   124    1
    59   163   164   ar
    60   163   161   ar
    61   124   123    1
    62   164   162   ar
    63   161   159   ar
    64    32    33    1
    65   137   139   ar
    66   137   138   ar
    67   123   113   am
    68   162   160   ar
    69   159   160   ar
    70   159   158    1
    71   158   155    1
    72   113   114    2
    73   113   112    1
    74    53    51    1
    75   117   119   ar
    76   117   116   ar
    77   154   155    1
    78   112   115    1
    79   112   111    1
    80   115   116    1
    81   119   121   ar
    82    75    74    1
    83   155   156    1
    84   116   118   ar
    85    51    52    1
    86    51    50    2
    87   100    99    2
    88   156   157    2
    89   105   103   ar
    90   105   106   ar
    91   103   102   ar
    92   111    99   am
    93   121   122    1
    94   121   120   ar
    95    74    73    1
    96    42    40   am
    97    99    98    1
    98   118   120   ar
    99    50    49    1
   100   106   108   ar
   101   106   104   ar
   102    73    72    1
   103   108   110   ar
   104    67    65    1
   105   102   104   ar
   106   102   101    1
   107    40    41    2
   108    40    39    1
   109    58    59    1
   110    58    55    1
   111    98   101    1
   112    98    97    1
   113    49    48    1
   114    59    60    1
   115   104   107   ar
   116    66    65    1
   117    86    85   ar
   118    86    84   ar
   119    97    95   am
   120    85    83   ar
   121    72    69    1
   122    39    38    1
   123    65    62    1
   124   110   109   ar
   125    48    47    1
   126    69    68    1
   127    69    70    1
   128    60    54    1
   129    55    54    1
   130    55    56    1
   131   107   109   ar
   132    84    82   ar
   133    95    94    1
   134    95    96    2
   135    83    81   ar
   136    94    93    1
   137    62    61    1
   138    62    63    1
   139    38    35    1
   140    56    57    2
   141    70    71    2
   142    93    89   am
   143    47    44    1
   144    34    35    1
   145    82    81   ar
   146    44    45    1
   147    44    43    1
   148    81    80    1
   149    35    36    1
   150    45    46    2
   151    63    64    2
   152    89    90    2
   153    89    88    1
   154    88    87    1
   155    88    91    1
   156    79    78    2
   157    80    77    1
   158    87    78   am
   159    78    77    1
   160    36    37    2
   161    91    92    1
   162    77    76    1
