@<TRIPOS>MOLECULE
tmp/4caqA02.pdb
 157 155 0 0 0
SMALL
GASTEIGER

@<TRIPOS>ATOM
      1  N          2.9050    9.0040   34.9680 N.3    38  MET38      -0.1230
      2  CA         3.3280    8.6240   33.6090 C.3    38  MET38       0.1702
      3  C          3.2800    9.7460   32.5560 C.2    38  MET38       0.2592
      4  O          4.2120    9.8570   31.7360 O.2    38  MET38      -0.2718
      5  CB         2.5250    7.4420   33.0960 C.3    38  MET38       0.0401
      6  CG         2.7880    6.1650   33.8640 C.3    38  MET38       0.0596
      7  SD         3.0190    4.7590   32.7640 S.3    38  MET38      -0.1393
      8  CE         4.6380    5.1770   32.1390 C.3    38  MET38       0.0692
      9  N          2.2130   10.5540   32.5870 N.am   39  LEU39      -0.1980
     10  CA         2.0050   11.6760   31.6420 C.3    39  LEU39       0.1596
     11  C          1.6580   12.9480   32.4180 C.2    39  LEU39       0.2287
     12  O          0.4930   13.1710   32.7400 O.2    39  LEU39      -0.2864
     13  CB         0.8610   11.3480   30.6810 C.3    39  LEU39       0.0297
     14  CG         0.6920    9.9030   30.1920 C.3    39  LEU39       0.0022
     15  CD1       -0.7330    9.6590   29.7070 C.3    39  LEU39       0.0001
     16  CD2        1.7150    9.5190   29.1230 C.3    39  LEU39       0.0001
     17  N         15.4750    7.5780   28.9570 N.3   106  CYS106     -0.1235
     18  CA        16.1530    6.5490   28.1570 C.3   106  CYS106      0.1677
     19  C         17.4810    6.1930   28.7980 C.2   106  CYS106      0.2270
     20  O         18.3570    7.0500   28.9070 O.2   106  CYS106     -0.2867
     21  CB        16.4520    7.0650   26.7260 C.3   106  CYS106      0.0956
     22  SG        17.3540    5.8640   25.7210 S.3   106  CYS106     -0.0801
     23  N          1.7800    1.7210   17.8350 N.3   168  SER168     -0.1202
     24  CA         2.5860    2.2390   18.9230 C.3   168  SER168      0.2020
     25  C          4.0440    1.8540   18.7220 C.2   168  SER168      0.2618
     26  O          4.8980    2.6480   19.0250 O.2   168  SER168     -0.2717
     27  CB         2.0730    1.7660   20.2810 C.3   168  SER168      0.2103
     28  OG         2.1020    0.3550   20.3160 O.3   168  SER168     -0.2182
     29  N          4.3120    0.6610   18.1790 N.am  169  GLN169     -0.1979
     30  CA         5.6830    0.2670   17.7220 C.3   169  GLN169      0.1601
     31  C          5.4660   -0.3560   16.3420 C.2   169  GLN169      0.2287
     32  O          4.3670   -0.8610   16.0650 O.2   169  GLN169     -0.2864
     33  CB         6.3310   -0.7690   18.6370 C.3   169  GLN169      0.0394
     34  CG         6.7030   -0.2860   20.0370 C.3   169  GLN169      0.0908
     35  CD         7.1100   -1.4430   20.9300 C.2   169  GLN169      0.2608
     36  OE1        7.8830   -2.3230   20.5160 O.2   169  GLN169     -0.2717
     37  NE2        6.5790   -1.4690   22.1490 N.am  169  GLN169     -0.0878
     38  N         13.0020   -3.2400   18.6960 N.3   256  PRO256     -0.2116
     39  CA        12.0790   -2.3530   19.4110 C.3   256  PRO256      0.1372
     40  C         12.0290   -1.0250   18.6400 C.2   256  PRO256      0.2244
     41  O         13.0310   -0.3390   18.5290 O.2   256  PRO256     -0.2868
     42  CB        12.7360   -2.2150   20.8070 C.3   256  PRO256      0.0268
     43  CG        14.2130   -2.3750   20.5460 C.3   256  PRO256      0.0207
     44  CD        14.3510   -3.2430   19.3010 C.3   256  PRO256      0.0892
     45  N          9.8040    2.3240   18.2810 N.3   258  VAL258     -0.1245
     46  CA         8.7100    3.1510   18.7800 C.3   258  VAL258      0.1561
     47  C          8.2230    4.1070   17.7200 C.2   258  VAL258      0.2260
     48  O          9.0190    4.8560   17.1790 O.2   258  VAL258     -0.2867
     49  CB         9.1370    3.9480   20.0350 C.3   258  VAL258      0.0252
     50  CG1        8.0810    5.0220   20.3540 C.3   258  VAL258      0.0019
     51  CG2        9.2970    2.9650   21.1930 C.3   258  VAL258      0.0019
     52  N          4.9110    6.0490   17.8410 N.3   260  ASN260     -0.1225
     53  CA         3.8030    6.9720   18.1240 C.3   260  ASN260      0.1785
     54  C          4.1970    8.2870   18.7840 C.2   260  ASN260      0.2597
     55  O          3.3220    9.0510   19.1890 O.2   260  ASN260     -0.2718
     56  CB         2.6820    6.3020   18.9470 C.3   260  ASN260      0.1169
     57  CG         3.1590    5.7720   20.2950 C.2   260  ASN260      0.2627
     58  OD1        2.3500    5.2280   21.0390 O.2   260  ASN260     -0.2716
     59  ND2        4.4710    5.9010   20.6170 N.am  260  ASN260     -0.0877
     60  N          5.4930    8.5660   18.8600 N.am  261  MET261     -0.1979
     61  CA         5.9330    9.7870   19.5310 C.3   261  MET261      0.1605
     62  C          6.0530   10.9530   18.5640 C.2   261  MET261      0.2287
     63  O          5.9790   10.7570   17.3640 O.2   261  MET261     -0.2864
     64  CB         7.2020    9.5310   20.3450 C.3   261  MET261      0.0413
     65  CG         6.8820    8.7040   21.5850 C.3   261  MET261      0.0598
     66  SD         8.2810    8.5700   22.6900 S.3   261  MET261     -0.1393
     67  CE         8.0510    9.9590   23.8180 C.3   261  MET261      0.0692
     68  N         11.3610    5.4250   15.4560 N.3   275  PHE275     -0.1227
     69  CA        12.7720    5.2070   15.8130 C.3   275  PHE275      0.1736
     70  C         12.9970    3.8750   16.5230 C.2   275  PHE275      0.2596
     71  O         12.0880    3.3030   17.1370 O.2   275  PHE275     -0.2718
     72  CB        13.3240    6.3740   16.6400 C.3   275  PHE275      0.0547
     73  CG        12.6050    6.6150   17.9380 C.ar  275  PHE275     -0.0202
     74  CD1       12.9160    5.8760   19.0680 C.ar  275  PHE275     -0.0042
     75  CD2       11.6050    7.5770   18.0280 C.ar  275  PHE275     -0.0042
     76  CE1       12.2740    6.1150   20.2870 C.ar  275  PHE275     -0.0003
     77  CE2       10.9570    7.8120   19.2480 C.ar  275  PHE275     -0.0003
     78  CZ        11.2980    7.0910   20.3730 C.ar  275  PHE275     -0.0000
     79  N         14.2310    3.3750   16.4570 N.am  276  SER276     -0.1938
     80  CA        14.5040    2.0550   16.9260 C.3   276  SER276      0.2055
     81  C         15.9550    1.9960   17.4280 C.2   276  SER276      0.2644
     82  O         16.7640    2.7190   16.9340 O.2   276  SER276     -0.2714
     83  CB        14.2790    1.0310   15.7930 C.3   276  SER276      0.2130
     84  OG        15.1190    1.2490   14.6270 O.3   276  SER276     -0.2179
     85  N         16.2220    1.1350   18.4170 N.am  277  GLY277     -0.1939
     86  CA        17.5800    0.8260   18.8710 C.3   277  GLY277      0.2014
     87  C         17.6330   -0.6740   19.0140 C.2   277  GLY277      0.2639
     88  O         17.4790   -1.3930   18.0430 O.2   277  GLY277     -0.2714
     89  N         17.8530   -1.1470   20.2330 N.am  278  TRP278     -0.1959
     90  CA        17.8200   -2.5840   20.5420 C.3   278  TRP278      0.1771
     91  C         17.3590   -2.7760   22.0030 C.2   278  TRP278      0.2620
     92  O         17.3740   -1.8350   22.7810 O.2   278  TRP278     -0.2715
     93  CB        19.1970   -3.2130   20.3510 C.3   278  TRP278      0.0590
     94  CG        20.3340   -2.5460   21.0970 C.ar  278  TRP278      0.0006
     95  CD1       20.6390   -2.6560   22.4400 C.ar  278  TRP278      0.0946
     96  CD2       21.3080   -1.6740   20.5410 C.ar  278  TRP278      0.0152
     97  NE1       21.7400   -1.8910   22.7390 N.ar  278  TRP278     -0.2442
     98  CE2       22.1710   -1.2780   21.5930 C.ar  278  TRP278      0.0810
     99  CE3       21.5370   -1.1740   19.2430 C.ar  278  TRP278      0.0012
    100  CZ2       23.2710   -0.4270   21.3810 C.ar  278  TRP278      0.0191
    101  CZ3       22.6070   -0.3220   19.0330 C.ar  278  TRP278      0.0001
    102  CH2       23.4770    0.0360   20.0960 C.ar  278  TRP278      0.0015
    103  N         16.9900   -3.9920   22.3710 N.am  279  TYR279     -0.1960
    104  CA        16.3350   -4.2300   23.6590 C.3   279  TYR279      0.1771
    105  C         17.3210   -4.3630   24.8110 C.2   279  TYR279      0.2619
    106  O         18.4570   -4.8210   24.6440 O.2   279  TYR279     -0.2715
    107  CB        15.5320   -5.5130   23.5990 C.3   279  TYR279      0.0574
    108  CG        14.0850   -5.3790   23.1900 C.ar  279  TYR279     -0.0198
    109  CD1       13.1480   -4.7460   24.0280 C.ar  279  TYR279     -0.0009
    110  CD2       13.6280   -5.9530   21.9930 C.ar  279  TYR279     -0.0009
    111  CE1       11.7960   -4.6730   23.6760 C.ar  279  TYR279      0.0417
    112  CE2       12.2920   -5.8750   21.6290 C.ar  279  TYR279      0.0417
    113  CZ        11.3870   -5.2330   22.4730 C.ar  279  TYR279      0.1957
    114  OH        10.0590   -5.1540   22.1010 O.3   279  TYR279     -0.2866
    115  N         16.8640   -3.9450   25.9850 N.am  280  MET280     -0.1977
    116  CA        17.4870   -4.3250   27.2470 C.3   280  MET280      0.1605
    117  C         16.6470   -5.5240   27.6670 C.2   280  MET280      0.2287
    118  O         15.4510   -5.4750   27.5080 O.2   280  MET280     -0.2864
    119  CB        17.3830   -3.1660   28.2540 C.3   280  MET280      0.0413
    120  CG        17.9590   -3.5000   29.6280 C.3   280  MET280      0.0598
    121  SD        18.2440   -2.0600   30.6900 S.3   280  MET280     -0.1393
    122  CE        16.5270   -1.6360   31.0760 C.3   280  MET280      0.0692
    123  N         12.9620   -5.3720   29.4620 N.3   283  GLU283     -0.1245
    124  CA        11.7810   -4.9320   28.7660 C.3   283  GLU283      0.1567
    125  C         10.9080   -6.1280   28.3420 C.2   283  GLU283      0.2260
    126  O          9.6880   -6.1020   28.5230 O.2   283  GLU283     -0.2867
    127  CB        12.1580   -4.1270   27.5240 C.3   283  GLU283      0.0388
    128  CG        12.7780   -2.7830   27.8260 C.3   283  GLU283      0.1160
    129  CD        13.2120   -2.0700   26.5430 C.2   283  GLU283      0.3649
    130  OE1       12.3570   -1.3510   25.9440 O.co2 283  GLU283     -0.2457
    131  OE2       14.4040   -2.2180   26.1490 O.co2 283  GLU283     -0.2457
    132  N         12.0390    5.8690   35.7140 N.3   369  TRP369     -0.1241
    133  CA        12.1860    5.0860   34.4710 C.3   369  TRP369      0.1605
    134  C         13.5750    4.4350   34.2410 C.2   369  TRP369      0.2264
    135  O         13.6580    3.4080   33.5970 O.2   369  TRP369     -0.2867
    136  CB        11.8860    5.9900   33.2860 C.3   369  TRP369      0.0550
    137  CG        10.3910    6.0000   33.0050 C.ar  369  TRP369      0.0003
    138  CD1        9.3770    6.4440   33.8420 C.ar  369  TRP369      0.0946
    139  CD2        9.7530    5.4960   31.8250 C.ar  369  TRP369      0.0152
    140  NE1        8.1500    6.2530   33.2190 N.ar  369  TRP369     -0.2442
    141  CE2        8.3580    5.6770   31.9880 C.ar  369  TRP369      0.0810
    142  CE3       10.2320    4.9120   30.6480 C.ar  369  TRP369      0.0012
    143  CZ2        7.4310    5.2930   31.0050 C.ar  369  TRP369      0.0191
    144  CZ3        9.3170    4.5300   29.6530 C.ar  369  TRP369      0.0001
    145  CH2        7.9170    4.7110   29.8550 C.ar  369  TRP369      0.0015
    146  N          4.9550   12.6630   23.9580 N.3   397  TYR397     -0.1241
    147  CA         3.8010   11.8380   23.6300 C.3   397  TYR397      0.1605
    148  C          2.7800   12.6860   22.9230 C.2   397  TYR397      0.2264
    149  O          2.8510   13.9050   22.9560 O.2   397  TYR397     -0.2867
    150  CB         3.1450   11.3050   24.8840 C.3   397  TYR397      0.0534
    151  CG         4.0230   10.4130   25.7040 C.ar  397  TYR397     -0.0201
    152  CD1        4.3840    9.1310   25.2580 C.ar  397  TYR397     -0.0009
    153  CD2        4.4770   10.8370   26.9420 C.ar  397  TYR397     -0.0009
    154  CE1        5.1850    8.3040   26.0370 C.ar  397  TYR397      0.0417
    155  CE2        5.2760   10.0240   27.7260 C.ar  397  TYR397      0.0417
    156  CZ         5.6230    8.7660   27.2700 C.ar  397  TYR397      0.1957
    157  OH         6.4040    7.9930   28.0890 O.3   397  TYR397     -0.2866
@<TRIPOS>BOND
     1    84    83    1
     2    68    69    1
     3    83    80    1
     4    69    70    1
     5    69    72    1
     6    32    31    2
     7    31    30    1
     8    79    70   am
     9    79    80    1
    10    70    71    2
    11    72    73    1
    12    80    81    1
    13    82    81    2
    14    48    47    2
    15    63    62    2
    16    81    85   am
    17    47    46    1
    18    30    29    1
    19    30    33    1
    20    23    24    1
    21    52    53    1
    22    73    75   ar
    23    73    74   ar
    24    75    77   ar
    25    88    87    2
    26    53    54    1
    27    53    56    1
    28    29    25   am
    29    45    46    1
    30    85    86    1
    31    41    40    2
    32    62    61    1
    33    33    34    1
    34    40    39    1
    35    38    44    1
    36    38    39    1
    37    25    24    1
    38    25    26    2
    39    46    49    1
    40    54    60   am
    41    54    55    2
    42    60    61    1
    43    86    87    1
    44    24    27    1
    45    56    57    1
    46    87    89   am
    47   101    99   ar
    48   101   102   ar
    49    74    76   ar
    50    99    96   ar
    51    77    78   ar
    52    44    43    1
    53    39    42    1
    54    61    64    1
    55    49    50    1
    56    49    51    1
    57    34    35    1
    58   102   100   ar
    59    89    90    1
    60    27    28    1
    61    76    78   ar
    62    57    59   am
    63    57    58    2
    64    64    65    1
    65    93    90    1
    66    93    94    1
    67    36    35    2
    68    96    94   ar
    69    96    98   ar
    70    90    91    1
    71    43    42    1
    72    35    37   am
    73    94    95   ar
    74   100    98   ar
    75    65    66    1
    76    98    97   ar
    77   112   110   ar
    78   112   113   ar
    79   110   108   ar
    80    91   103   am
    81    91    92    2
    82   114   113    1
    83   103   104    1
    84    95    97   ar
    85   113   111   ar
    86    66    67    1
    87   148   149    2
    88   148   147    1
    89   108   107    1
    90   108   109   ar
    91   107   104    1
    92   147   146    1
    93   147   150    1
    94   104   105    1
    95   111   109   ar
    96   106   105    2
    97   105   115   am
    98   150   151    1
    99   152   151   ar
   100   152   154   ar
   101   151   153   ar
   102    22    21    1
   103   130   129   ar
   104   115   116    1
   105   154   156   ar
   106   131   129   ar
   107   129   128    1
   108    21    18    1
   109   153   155   ar
   110   116   117    1
   111   116   119    1
   112   156   155   ar
   113   156   157    1
   114   118   117    2
   115   127   128    1
   116   127   124    1
   117    18    19    1
   118    18    17    1
   119   119   120    1
   120   125   126    2
   121   125   124    1
   122   124   123    1
   123    19    20    2
   124    16    14    1
   125   120   121    1
   126   144   145   ar
   127   144   142   ar
   128    15    14    1
   129   145   143   ar
   130    14    13    1
   131   142   139   ar
   132    13    10    1
   133   121   122    1
   134   143   141   ar
   135    10    11    1
   136    10     9    1
   137     4     3    2
   138   139   141   ar
   139   139   137   ar
   140   141   140   ar
   141     8     7    1
   142    11    12    2
   143     3     9   am
   144     3     2    1
   145     7     6    1
   146   137   136    1
   147   137   138   ar
   148     5     2    1
   149     5     6    1
   150   140   138   ar
   151   136   133    1
   152   135   134    2
   153     2     1    1
   154   134   133    1
   155   133   132    1
