@<TRIPOS>MOLECULE
tmp/4carA02.pdb
 136 133 0 0 0
SMALL
GASTEIGER

@<TRIPOS>ATOM
      1  N         17.3890   11.4310   45.8510 N.3    40  VAL40      -0.1231
      2  CA        17.1010   11.6130   44.4200 C.3    40  VAL40       0.1692
      3  C         18.1940   11.1150   43.4760 C.2    40  VAL40       0.2591
      4  O         17.9120   10.3850   42.5170 O.2    40  VAL40      -0.2718
      5  CB        16.8260   13.1190   44.1080 C.3    40  VAL40       0.0266
      6  CG1       16.5480   13.2980   42.6260 C.3    40  VAL40       0.0020
      7  CG2       15.5900   13.5990   44.9090 C.3    40  VAL40       0.0020
      8  N         19.4400   11.5340   43.7090 N.am   41  LEU41      -0.1980
      9  CA        20.5660   11.1090   42.8630 C.3    41  LEU41       0.1596
     10  C         21.5900   10.4850   43.7860 C.2    41  LEU41       0.2287
     11  O         22.5590   11.1520   44.1310 O.2    41  LEU41      -0.2864
     12  CB        21.2360   12.3200   42.2140 C.3    41  LEU41       0.0297
     13  CG        20.4530   13.2560   41.3070 C.3    41  LEU41       0.0022
     14  CD1       21.2870   14.5000   41.0190 C.3    41  LEU41       0.0001
     15  CD2       20.0610   12.5210   40.0580 C.3    41  LEU41       0.0001
     16  N          8.8970    5.1450   37.0790 N.3   109  CYS109     -0.1235
     17  CA         7.9050    5.4850   36.0740 C.3   109  CYS109      0.1677
     18  C          6.5960    4.7950   36.4010 C.2   109  CYS109      0.2270
     19  O          6.4920    3.5640   36.3430 O.2   109  CYS109     -0.2867
     20  CB         8.3590    4.9990   34.6830 C.3   109  CYS109      0.0956
     21  SG         7.1200    5.3570   33.4490 S.3   109  CYS109     -0.0801
     22  N         14.9330   18.6350   28.7550 N.3   172  GLN172     -0.1245
     23  CA        13.7900   18.1550   27.9420 C.3   172  GLN172      0.1566
     24  C         13.8180   18.9110   26.6310 C.2   172  GLN172      0.2260
     25  O         14.4850   19.9810   26.5630 O.2   172  GLN172     -0.2867
     26  CB        12.4390   18.4380   28.6170 C.3   172  GLN172      0.0367
     27  CG        12.2170   17.7380   29.9530 C.3   172  GLN172      0.0905
     28  CD        10.7620   17.9840   30.4820 C.2   172  GLN172      0.2608
     29  OE1        9.8230   18.2050   29.7180 O.2   172  GLN172     -0.2717
     30  NE2       10.6190   17.9490   31.8130 N.am  172  GLN172     -0.0878
     31  N          5.9600   15.7130   27.0350 N.3   259  PRO259     -0.2116
     32  CA         7.0530   15.5570   27.9550 C.3   259  PRO259      0.1372
     33  C          8.1150   14.6640   27.2900 C.2   259  PRO259      0.2244
     34  O          7.9520   13.4170   27.1490 O.2   259  PRO259     -0.2868
     35  CB         6.3760   14.8960   29.1720 C.3   259  PRO259      0.0268
     36  CG         5.1980   14.1650   28.6080 C.3   259  PRO259      0.0207
     37  CD         4.8980   14.7440   27.2520 C.3   259  PRO259      0.0892
     38  N         11.9900   13.7850   27.4310 N.3   261  VAL261     -0.1245
     39  CA        13.1590   13.8900   28.2910 C.3   261  VAL261      0.1561
     40  C         14.3780   13.5650   27.5000 C.2   261  VAL261      0.2260
     41  O         14.3980   12.5410   26.7630 O.2   261  VAL261     -0.2867
     42  CB        13.0370   12.9000   29.4340 C.3   261  VAL261      0.0252
     43  CG1       14.3400   12.7790   30.2380 C.3   261  VAL261      0.0019
     44  CG2       11.9140   13.3650   30.3330 C.3   261  VAL261      0.0019
     45  N         18.9990   11.9040   29.7190 N.3   264  MET264     -0.1245
     46  CA        19.2990   10.5530   30.2300 C.3   264  MET264      0.1570
     47  C         20.0790    9.6830   29.2930 C.2   264  MET264      0.2261
     48  O         19.9730    9.7650   28.0740 O.2   264  MET264     -0.2867
     49  CB        18.0500    9.8300   30.6680 C.3   264  MET264      0.0387
     50  CG        17.2930   10.5770   31.7840 C.3   264  MET264      0.0595
     51  SD        15.9590    9.6170   32.5530 S.3   264  MET264     -0.1393
     52  CE        16.8800    8.8330   33.8890 C.3   264  MET264      0.0692
     53  N         13.4290   10.6530   24.7780 N.3   278  PHE278     -0.1241
     54  CA        12.1930    9.8600   24.7220 C.3   278  PHE278      0.1605
     55  C         11.0010   10.6630   25.1780 C.2   278  PHE278      0.2264
     56  O         11.1670   11.6280   25.9690 O.2   278  PHE278     -0.2867
     57  CB        12.3750    8.5890   25.5450 C.3   278  PHE278      0.0534
     58  CG        12.6360    8.8130   27.0210 C.ar  278  PHE278     -0.0203
     59  CD1       11.5820    9.0480   27.8980 C.ar  278  PHE278     -0.0042
     60  CD2       13.9080    8.7860   27.5100 C.ar  278  PHE278     -0.0042
     61  CE1       11.7940    9.2750   29.2540 C.ar  278  PHE278     -0.0003
     62  CE2       14.1420    8.9720   28.8900 C.ar  278  PHE278     -0.0003
     63  CZ        13.0800    9.2120   29.7350 C.ar  278  PHE278     -0.0000
     64  N          6.5420   10.4920   26.2880 N.3   280  GLY280     -0.1210
     65  CA         5.2750    9.7970   26.4580 C.3   280  GLY280      0.1956
     66  C          4.1830   10.8590   26.4440 C.2   280  GLY280      0.2612
     67  O          4.1080   11.6410   25.5230 O.2   280  GLY280     -0.2717
     68  N          3.3690   10.8590   27.4690 N.am  281  TRP281     -0.1962
     69  CA         2.4310   11.9360   27.7850 C.3   281  TRP281      0.1771
     70  C          2.4720   12.1710   29.2680 C.2   281  TRP281      0.2620
     71  O          2.9270   11.3280   30.0670 O.2   281  TRP281     -0.2715
     72  CB         1.0170   11.5930   27.2990 C.3   281  TRP281      0.0590
     73  CG         0.4360   10.2890   27.7350 C.ar  281  TRP281      0.0006
     74  CD1       -0.1620   10.0040   28.9410 C.ar  281  TRP281      0.0946
     75  CD2        0.3860    9.0640   26.9550 C.ar  281  TRP281      0.0152
     76  NE1       -0.6120    8.6940   28.9360 N.ar  281  TRP281     -0.2442
     77  CE2       -0.3120    8.1080   27.7240 C.ar  281  TRP281      0.0810
     78  CE3        0.8080    8.7200   25.6650 C.ar  281  TRP281      0.0012
     79  CZ2       -0.5360    6.8050   27.2880 C.ar  281  TRP281      0.0191
     80  CZ3        0.5540    7.3850   25.1990 C.ar  281  TRP281      0.0001
     81  CH2       -0.1200    6.4530   26.0380 C.ar  281  TRP281      0.0015
     82  N          1.8890   13.3010   29.6540 N.am  282  TYR282     -0.1960
     83  CA         1.8970   13.7680   31.0190 C.3   282  TYR282      0.1771
     84  C          0.8770   13.0890   31.9610 C.2   282  TYR282      0.2619
     85  O         -0.2570   12.7950   31.6170 O.2   282  TYR282     -0.2715
     86  CB         1.6570   15.3050   31.0530 C.3   282  TYR282      0.0574
     87  CG         2.9120   16.1470   31.0840 C.ar  282  TYR282     -0.0198
     88  CD1        3.7680   16.1400   32.1730 C.ar  282  TYR282     -0.0009
     89  CD2        3.2280   17.0230   30.0090 C.ar  282  TYR282     -0.0009
     90  CE1        4.9630   16.9180   32.1880 C.ar  282  TYR282      0.0417
     91  CE2        4.3520   17.8560   30.0850 C.ar  282  TYR282      0.0417
     92  CZ         5.1840   17.8380   31.1420 C.ar  282  TYR282      0.1957
     93  OH         6.2880   18.6840   31.1260 O.3   282  TYR282     -0.2866
     94  N          1.3230   12.8630   33.1750 N.am  283  MET283     -0.1977
     95  CA         0.3520   12.6840   34.2650 C.3   283  MET283      0.1605
     96  C          0.1190   14.0630   34.8530 C.2   283  MET283      0.2287
     97  O          1.0430   14.8550   35.0010 O.2   283  MET283     -0.2864
     98  CB         0.8760   11.7650   35.3410 C.3   283  MET283      0.0413
     99  CG        -0.1550   11.5650   36.4920 C.3   283  MET283      0.0598
    100  SD         0.3450   10.1590   37.4860 S.3   283  MET283     -0.1393
    101  CE         1.5330   10.9600   38.5460 C.3   283  MET283      0.0692
    102  N          2.1330   16.1680   37.3980 N.3   286  GLU286     -0.1245
    103  CA         3.4660   16.6780   37.0530 C.3   286  GLU286      0.1567
    104  C          3.3610   18.1970   36.7470 C.2   286  GLU286      0.2260
    105  O          4.2380   19.0000   37.1450 O.2   286  GLU286     -0.2867
    106  CB         4.0590   15.9680   35.8020 C.3   286  GLU286      0.0388
    107  CG         4.3520   14.5250   35.9860 C.3   286  GLU286      0.1160
    108  CD         4.7940   13.8970   34.6630 C.2   286  GLU286      0.3649
    109  OE1        6.0030   13.9970   34.3510 O.co2 286  GLU286     -0.2457
    110  OE2        3.9090   13.3350   33.9690 O.co2 286  GLU286     -0.2457
    111  N          8.3840    7.8690   44.4240 N.3   371  TRP371     -0.1241
    112  CA         8.1940    8.4490   43.0930 C.3   371  TRP371      0.1605
    113  C          6.9230    8.0260   42.4090 C.2   371  TRP371      0.2264
    114  O          6.3160    8.7910   41.6120 O.2   371  TRP371     -0.2867
    115  CB         9.3910    8.1490   42.1820 C.3   371  TRP371      0.0550
    116  CG        10.5040    9.0450   42.3700 C.ar  371  TRP371      0.0003
    117  CD1       11.2710    9.1270   43.4560 C.ar  371  TRP371      0.0946
    118  CD2       11.0640    9.9550   41.4110 C.ar  371  TRP371      0.0152
    119  NE1       12.2120   10.0600   43.3000 N.ar  371  TRP371     -0.2442
    120  CE2       12.1260   10.6060   42.0650 C.ar  371  TRP371      0.0810
    121  CE3       10.7020   10.3580   40.1320 C.ar  371  TRP371      0.0012
    122  CZ2       12.9270   11.5490   41.4600 C.ar  371  TRP371      0.0191
    123  CZ3       11.4800   11.3880   39.5090 C.ar  371  TRP371      0.0001
    124  CH2       12.5700   11.9670   40.2080 C.ar  371  TRP371      0.0015
    125  N         20.9530    8.5460   34.9470 N.3   399  TYR399     -0.1241
    126  CA        21.3250    9.9500   34.9080 C.3   399  TYR399      0.1605
    127  C         22.7410   10.0230   34.4640 C.2   399  TYR399      0.2264
    128  O         23.4470    9.0690   34.6060 O.2   399  TYR399     -0.2867
    129  CB        21.2400   10.5540   36.2960 C.3   399  TYR399      0.0534
    130  CG        19.8170   10.5710   36.8430 C.ar  399  TYR399     -0.0201
    131  CD1       18.7800   11.2600   36.1730 C.ar  399  TYR399     -0.0009
    132  CD2       19.5220    9.9050   38.0250 C.ar  399  TYR399     -0.0009
    133  CE1       17.4770   11.2700   36.7110 C.ar  399  TYR399      0.0417
    134  CE2       18.2480    9.9210   38.5630 C.ar  399  TYR399      0.0417
    135  CZ        17.2270   10.6040   37.9070 C.ar  399  TYR399      0.1957
    136  OH        15.9750   10.5840   38.4730 O.3   399  TYR399     -0.2866
@<TRIPOS>BOND
     1    54    53    1
     2    54    55    1
     3    54    57    1
     4    55    56    2
     5    80    78   ar
     6    80    81   ar
     7    67    66    2
     8    57    58    1
     9    78    75   ar
    10    81    79   ar
    11    64    65    1
    12    66    65    1
    13    66    68   am
    14    25    24    2
    15    24    23    1
    16    41    40    2
    17    75    77   ar
    18    75    73   ar
    19    58    60   ar
    20    58    59   ar
    21    31    37    1
    22    31    32    1
    23    34    33    2
    24    37    36    1
    25    79    77   ar
    26    33    32    1
    27    72    73    1
    28    72    69    1
    29    38    39    1
    30    68    69    1
    31    40    39    1
    32    60    62   ar
    33    77    76   ar
    34    73    74   ar
    35    69    70    1
    36    59    61   ar
    37    23    26    1
    38    23    22    1
    39    32    35    1
    40    48    47    2
    41    39    42    1
    42    36    35    1
    43    26    27    1
    44    62    63   ar
    45    76    74   ar
    46    61    63   ar
    47    70    82   am
    48    70    71    2
    49    47    46    1
    50    42    43    1
    51    42    44    1
    52    82    83    1
    53    29    28    2
    54    45    46    1
    55    27    28    1
    56    89    91   ar
    57    89    87   ar
    58    91    92   ar
    59    46    49    1
    60    28    30   am
    61    49    50    1
    62    83    86    1
    63    83    84    1
    64    86    87    1
    65    87    88   ar
    66    93    92    1
    67    92    90   ar
    68    85    84    2
    69    50    51    1
    70    84    94   am
    71    88    90   ar
    72    51    52    1
    73    94    95    1
    74    21    20    1
    75   110   108   ar
    76    95    96    1
    77    95    98    1
    78   109   108   ar
    79   127   128    2
    80   127   126    1
    81   108   107    1
    82    20    17    1
    83    96    97    2
    84   126   125    1
    85   126   129    1
    86    98    99    1
    87   106   107    1
    88   106   103    1
    89    17    18    1
    90    17    16    1
    91   131   133   ar
    92   131   130   ar
    93   129   130    1
    94    19    18    2
    95    99   100    1
    96   133   135   ar
    97   104   103    1
    98   104   105    2
    99   130   132   ar
   100   103   102    1
   101   100   101    1
   102   135   136    1
   103   135   134   ar
   104   132   134   ar
   105   123   121   ar
   106   123   124   ar
   107    15    13    1
   108   121   118   ar
   109   124   122   ar
   110    14    13    1
   111    13    12    1
   112   118   120   ar
   113   118   116   ar
   114   122   120   ar
   115   114   113    2
   116   120   119   ar
   117   115   116    1
   118   115   112    1
   119    12     9    1
   120   116   117   ar
   121   113   112    1
   122     4     3    2
   123     6     5    1
   124     9     8    1
   125     9    10    1
   126   112   111    1
   127   119   117   ar
   128     3     8   am
   129     3     2    1
   130    10    11    2
   131     5     2    1
   132     5     7    1
   133     2     1    1
