@<TRIPOS>MOLECULE
tmp/4casC10.pdb
 163 159 0 0 0
SMALL
GASTEIGER

@<TRIPOS>ATOM
      1  N         -0.5810   13.9250  -41.7650 N.3   212  LEU212     -0.1231
      2  CA        -0.9480   12.7300  -40.9950 C.3   212  LEU212      0.1693
      3  C         -0.5920   12.9100  -39.5080 C.2   212  LEU212      0.2591
      4  O         -1.4450   12.7200  -38.6130 O.2   212  LEU212     -0.2718
      5  CB        -0.2280   11.4990  -41.5730 C.3   212  LEU212      0.0284
      6  CG        -0.7790   10.1100  -41.2420 C.3   212  LEU212      0.0019
      7  CD1       -0.0240    9.0620  -42.0470 C.3   212  LEU212      0.0001
      8  CD2       -0.6690    9.7630  -39.7680 C.3   212  LEU212      0.0001
      9  N          0.6690   13.2840  -39.2620 N.am  213  LEU213     -0.1980
     10  CA         1.1840   13.3820  -37.9090 C.3   213  LEU213      0.1596
     11  C          0.5120   14.4840  -37.0880 C.2   213  LEU213      0.2287
     12  O          0.3050   14.2880  -35.8980 O.2   213  LEU213     -0.2864
     13  CB         2.7070   13.5610  -37.9100 C.3   213  LEU213      0.0297
     14  CG         3.5340   12.2690  -37.9330 C.3   213  LEU213      0.0022
     15  CD1        5.0210   12.5420  -38.1520 C.3   213  LEU213      0.0001
     16  CD2        3.3250   11.4990  -36.6310 C.3   213  LEU213      0.0001
     17  N         -3.1210   13.2740  -36.4080 N.3   216  ALA216     -0.1231
     18  CA        -3.0230   12.2270  -35.3710 C.3   216  ALA216      0.1694
     19  C         -2.6050   12.7460  -33.9700 C.2   216  ALA216      0.2592
     20  O         -3.2530   12.4290  -32.9690 O.2   216  ALA216     -0.2718
     21  CB        -2.0930   11.1070  -35.8320 C.3   216  ALA216      0.0304
     22  N         -1.5460   13.5550  -33.9210 N.am  217  HIS217     -0.1976
     23  CA        -1.0410   14.1300  -32.6780 C.3   217  HIS217      0.1656
     24  C         -1.9990   15.1400  -32.0780 C.2   217  HIS217      0.2291
     25  O         -2.2440   15.1120  -30.8760 O.2   217  HIS217     -0.2864
     26  CB         0.2920   14.8280  -32.9120 C.3   217  HIS217      0.0771
     27  CG         0.8430   15.4930  -31.6930 C.ar  217  HIS217      0.0820
     28  ND1        1.0750   14.8010  -30.5230 N.ar  217  HIS217     -0.2267
     29  CD2        1.2220   16.7750  -31.4560 C.ar  217  HIS217      0.1154
     30  CE1        1.5540   15.6290  -29.6110 C.ar  217  HIS217      0.1986
     31  NE2        1.6610   16.8320  -30.1540 N.ar  217  HIS217     -0.2212
     32  N         -4.9940   13.3310  -30.8550 N.3   220  THR220     -0.1203
     33  CA        -4.6500   12.5370  -29.6770 C.3   220  THR220      0.1994
     34  C         -4.5950   13.3920  -28.4140 C.2   220  THR220      0.2617
     35  O         -5.1780   13.0180  -27.3910 O.2   220  THR220     -0.2717
     36  CB        -3.3260   11.7600  -29.8650 C.3   220  THR220      0.1784
     37  OG1       -3.4970   10.7830  -30.9030 O.3   220  THR220     -0.2211
     38  CG2       -2.9010   11.0300  -28.5660 C.3   220  THR220      0.0376
     39  N         -3.9040   14.5280  -28.4830 N.am  221  ILE221     -0.1979
     40  CA        -3.8040   15.4240  -27.3200 C.3   221  ILE221      0.1595
     41  C         -5.1880   15.9570  -26.9220 C.2   221  ILE221      0.2287
     42  O         -5.4920   16.0200  -25.7360 O.2   221  ILE221     -0.2864
     43  CB        -2.7820   16.5800  -27.5380 C.3   221  ILE221      0.0276
     44  CG1       -1.3460   16.0250  -27.6380 C.3   221  ILE221      0.0022
     45  CG2       -2.8630   17.6180  -26.4280 C.3   221  ILE221      0.0022
     46  CD1       -0.9250   15.0980  -26.5130 C.3   221  ILE221      0.0001
     47  N         -0.6480   10.5740  -21.1950 N.3   243  VAL243     -0.1245
     48  CA         0.2870   10.0540  -22.1970 C.3   243  VAL243      0.1561
     49  C          0.4580    8.5250  -22.1370 C.2   243  VAL243      0.2260
     50  O          0.9510    7.8990  -23.0850 O.2   243  VAL243     -0.2867
     51  CB         1.6480   10.7760  -22.1260 C.3   243  VAL243      0.0252
     52  CG1        1.4540   12.2760  -22.2460 C.3   243  VAL243      0.0019
     53  CG2        2.3920   10.4540  -20.8500 C.3   243  VAL243      0.0019
     54  N         -2.5150    7.7010  -24.3270 N.3   246  ALA246     -0.1231
     55  CA        -2.1280    8.1040  -25.6780 C.3   246  ALA246      0.1694
     56  C         -1.2310    7.0440  -26.3310 C.2   246  ALA246      0.2591
     57  O         -1.5010    6.5880  -27.4520 O.2   246  ALA246     -0.2718
     58  CB        -1.4260    9.4560  -25.6540 C.3   246  ALA246      0.0304
     59  N         -0.1840    6.6450  -25.6080 N.am  247  ALA247     -0.1980
     60  CA         0.7350    5.6000  -26.0720 C.3   247  ALA247      0.1597
     61  C         -0.0040    4.2780  -26.3490 C.2   247  ALA247      0.2287
     62  O          0.2340    3.6290  -27.3740 O.2   247  ALA247     -0.2864
     63  CB         1.8480    5.3900  -25.0520 C.3   247  ALA247      0.0319
     64  N         -2.2820    4.0780  -29.5290 N.3   250  TRP250     -0.1241
     65  CA        -1.5110    3.7970  -30.7370 C.3   250  TRP250      0.1605
     66  C         -0.8980    2.4080  -30.7360 C.2   250  TRP250      0.2264
     67  O         -0.8600    1.7520  -31.7800 O.2   250  TRP250     -0.2867
     68  CB        -0.4630    4.8890  -30.9600 C.3   250  TRP250      0.0550
     69  CG        -1.1380    6.1660  -31.3280 C.ar  250  TRP250      0.0003
     70  CD1       -1.2870    7.2750  -30.5530 C.ar  250  TRP250      0.0946
     71  CD2       -1.8320    6.4290  -32.5500 C.ar  250  TRP250      0.0152
     72  NE1       -2.0080    8.2200  -31.2260 N.ar  250  TRP250     -0.2442
     73  CE2       -2.3550    7.7250  -32.4580 C.ar  250  TRP250      0.0810
     74  CE3       -2.0470    5.6910  -33.7250 C.ar  250  TRP250      0.0012
     75  CZ2       -3.0720    8.3150  -33.5050 C.ar  250  TRP250      0.0191
     76  CZ3       -2.7660    6.2670  -34.7560 C.ar  250  TRP250      0.0001
     77  CH2       -3.2680    7.5640  -34.6430 C.ar  250  TRP250      0.0015
     78  N         -3.5370    0.0710  -31.7100 N.3   253  THR253     -0.1203
     79  CA        -3.9940    0.2790  -33.0760 C.3   253  THR253      0.1994
     80  C         -2.9640   -0.2350  -34.0910 C.2   253  THR253      0.2617
     81  O         -3.2970   -1.0570  -34.9450 O.2   253  THR253     -0.2717
     82  CB        -4.3250    1.7650  -33.3410 C.3   253  THR253      0.1784
     83  OG1       -5.3140    2.2180  -32.4090 O.3   253  THR253     -0.2211
     84  CG2       -4.8750    1.9590  -34.7410 C.3   253  THR253      0.0376
     85  N         -1.7210    0.2350  -33.9950 N.am  254  ILE254     -0.1979
     86  CA        -0.6860   -0.0950  -34.9900 C.3   254  ILE254      0.1595
     87  C          0.4220   -1.0230  -34.4720 C.2   254  ILE254      0.2287
     88  O          1.3390   -1.3560  -35.2100 O.2   254  ILE254     -0.2864
     89  CB        -0.0650    1.1780  -35.6190 C.3   254  ILE254      0.0276
     90  CG1        0.5610    2.0790  -34.5480 C.3   254  ILE254      0.0022
     91  CG2       -1.1280    1.9340  -36.4120 C.3   254  ILE254      0.0022
     92  CD1        1.3220    3.2610  -35.0940 C.3   254  ILE254      0.0001
     93  N          2.6840   -0.5540  -32.1060 N.3   256  PHE256     -0.1227
     94  CA         3.8180    0.1470  -31.5100 C.3   256  PHE256      0.1736
     95  C          3.4120    1.5890  -31.2040 C.2   256  PHE256      0.2595
     96  O          2.3090    2.0120  -31.5440 O.2   256  PHE256     -0.2718
     97  CB         5.0500    0.0670  -32.4370 C.3   256  PHE256      0.0547
     98  CG         4.9020    0.8080  -33.7280 C.ar  256  PHE256     -0.0202
     99  CD1        4.0790    0.3290  -34.7280 C.ar  256  PHE256     -0.0042
    100  CD2        5.5960    1.9840  -33.9440 C.ar  256  PHE256     -0.0042
    101  CE1        3.9320    1.0200  -35.9170 C.ar  256  PHE256     -0.0003
    102  CE2        5.4570    2.6830  -35.1340 C.ar  256  PHE256     -0.0003
    103  CZ         4.6260    2.1980  -36.1250 C.ar  256  PHE256     -0.0000
    104  N          4.2840    2.3450  -30.5490 N.am  257  ASN257     -0.1960
    105  CA         3.9390    3.7110  -30.1560 C.3   257  ASN257      0.1819
    106  C          5.1670    4.5630  -29.8780 C.2   257  ASN257      0.2621
    107  O          6.2800    4.0440  -29.8400 O.2   257  ASN257     -0.2715
    108  CB         3.0480    3.6710  -28.9180 C.3   257  ASN257      0.1195
    109  CG         3.7130    2.9590  -27.7480 C.2   257  ASN257      0.2630
    110  OD1        3.5430    1.7390  -27.5610 O.2   257  ASN257     -0.2716
    111  ND2        4.4950    3.7090  -26.9640 N.am  257  ASN257     -0.0877
    112  N          4.9520    5.8650  -29.6900 N.am  258  ALA258     -0.1963
    113  CA         6.0150    6.7970  -29.3300 C.3   258  ALA258      0.1728
    114  C          5.9030    7.1680  -27.8510 C.2   258  ALA258      0.2617
    115  O          5.1360    6.5620  -27.0940 O.2   258  ALA258     -0.2715
    116  CB         5.9100    8.0370  -30.1890 C.3   258  ALA258      0.0334
    117  N          6.6990    8.1420  -27.4300 N.am  259  THR259     -0.1937
    118  CA         6.4940    8.7910  -26.1360 C.3   259  THR259      0.2028
    119  C          6.0320   10.2070  -26.4220 C.2   259  THR259      0.2642
    120  O          6.0660   10.6580  -27.5680 O.2   259  THR259     -0.2714
    121  CB         7.7760    8.8380  -25.2800 C.3   259  THR259      0.1808
    122  OG1        8.7670    9.6130  -25.9660 O.3   259  THR259     -0.2208
    123  CG2        8.3050    7.4370  -25.0030 C.3   259  THR259      0.0379
    124  N          5.5970   10.9000  -25.3780 N.am  260  ILE260     -0.1977
    125  CA         5.1250   12.2640  -25.5220 C.3   260  ILE260      0.1596
    126  C          6.2750   13.1750  -25.9970 C.2   260  ILE260      0.2287
    127  O          6.0380   14.1090  -26.7760 O.2   260  ILE260     -0.2864
    128  CB         4.4370   12.7730  -24.2280 C.3   260  ILE260      0.0276
    129  CG1        3.7620   14.1330  -24.4530 C.3   260  ILE260      0.0022
    130  CG2        5.4210   12.8610  -23.0660 C.3   260  ILE260      0.0022
    131  CD1        2.7510   14.1650  -25.5800 C.3   260  ILE260      0.0001
    132  N          7.3310   11.7310  -30.0560 N.3   263  VAL263     -0.1245
    133  CA         6.3980   12.0820  -31.1270 C.3   263  VAL263      0.1561
    134  C          6.7230   13.4630  -31.6980 C.2   263  VAL263      0.2260
    135  O          6.5120   13.7110  -32.8960 O.2   263  VAL263     -0.2867
    136  CB         4.9060   12.0290  -30.6750 C.3   263  VAL263      0.0252
    137  CG1        4.5810   13.0540  -29.5760 C.3   263  VAL263      0.0019
    138  CG2        3.9760   12.2190  -31.8730 C.3   263  VAL263      0.0019
    139  N          9.5810   12.9530  -34.1100 N.3   266  TRP266     -0.1241
    140  CA         9.0080   12.4950  -35.3860 C.3   266  TRP266      0.1605
    141  C          8.4950   13.6740  -36.2200 C.2   266  TRP266      0.2264
    142  O          8.8480   13.8270  -37.3940 O.2   266  TRP266     -0.2867
    143  CB         7.8600   11.5180  -35.1450 C.3   266  TRP266      0.0550
    144  CG         8.2730   10.1000  -34.7860 C.ar  266  TRP266      0.0003
    145  CD1        8.4490    9.5850  -33.5340 C.ar  266  TRP266      0.0946
    146  CD2        8.5030    9.0140  -35.6960 C.ar  266  TRP266      0.0152
    147  NE1        8.7990    8.2530  -33.6100 N.ar  266  TRP266     -0.2442
    148  CE2        8.8290    7.8770  -34.9230 C.ar  266  TRP266      0.0810
    149  CE3        8.4590    8.8930  -37.0860 C.ar  266  TRP266      0.0012
    150  CZ2        9.1130    6.6450  -35.4900 C.ar  266  TRP266      0.0191
    151  CZ3        8.7310    7.6640  -37.6520 C.ar  266  TRP266      0.0001
    152  CH2        9.0540    6.5530  -36.8540 C.ar  266  TRP266      0.0015
    153  N         10.0380   14.9510  -39.7380 N.3   270  PHE270     -0.1241
    154  CA         9.2040   14.9740  -40.9570 C.3   270  PHE270      0.1605
    155  C          9.1670   16.3420  -41.6200 C.2   270  PHE270      0.2264
    156  O          9.3130   16.4660  -42.8470 O.2   270  PHE270     -0.2867
    157  CB         7.7820   14.5190  -40.6250 C.3   270  PHE270      0.0534
    158  CG         7.5760   13.0540  -40.8150 C.ar  270  PHE270     -0.0203
    159  CD1        8.3540   12.1360  -40.1070 C.ar  270  PHE270     -0.0042
    160  CD2        6.6310   12.5930  -41.7180 C.ar  270  PHE270     -0.0042
    161  CE1        8.1880   10.7870  -40.2710 C.ar  270  PHE270     -0.0003
    162  CE2        6.4560   11.2400  -41.8950 C.ar  270  PHE270     -0.0003
    163  CZ         7.2410   10.3360  -41.1670 C.ar  270  PHE270     -0.0000
@<TRIPOS>BOND
     1   156   155    2
     2     7     6    1
     3   162   160   ar
     4   162   163   ar
     5     1     2    1
     6   160   158   ar
     7   155   154    1
     8     5     6    1
     9     5     2    1
    10     6     8    1
    11   163   161   ar
    12     2     3    1
    13   154   157    1
    14   154   153    1
    15   158   157    1
    16   158   159   ar
    17   161   159   ar
    18     3     9   am
    19     3     4    2
    20     9    10    1
    21    15    14    1
    22    14    13    1
    23    14    16    1
    24    13    10    1
    25    10    11    1
    26   151   149   ar
    27   151   152   ar
    28   142   141    2
    29    11    12    2
    30   149   146   ar
    31   152   150   ar
    32    91    89    1
    33    17    18    1
    34   141   140    1
    35   103   101   ar
    36   103   102   ar
    37   101    99   ar
    38    21    18    1
    39   146   148   ar
    40   146   144   ar
    41    89    86    1
    42    89    90    1
    43   150   148   ar
    44   140   143    1
    45   140   139    1
    46    18    19    1
    47    88    87    2
    48   143   144    1
    49   102   100   ar
    50    92    90    1
    51    86    87    1
    52    86    85    1
    53    81    80    2
    54   148   147   ar
    55   144   145   ar
    56    76    77   ar
    57    76    74   ar
    58    84    82    1
    59    99    98   ar
    60    77    75   ar
    61    80    85   am
    62    80    79    1
    63    19    22   am
    64    19    20    2
    65   100    98   ar
    66    22    23    1
    67    98    97    1
    68    74    71   ar
    69   147   145   ar
    70    75    73   ar
    71    82    79    1
    72    82    83    1
    73    79    78    1
    74    26    23    1
    75    26    27    1
    76   135   134    2
    77    23    24    1
    78    71    73   ar
    79    71    69   ar
    80    73    72   ar
    81    97    94    1
    82    93    94    1
    83    24    25    2
    84   138   136    1
    85    67    66    2
    86   134   133    1
    87    27    29   ar
    88    27    28   ar
    89    96    95    2
    90    94    95    1
    91    29    31   ar
    92    69    68    1
    93    69    70   ar
    94    72    70   ar
    95    95   104   am
    96   133   136    1
    97   133   132    1
    98    68    65    1
    99    37    36    1
   100    32    33    1
   101    65    66    1
   102    65    64    1
   103   136   137    1
   104   104   105    1
   105    28    30   ar
   106   116   113    1
   107   105   106    1
   108   105   108    1
   109    31    30   ar
   110   106   107    2
   111   106   112   am
   112    36    33    1
   113    36    38    1
   114   112   113    1
   115    33    34    1
   116   113   114    1
   117   108   109    1
   118    39    34   am
   119    39    40    1
   120    34    35    2
   121   114   117   am
   122   114   115    2
   123   109   110    2
   124   109   111   am
   125    44    43    1
   126    44    46    1
   127   120   119    2
   128    43    40    1
   129    43    45    1
   130    57    56    2
   131   117   118    1
   132    62    61    2
   133    40    41    1
   134    41    42    2
   135   127   126    2
   136   119   118    1
   137   119   124   am
   138    61    60    1
   139    56    55    1
   140    56    59   am
   141   118   121    1
   142    60    59    1
   143    60    63    1
   144   126   125    1
   145   122   121    1
   146    55    58    1
   147    55    54    1
   148   131   129    1
   149   125   124    1
   150   125   128    1
   151   121   123    1
   152   129   128    1
   153   128   130    1
   154    50    49    2
   155    52    51    1
   156    48    49    1
   157    48    51    1
   158    48    47    1
   159    51    53    1
