@<TRIPOS>MOLECULE
tmp/4casC09.pdb
 144 135 0 0 0
SMALL
GASTEIGER

@<TRIPOS>ATOM
      1  N         15.6450   42.7660  -40.2850 N.3    58  ALA58      -0.1231
      2  CA        14.7520   41.9610  -41.1100 C.3    58  ALA58       0.1694
      3  C         13.7020   42.8370  -41.7980 C.2    58  ALA58       0.2592
      4  O         13.5280   42.7380  -43.0130 O.2    58  ALA58      -0.2718
      5  CB        14.0870   40.8610  -40.2750 C.3    58  ALA58       0.0304
      6  N         13.0360   43.6950  -41.0190 N.am   59  PHE59      -0.1976
      7  CA        11.9870   44.5940  -41.5300 C.3    59  PHE59       0.1639
      8  C         12.5650   45.5790  -42.5340 C.2    59  PHE59       0.2290
      9  O         11.9280   45.8880  -43.5300 O.2    59  PHE59      -0.2864
     10  CB        11.3090   45.4060  -40.3970 C.3    59  PHE59       0.0560
     11  CG        10.0940   44.7530  -39.7890 C.ar   59  PHE59      -0.0200
     12  CD1       10.1890   43.5010  -39.1570 C.ar   59  PHE59      -0.0042
     13  CD2        8.8570   45.3930  -39.8140 C.ar   59  PHE59      -0.0042
     14  CE1        9.0760   42.8860  -38.5830 C.ar   59  PHE59      -0.0003
     15  CE2        7.7380   44.7940  -39.2380 C.ar   59  PHE59      -0.0003
     16  CZ         7.8450   43.5420  -38.6260 C.ar   59  PHE59      -0.0000
     17  N         13.6790   43.4900  -45.6670 N.3    62  GLY62      -0.1210
     18  CA        12.4920   42.8600  -46.2460 C.3    62  GLY62       0.1956
     19  C         11.5490   43.8490  -46.8790 C.2    62  GLY62       0.2612
     20  O         11.0050   43.5970  -47.9650 O.2    62  GLY62      -0.2717
     21  N         11.3530   44.9780  -46.2020 N.am   63  SER63      -0.1952
     22  CA        10.5370   46.0570  -46.7330 C.3    63  SER63       0.1924
     23  C         11.1550   46.6170  -47.9920 C.2    63  SER63       0.2314
     24  O         10.4250   46.9720  -48.9010 O.2    63  SER63      -0.2863
     25  CB        10.3600   47.1630  -45.7120 C.3    63  SER63       0.2116
     26  OG         9.6810   46.6820  -44.5700 O.3    63  SER63      -0.2180
     27  N         10.3580   44.1880  -50.8080 N.3    66  ILE66      -0.1231
     28  CA         8.9410   44.3220  -51.1460 C.3    66  ILE66       0.1692
     29  C          8.6590   45.6340  -51.9080 C.2    66  ILE66       0.2591
     30  O          7.8710   45.6710  -52.8560 O.2    66  ILE66      -0.2718
     31  CB         8.0480   44.1960  -49.8950 C.3    66  ILE66       0.0266
     32  CG1        8.1470   42.7730  -49.3180 C.3    66  ILE66       0.0019
     33  CG2        6.5910   44.4830  -50.2450 C.3    66  ILE66       0.0020
     34  CD1        7.6590   42.6560  -47.8850 C.3    66  ILE66       0.0001
     35  N          9.3180   46.7070  -51.4990 N.am   67  LEU67      -0.1980
     36  CA         9.1980   47.9900  -52.1880 C.3    67  LEU67       0.1596
     37  C          9.6890   47.9110  -53.6270 C.2    67  LEU67       0.2287
     38  O          9.0450   48.4380  -54.5280 O.2    67  LEU67      -0.2864
     39  CB         9.9820   49.0670  -51.4330 C.3    67  LEU67       0.0297
     40  CG         9.9180   50.4970  -51.9260 C.3    67  LEU67       0.0022
     41  CD1        8.4800   50.9220  -52.1590 C.3    67  LEU67       0.0001
     42  CD2       10.5960   51.3930  -50.8970 C.3    67  LEU67       0.0001
     43  N          6.9730   45.7840  -55.5610 N.3    70  LEU70      -0.1245
     44  CA         5.7180   46.5220  -55.7680 C.3    70  LEU70       0.1561
     45  C          5.8510   47.6510  -56.7670 C.2    70  LEU70       0.2260
     46  O          4.9540   47.8850  -57.5640 O.2    70  LEU70      -0.2867
     47  CB         5.2070   47.0830  -54.4410 C.3    70  LEU70       0.0270
     48  CG         4.6080   46.0960  -53.4310 C.3    70  LEU70       0.0019
     49  CD1        4.3200   46.8640  -52.1480 C.3    70  LEU70       0.0001
     50  CD2        3.3630   45.3830  -53.9760 C.3    70  LEU70       0.0001
     51  N         17.0710   39.7500  -45.4030 N.3   123  SER123     -0.1202
     52  CA        15.9310   39.7570  -44.5010 C.3   123  SER123      0.2020
     53  C         15.7660   38.3890  -43.8060 C.2   123  SER123      0.2618
     54  O         15.5250   38.3180  -42.5900 O.2   123  SER123     -0.2717
     55  CB        14.6590   40.0940  -45.2780 C.3   123  SER123      0.2103
     56  OG        13.5820   40.3940  -44.4050 O.3   123  SER123     -0.2182
     57  N         15.8850   37.3110  -44.5870 N.am  124  LEU124     -0.1979
     58  CA        15.7120   35.9420  -44.0690 C.3   124  LEU124      0.1596
     59  C         16.8110   35.5980  -43.0600 C.2   124  LEU124      0.2287
     60  O         16.5370   35.0150  -42.0030 O.2   124  LEU124     -0.2864
     61  CB        15.7050   34.9060  -45.2200 C.3   124  LEU124      0.0297
     62  CG        14.6100   35.0020  -46.2980 C.3   124  LEU124      0.0022
     63  CD1       14.8320   33.9960  -47.4200 C.3   124  LEU124      0.0001
     64  CD2       13.2190   34.8380  -45.6930 C.3   124  LEU124      0.0001
     65  N         16.1410   37.4310  -39.8350 N.3   127  TRP127     -0.1241
     66  CA        15.0810   36.7860  -39.0450 C.3   127  TRP127      0.1605
     67  C         15.5630   35.4820  -38.3970 C.2   127  TRP127      0.2264
     68  O         15.1280   35.1290  -37.2980 O.2   127  TRP127     -0.2867
     69  CB        13.8230   36.5480  -39.8880 C.3   127  TRP127      0.0550
     70  CG        12.6090   36.3090  -39.0470 C.ar  127  TRP127      0.0003
     71  CD1       12.0520   35.1070  -38.7540 C.ar  127  TRP127      0.0946
     72  CD2       11.8170   37.2960  -38.3680 C.ar  127  TRP127      0.0152
     73  NE1       10.9600   35.2730  -37.9460 N.ar  127  TRP127     -0.2442
     74  CE2       10.7880   36.6070  -37.6910 C.ar  127  TRP127      0.0810
     75  CE3       11.8710   38.7000  -38.2710 C.ar  127  TRP127      0.0012
     76  CZ2        9.8040   37.2700  -36.9110 C.ar  127  TRP127      0.0191
     77  CZ3       10.8700   39.3760  -37.4880 C.ar  127  TRP127      0.0001
     78  CH2        9.8640   38.6430  -36.8180 C.ar  127  TRP127      0.0015
     79  N         15.2970   34.2470  -34.4880 N.3   131  VAL131     -0.1245
     80  CA        14.7140   32.9570  -34.0800 C.3   131  VAL131      0.1561
     81  C         15.7060   32.1250  -33.2570 C.2   131  VAL131      0.2260
     82  O         15.3280   31.4780  -32.2800 O.2   131  VAL131     -0.2867
     83  CB        14.2290   32.1670  -35.3180 C.3   131  VAL131      0.0252
     84  CG1       13.9940   30.6990  -34.9600 C.3   131  VAL131      0.0019
     85  CG2       12.9850   32.8240  -35.9170 C.3   131  VAL131      0.0019
     86  N         13.9990   24.9660  -33.3290 N.3   144  ILE144     -0.1245
     87  CA        13.2180   25.7240  -34.3010 C.3   144  ILE144      0.1561
     88  C         14.1390   26.4060  -35.3130 C.2   144  ILE144      0.2260
     89  O         13.8660   26.3680  -36.5260 O.2   144  ILE144     -0.2867
     90  CB        12.2900   26.7800  -33.6480 C.3   144  ILE144      0.0252
     91  CG1       11.3290   26.1250  -32.6470 C.3   144  ILE144      0.0019
     92  CG2       11.5050   27.5310  -34.7280 C.3   144  ILE144      0.0019
     93  CD1       10.6140   27.1180  -31.7540 C.3   144  ILE144      0.0001
     94  N         15.3860   23.9590  -37.9900 N.3   147  ASN147     -0.1225
     95  CA        14.3080   23.6390  -38.9240 C.3   147  ASN147      0.1785
     96  C         14.0990   24.8020  -39.9190 C.2   147  ASN147      0.2597
     97  O         13.9700   24.6100  -41.1390 O.2   147  ASN147     -0.2718
     98  CB        13.0250   23.3300  -38.1350 C.3   147  ASN147      0.1169
     99  CG        11.9370   22.7310  -39.0030 C.2   147  ASN147      0.2627
    100  OD1       11.4770   23.3550  -39.9550 O.2   147  ASN147     -0.2716
    101  ND2       11.5230   21.5190  -38.6830 N.am  147  ASN147     -0.0877
    102  N         14.0890   26.0070  -39.3640 N.am  148  PHE148     -0.1976
    103  CA        13.9850   27.2400  -40.1340 C.3   148  PHE148      0.1639
    104  C         15.1400   27.3810  -41.1610 C.2   148  PHE148      0.2290
    105  O         14.9370   27.8010  -42.3130 O.2   148  PHE148     -0.2864
    106  CB        13.9330   28.4310  -39.1390 C.3   148  PHE148      0.0560
    107  CG        13.6350   29.7610  -39.7730 C.ar  148  PHE148     -0.0200
    108  CD1       12.7470   29.8690  -40.8330 C.ar  148  PHE148     -0.0042
    109  CD2       14.2240   30.9140  -39.2850 C.ar  148  PHE148     -0.0042
    110  CE1       12.4830   31.0930  -41.4060 C.ar  148  PHE148     -0.0003
    111  CE2       13.9550   32.1410  -39.8560 C.ar  148  PHE148     -0.0003
    112  CZ        13.0840   32.2320  -40.9160 C.ar  148  PHE148     -0.0000
    113  N         14.4930   25.4190  -44.3180 N.3   151  ALA151     -0.1245
    114  CA        13.5420   26.1240  -45.1760 C.3   151  ALA151      0.1562
    115  C         14.2350   27.2640  -45.9400 C.2   151  ALA151      0.2260
    116  O         14.0780   27.4040  -47.1600 O.2   151  ALA151     -0.2867
    117  CB        12.3800   26.6500  -44.3550 C.3   151  ALA151      0.0290
    118  N          3.4670   15.1160  -42.6290 N.3   210  CYS210     -0.1235
    119  CA         3.2360   16.1370  -41.5990 C.3   210  CYS210      0.1677
    120  C          1.7330   16.3430  -41.3580 C.2   210  CYS210      0.2270
    121  O          1.2980   16.6150  -40.2260 O.2   210  CYS210     -0.2867
    122  CB         3.8970   17.4690  -41.9710 C.3   210  CYS210      0.0956
    123  SG         5.7060   17.4530  -41.9230 S.3   210  CYS210     -0.0801
    124  N          8.9740   17.3610  -40.7840 N.3   271  SER271     -0.1217
    125  CA         8.9810   18.7410  -41.2290 C.3   271  SER271      0.1889
    126  C         10.3050   19.0480  -41.9090 C.2   271  SER271      0.2288
    127  O         10.3400   19.4380  -43.0880 O.2   271  SER271     -0.2866
    128  CB         8.7530   19.6870  -40.0600 C.3   271  SER271      0.2089
    129  OG         8.6620   21.0050  -40.5470 O.3   271  SER271     -0.2183
    130  N         10.9530   17.4560  -45.4420 N.3   274  VAL274     -0.1231
    131  CA        10.2770   18.0480  -46.6090 C.3   274  VAL274      0.1692
    132  C         11.2600   18.9850  -47.3310 C.2   274  VAL274      0.2591
    133  O         11.3670   18.9580  -48.5430 O.2   274  VAL274     -0.2718
    134  CB         9.0400   18.8790  -46.2110 C.3   274  VAL274      0.0266
    135  CG1        8.4530   19.5800  -47.4390 C.3   274  VAL274      0.0020
    136  CG2        7.9970   18.0170  -45.5210 C.3   274  VAL274      0.0020
    137  N         11.9790   19.7910  -46.5480 N.am  275  MET275     -0.1979
    138  CA        12.9590   20.7670  -47.0540 C.3   275  MET275      0.1605
    139  C         14.3080   20.1560  -47.4260 C.2   275  MET275      0.2287
    140  O         14.9220   20.5630  -48.4100 O.2   275  MET275     -0.2864
    141  CB        13.1950   21.9020  -46.0300 C.3   275  MET275      0.0413
    142  CG        11.9750   22.7880  -45.7860 C.3   275  MET275      0.0598
    143  SD        11.5580   23.8200  -47.2010 S.3   275  MET275     -0.1393
    144  CE        10.3230   22.8310  -48.0460 C.3   275  MET275      0.0692
@<TRIPOS>BOND
     1    46    45    2
     2    45    44    1
     3    44    43    1
     4    44    47    1
     5    38    37    2
     6    47    48    1
     7    50    48    1
     8    37    36    1
     9    48    49    1
    10    30    29    2
    11    36    35    1
    12    36    39    1
    13    41    40    1
    14    40    39    1
    15    40    42    1
    16    29    35   am
    17    29    28    1
    18    28    27    1
    19    28    31    1
    20    33    31    1
    21    31    32    1
    22    32    34    1
    23    24    23    2
    24   133   132    2
    25   140   139    2
    26   144   143    1
    27    23    22    1
    28    20    19    2
    29   135   134    1
    30   139   138    1
    31    63    62    1
    32   132   131    1
    33   132   137   am
    34   143   142    1
    35   116   115    2
    36   138   137    1
    37   138   141    1
    38    19    18    1
    39    19    21   am
    40    22    21    1
    41    22    25    1
    42   131   134    1
    43   131   130    1
    44    62    64    1
    45    62    61    1
    46    18    17    1
    47   134   136    1
    48   141   142    1
    49   115   114    1
    50    25    26    1
    51    51    52    1
    52    55    52    1
    53    55    56    1
    54    61    58    1
    55   114   117    1
    56   114   113    1
    57    57    58    1
    58    57    53   am
    59    52    53    1
    60    58    59    1
    61    53    54    2
    62     9     8    2
    63   127   126    2
    64    59    60    2
    65     4     3    2
    66   118   119    1
    67     8     7    1
    68   105   104    2
    69   122   123    1
    70   122   119    1
    71   126   125    1
    72     3     2    1
    73     3     6   am
    74   119   120    1
    75     7     6    1
    76     7    10    1
    77   110   112   ar
    78   110   108   ar
    79   120   121    2
    80   125   124    1
    81   125   128    1
    82   104   103    1
    83    97    96    2
    84     2     1    1
    85     2     5    1
    86   112   111   ar
    87   108   107   ar
    88   129   128    1
    89    10    11    1
    90   103   102    1
    91   103   106    1
    92   100    99    2
    93    96   102   am
    94    96    95    1
    95    69    70    1
    96    69    66    1
    97   111   109   ar
    98    65    66    1
    99    13    11   ar
   100    13    15   ar
   101    11    12   ar
   102   107   109   ar
   103   107   106    1
   104    15    16   ar
   105    12    14   ar
   106    70    71   ar
   107    70    72   ar
   108    66    67    1
   109    99   101   am
   110    99    98    1
   111    95    98    1
   112    95    94    1
   113    71    73   ar
   114    16    14   ar
   115    67    68    2
   116    72    75   ar
   117    72    74   ar
   118    75    77   ar
   119    73    74   ar
   120    74    76   ar
   121    77    78   ar
   122    76    78   ar
   123    89    88    2
   124    85    83    1
   125    83    84    1
   126    83    80    1
   127    88    87    1
   128    92    90    1
   129    79    80    1
   130    87    90    1
   131    87    86    1
   132    80    81    1
   133    90    91    1
   134    81    82    2
   135    91    93    1
