@<TRIPOS>MOLECULE
tmp/4casD00.pdb
 108 108 0 0 0
SMALL
GASTEIGER

@<TRIPOS>ATOM
      1  N         21.8300    8.4360  -58.9760 N.3    13  GLN13      -0.1245
      2  CA        21.6200    7.0490  -58.6260 C.3    13  GLN13       0.1566
      3  C         22.2750    6.7040  -57.2760 C.2    13  GLN13       0.2260
      4  O         21.6600    6.0240  -56.4340 O.2    13  GLN13      -0.2867
      5  CB        22.1740    6.1660  -59.7370 C.3    13  GLN13       0.0367
      6  CG        21.7760    4.7110  -59.6450 C.3    13  GLN13       0.0905
      7  CD        22.4540    3.8700  -60.6960 C.2    13  GLN13       0.2608
      8  OE1       23.2560    4.3700  -61.5000 O.2    13  GLN13      -0.2717
      9  NE2       22.1250    2.5870  -60.7130 N.am   13  GLN13      -0.0878
     10  N         20.5380    8.2670  -54.1860 N.3    16  TRP16      -0.1227
     11  CA        19.3110    7.5550  -53.8590 C.3    16  TRP16       0.1737
     12  C         19.5290    6.4970  -52.7660 C.2    16  TRP16       0.2595
     13  O         18.7650    6.4300  -51.8000 O.2    16  TRP16      -0.2718
     14  CB        18.7580    6.9050  -55.1270 C.3    16  TRP16       0.0564
     15  CG        17.4120    6.2650  -54.9690 C.ar   16  TRP16       0.0003
     16  CD1       16.1870    6.8720  -55.0600 C.ar   16  TRP16       0.0946
     17  CD2       17.1570    4.8840  -54.7130 C.ar   16  TRP16       0.0152
     18  NE1       15.1950    5.9520  -54.8780 N.ar   16  TRP16      -0.2442
     19  CE2       15.7630    4.7230  -54.6560 C.ar   16  TRP16       0.0810
     20  CE3       17.9770    3.7600  -54.5260 C.ar   16  TRP16       0.0012
     21  CZ2       15.1660    3.4780  -54.4200 C.ar   16  TRP16       0.0191
     22  CZ3       17.3770    2.5200  -54.3000 C.ar   16  TRP16       0.0001
     23  CH2       15.9920    2.3940  -54.2430 C.ar   16  TRP16       0.0015
     24  N         20.5660    5.6740  -52.9210 N.am   17  TYR17      -0.1976
     25  CA        20.9140    4.6730  -51.8950 C.3    17  TYR17       0.1639
     26  C         21.3270    5.3220  -50.5770 C.2    17  TYR17       0.2290
     27  O         20.9780    4.8380  -49.4850 O.2    17  TYR17      -0.2864
     28  CB        22.0450    3.7690  -52.3660 C.3    17  TYR17       0.0560
     29  CG        21.6550    2.8660  -53.4920 C.ar   17  TYR17      -0.0198
     30  CD1       20.9540    1.6870  -53.2580 C.ar   17  TYR17      -0.0009
     31  CD2       21.9820    3.1930  -54.8040 C.ar   17  TYR17      -0.0009
     32  CE1       20.5910    0.8490  -54.3060 C.ar   17  TYR17       0.0417
     33  CE2       21.6340    2.3690  -55.8630 C.ar   17  TYR17       0.0417
     34  CZ        20.9380    1.1970  -55.6230 C.ar   17  TYR17       0.1957
     35  OH        20.6100    0.3930  -56.7070 O.3    17  TYR17      -0.2866
     36  N         18.0870    6.6630  -48.7180 N.3    20  TRP20      -0.1241
     37  CA        17.4020    5.5490  -48.0490 C.3    20  TRP20       0.1605
     38  C         18.1420    5.0900  -46.7990 C.2    20  TRP20       0.2264
     39  O         17.5070    4.7960  -45.7790 O.2    20  TRP20      -0.2867
     40  CB        17.1960    4.3420  -48.9920 C.3    20  TRP20       0.0550
     41  CG        15.8950    4.3730  -49.7530 C.ar   20  TRP20       0.0003
     42  CD1       15.7240    4.2970  -51.1150 C.ar   20  TRP20       0.0946
     43  CD2       14.5820    4.5060  -49.1920 C.ar   20  TRP20       0.0152
     44  NE1       14.3820    4.3630  -51.4200 N.ar   20  TRP20      -0.2442
     45  CE2       13.6660    4.4980  -50.2590 C.ar   20  TRP20       0.0810
     46  CE3       14.0930    4.6320  -47.8840 C.ar   20  TRP20       0.0012
     47  CZ2       12.2910    4.6070  -50.0580 C.ar   20  TRP20       0.0191
     48  CZ3       12.7370    4.7360  -47.6830 C.ar   20  TRP20       0.0001
     49  CH2       11.8480    4.7210  -48.7610 C.ar   20  TRP20       0.0015
     50  N         17.7340    7.7400  -43.9170 N.3    23  ILE23      -0.1231
     51  CA        16.3690    7.7400  -43.4000 C.3    23  ILE23       0.1692
     52  C         16.1280    6.5590  -42.4560 C.2    23  ILE23       0.2592
     53  O         15.6190    6.7360  -41.3380 O.2    23  ILE23      -0.2718
     54  CB        15.3270    7.7390  -44.5510 C.3    23  ILE23       0.0266
     55  CG1       15.2940    9.1170  -45.2440 C.3    23  ILE23       0.0019
     56  CG2       13.9400    7.3660  -44.0220 C.3    23  ILE23       0.0020
     57  CD1       14.4700    9.1750  -46.5130 C.3    23  ILE23       0.0001
     58  N         16.4890    5.3580  -42.9090 N.am   24  TRP24      -0.1976
     59  CA        16.2640    4.1480  -42.1100 C.3    24  TRP24       0.1640
     60  C         17.1700    4.0630  -40.8760 C.2    24  TRP24       0.2290
     61  O         16.7800    3.4930  -39.8570 O.2    24  TRP24      -0.2864
     62  CB        16.3760    2.8900  -42.9770 C.3    24  TRP24       0.0576
     63  CG        15.1790    2.6860  -43.8580 C.ar   24  TRP24       0.0006
     64  CD1       15.1760    2.6200  -45.2010 C.ar   24  TRP24       0.0946
     65  CD2       13.8050    2.5330  -43.4470 C.ar   24  TRP24       0.0152
     66  NE1       13.9000    2.4130  -45.6670 N.ar   24  TRP24      -0.2442
     67  CE2       13.0400    2.3590  -44.6070 C.ar   24  TRP24       0.0810
     68  CE3       13.1560    2.5120  -42.2090 C.ar   24  TRP24       0.0012
     69  CZ2       11.6560    2.1700  -44.5760 C.ar   24  TRP24       0.0191
     70  CZ3       11.7800    2.3110  -42.1740 C.ar   24  TRP24       0.0001
     71  CH2       11.0480    2.1500  -43.3480 C.ar   24  TRP24       0.0015
     72  N         15.4080    6.5240  -38.4210 N.3    27  VAL27      -0.1231
     73  CA        14.1590    5.9420  -37.9710 C.3    27  VAL27       0.1692
     74  C         14.4200    4.7990  -37.0040 C.2    27  VAL27       0.2591
     75  O         13.9220    4.8100  -35.8700 O.2    27  VAL27      -0.2718
     76  CB        13.2990    5.4430  -39.1690 C.3    27  VAL27       0.0266
     77  CG1       12.1400    4.5420  -38.7080 C.3    27  VAL27       0.0020
     78  CG2       12.7780    6.6390  -39.9690 C.3    27  VAL27       0.0020
     79  N         15.1920    3.8160  -37.4520 N.am   28  LEU28      -0.1980
     80  CA        15.3090    2.5580  -36.7210 C.3    28  LEU28       0.1596
     81  C         16.3290    2.6170  -35.5950 C.2    28  LEU28       0.2287
     82  O         16.1050    2.0190  -34.5390 O.2    28  LEU28      -0.2864
     83  CB        15.6390    1.3980  -37.6670 C.3    28  LEU28       0.0297
     84  CG        14.5670    1.0310  -38.7030 C.3    28  LEU28       0.0022
     85  CD1       15.1230    0.0130  -39.6830 C.3    28  LEU28       0.0001
     86  CD2       13.2930    0.5100  -38.0560 C.3    28  LEU28       0.0001
     87  N         13.1090    5.2470  -33.1220 N.3    32  ARG32      -0.1245
     88  CA        12.5160    4.0730  -32.4760 C.3    32  ARG32       0.1563
     89  C         13.1460    3.7380  -31.0960 C.2    32  ARG32       0.2260
     90  O         12.5150    3.0850  -30.2610 O.2    32  ARG32      -0.2867
     91  CB        12.5960    2.8620  -33.4180 C.3    32  ARG32       0.0307
     92  CG        11.6450    2.7900  -34.5850 C.3    32  ARG32       0.0489
     93  CD        10.2360    2.7680  -34.0840 C.3    32  ARG32       0.2205
     94  NE         9.9490    1.5910  -33.2670 N.pl3  32  ARG32      -0.0865
     95  CZ         9.5530    0.4060  -33.7120 C.cat  32  ARG32       0.5346
     96  NH1        9.2940    0.2850  -35.0030 N.pl3  32  ARG32       0.1354
     97  NH2        9.3680   -0.6300  -32.8900 N.pl3  32  ARG32       0.1354
     98  N         11.2710    4.2780  -26.8820 N.3    36  ARG36      -0.1245
     99  CA        11.3350    3.2720  -25.8030 C.3    36  ARG36       0.1563
    100  C         11.7600    3.8000  -24.4300 C.2    36  ARG36       0.2260
    101  O         12.0530    3.0170  -23.5280 O.2    36  ARG36      -0.2867
    102  CB        12.2560    2.1170  -26.2140 C.3    36  ARG36       0.0307
    103  CG        11.7410    1.3750  -27.4370 C.3    36  ARG36       0.0489
    104  CD        12.4560    0.0510  -27.6460 C.3    36  ARG36       0.2205
    105  NE        12.0440   -0.6390  -28.8680 N.pl3  36  ARG36      -0.0865
    106  CZ        12.6820   -0.5950  -30.0450 C.cat  36  ARG36       0.5346
    107  NH1       13.7720    0.1350  -30.2300 N.pl3  36  ARG36       0.1354
    108  NH2       12.2100   -1.2860  -31.0800 N.pl3  36  ARG36       0.1354
@<TRIPOS>BOND
     1     8     7    2
     2     9     7   am
     3     7     6    1
     4     5     6    1
     5     5     2    1
     6     1     2    1
     7     2     3    1
     8     3     4    2
     9    35    34    1
    10    33    34   ar
    11    33    31   ar
    12    34    32   ar
    13    14    15    1
    14    14    11    1
    15    16    15   ar
    16    16    18   ar
    17    15    17   ar
    18    18    19   ar
    19    31    29   ar
    20    17    19   ar
    21    17    20   ar
    22    19    21   ar
    23    20    22   ar
    24    21    23   ar
    25    32    30   ar
    26    22    23   ar
    27    10    11    1
    28    11    12    1
    29    29    30   ar
    30    29    28    1
    31    24    12   am
    32    24    25    1
    33    12    13    2
    34    28    25    1
    35    25    26    1
    36    44    42   ar
    37    44    45   ar
    38    42    41   ar
    39    26    27    2
    40    45    47   ar
    41    45    43   ar
    42    47    49   ar
    43    41    43   ar
    44    41    40    1
    45    43    46   ar
    46    40    37    1
    47    49    48   ar
    48    36    37    1
    49    37    38    1
    50    46    48   ar
    51    38    39    2
    52    57    55    1
    53    66    64   ar
    54    66    67   ar
    55    55    54    1
    56    64    63   ar
    57    67    69   ar
    58    67    65   ar
    59    69    71   ar
    60    54    56    1
    61    54    51    1
    62    50    51    1
    63    63    65   ar
    64    63    62    1
    65    65    68   ar
    66    51    52    1
    67    71    70   ar
    68    62    59    1
    69    58    52   am
    70    58    59    1
    71    52    53    2
    72    68    70   ar
    73    59    60    1
    74    60    61    2
    75    78    76    1
    76    85    84    1
    77    76    77    1
    78    76    73    1
    79    84    86    1
    80    84    83    1
    81    72    73    1
    82    73    74    1
    83    83    80    1
    84    79    74   am
    85    79    80    1
    86    74    75    2
    87    80    81    1
    88    81    82    2
    89    96    95    1
    90    92    93    1
    91    92    91    1
    92    93    94    1
    93    95    94    2
    94    95    97    1
    95    91    88    1
    96    87    88    1
    97    88    89    1
    98    89    90    2
    99   108   106    1
   100   107   106    1
   101   106   105    2
   102   105   104    1
   103   104   103    1
   104   103   102    1
   105    98    99    1
   106   102    99    1
   107    99   100    1
   108   100   101    2
