@<TRIPOS>MOLECULE
tmp/4casC11.pdb
 210 204 0 0 0
SMALL
GASTEIGER

@<TRIPOS>ATOM
      1  N         10.3580   44.1880  -50.8080 N.3    66  ILE66      -0.1245
      2  CA         8.9410   44.3220  -51.1460 C.3    66  ILE66       0.1561
      3  C          8.6590   45.6340  -51.9080 C.2    66  ILE66       0.2260
      4  O          7.8710   45.6710  -52.8560 O.2    66  ILE66      -0.2867
      5  CB         8.0480   44.1960  -49.8950 C.3    66  ILE66       0.0252
      6  CG1        8.1470   42.7730  -49.3180 C.3    66  ILE66       0.0019
      7  CG2        6.5910   44.4830  -50.2450 C.3    66  ILE66       0.0019
      8  CD1        7.6590   42.6560  -47.8850 C.3    66  ILE66       0.0001
      9  N          9.7920   45.2070  -55.4560 N.3    69  ILE69      -0.1231
     10  CA         8.8490   44.3490  -56.1740 C.3    69  ILE69       0.1692
     11  C          7.6010   45.1530  -56.5580 C.2    69  ILE69       0.2591
     12  O          7.2240   45.2010  -57.7430 O.2    69  ILE69      -0.2718
     13  CB         8.4380   43.1130  -55.3420 C.3    69  ILE69       0.0266
     14  CG1        9.6370   42.1840  -55.1310 C.3    69  ILE69       0.0019
     15  CG2        7.3120   42.3550  -56.0380 C.3    69  ILE69       0.0020
     16  CD1        9.4930   41.2990  -53.9210 C.3    69  ILE69       0.0001
     17  N          6.9730   45.7840  -55.5610 N.am   70  LEU70      -0.1980
     18  CA         5.7180   46.5220  -55.7680 C.3    70  LEU70       0.1596
     19  C          5.8510   47.6510  -56.7670 C.2    70  LEU70       0.2287
     20  O          4.9540   47.8850  -57.5640 O.2    70  LEU70      -0.2864
     21  CB         5.2070   47.0830  -54.4410 C.3    70  LEU70       0.0297
     22  CG         4.6080   46.0960  -53.4310 C.3    70  LEU70       0.0022
     23  CD1        4.3200   46.8640  -52.1480 C.3    70  LEU70       0.0001
     24  CD2        3.3630   45.3830  -53.9760 C.3    70  LEU70       0.0001
     25  N          5.9850   46.2200  -60.1850 N.3    73  MET73      -0.1245
     26  CA         4.6280   45.8040  -60.5210 C.3    73  MET73       0.1570
     27  C          3.7900   46.9970  -61.0130 C.2    73  MET73       0.2261
     28  O          3.1520   46.9310  -62.0680 O.2    73  MET73      -0.2867
     29  CB         3.9640   45.1170  -59.3260 C.3    73  MET73       0.0387
     30  CG         4.4900   43.7210  -59.0740 C.3    73  MET73       0.0595
     31  SD         3.7640   43.0160  -57.5880 S.3    73  MET73      -0.1393
     32  CE         4.3550   41.3250  -57.7450 C.3    73  MET73       0.0692
     33  N         -3.3590   42.8060  -60.1730 N.3    88  PHE88      -0.1241
     34  CA        -2.3450   42.4490  -59.1750 C.3    88  PHE88       0.1605
     35  C         -1.7840   41.0290  -59.2450 C.2    88  PHE88       0.2264
     36  O         -0.5500   40.8530  -59.2380 O.2    88  PHE88      -0.2867
     37  CB        -2.8830   42.6680  -57.7710 C.3    88  PHE88       0.0534
     38  CG        -1.8410   42.5490  -56.7200 C.ar   88  PHE88      -0.0203
     39  CD1       -0.8250   43.4850  -56.6310 C.ar   88  PHE88      -0.0042
     40  CD2       -1.8650   41.5090  -55.8400 C.ar   88  PHE88      -0.0042
     41  CE1        0.1540   43.3750  -55.6750 C.ar   88  PHE88      -0.0003
     42  CE2       -0.8970   41.3980  -54.8700 C.ar   88  PHE88      -0.0003
     43  CZ         0.1180   42.3270  -54.7910 C.ar   88  PHE88      -0.0000
     44  N         25.7070   39.9690  -64.1450 N.3   104  ILE104     -0.1245
     45  CA        24.5980   40.6370  -63.4380 C.3   104  ILE104      0.1561
     46  C         23.7250   41.3490  -64.4570 C.2   104  ILE104      0.2260
     47  O         24.1930   42.2780  -65.1020 O.2   104  ILE104     -0.2867
     48  CB        25.0810   41.6320  -62.3650 C.3   104  ILE104      0.0252
     49  CG1       25.8030   40.8850  -61.2230 C.3   104  ILE104      0.0019
     50  CG2       23.9060   42.4430  -61.8160 C.3   104  ILE104      0.0019
     51  CD1       26.5190   41.7910  -60.2310 C.3   104  ILE104      0.0001
     52  N         15.0910   42.1890  -60.2340 N.3   113  TRP113     -0.1227
     53  CA        14.8010   40.8850  -59.6650 C.3   113  TRP113      0.1737
     54  C         15.9530   40.4480  -58.7750 C.2   113  TRP113      0.2595
     55  O         15.7370   40.0950  -57.6100 O.2   113  TRP113     -0.2718
     56  CB        14.5500   39.8560  -60.7760 C.3   113  TRP113      0.0564
     57  CG        14.4500   38.4780  -60.2760 C.ar  113  TRP113      0.0003
     58  CD1       13.3520   37.8890  -59.7590 C.ar  113  TRP113      0.0946
     59  CD2       15.4920   37.5140  -60.2260 C.ar  113  TRP113      0.0152
     60  NE1       13.6290   36.6050  -59.3950 N.ar  113  TRP113     -0.2442
     61  CE2       14.9400   36.3390  -59.6810 C.ar  113  TRP113      0.0810
     62  CE3       16.8430   37.5200  -60.5970 C.ar  113  TRP113      0.0012
     63  CZ2       15.6950   35.1640  -59.4900 C.ar  113  TRP113      0.0191
     64  CZ3       17.6020   36.3460  -60.4130 C.ar  113  TRP113      0.0001
     65  CH2       17.0230   35.1900  -59.8530 C.ar  113  TRP113      0.0015
     66  N         17.1730   40.4970  -59.3210 N.am  114  LEU114     -0.1966
     67  CA        18.3740   40.0670  -58.5750 C.3   114  LEU114      0.1728
     68  C         18.5730   40.8940  -57.3060 C.2   114  LEU114      0.2616
     69  O         18.9240   40.3470  -56.2470 O.2   114  LEU114     -0.2715
     70  CB        19.6380   40.1140  -59.4500 C.3   114  LEU114      0.0311
     71  CG        20.8580   39.3520  -58.9070 C.3   114  LEU114      0.0022
     72  CD1       20.5970   37.9060  -58.5040 C.3   114  LEU114      0.0001
     73  CD2       21.9460   39.3320  -59.9490 C.3   114  LEU114      0.0001
     74  N         18.3210   42.2000  -57.4090 N.am  115  MET115     -0.1977
     75  CA        18.4300   43.1060  -56.2480 C.3   115  MET115      0.1605
     76  C         17.3980   42.8240  -55.1420 C.2   115  MET115      0.2287
     77  O         17.7320   42.7930  -53.9420 O.2   115  MET115     -0.2864
     78  CB        18.3140   44.5710  -56.6770 C.3   115  MET115      0.0413
     79  CG        18.6860   45.5650  -55.5670 C.3   115  MET115      0.0598
     80  SD        19.0530   47.2610  -56.1400 S.3   115  MET115     -0.1393
     81  CE        19.9470   47.0430  -57.6890 C.3   115  MET115      0.0692
     82  N         16.0400   40.0260  -54.6440 N.3   117  GLY117     -0.1210
     83  CA        16.4530   38.7550  -54.1060 C.3   117  GLY117      0.1956
     84  C         17.5790   38.8570  -53.0950 C.2   117  GLY117      0.2611
     85  O         17.5840   38.1610  -52.0640 O.2   117  GLY117     -0.2717
     86  N         18.5510   39.7100  -53.3930 N.am  118  LEU118     -0.1979
     87  CA        19.6060   40.0140  -52.4340 C.3   118  LEU118      0.1596
     88  C         19.0130   40.5000  -51.0850 C.2   118  LEU118      0.2287
     89  O         19.3810   40.0070  -50.0160 O.2   118  LEU118     -0.2864
     90  CB        20.5460   41.0630  -53.0260 C.3   118  LEU118      0.0297
     91  CG        21.4340   41.8620  -52.0630 C.3   118  LEU118      0.0022
     92  CD1       22.3560   40.9420  -51.2870 C.3   118  LEU118      0.0001
     93  CD2       22.2350   42.8990  -52.8310 C.3   118  LEU118      0.0001
     94  N         15.8830   40.2260  -49.9340 N.3   120  MET120     -0.1230
     95  CA        15.0820   39.1940  -49.3260 C.3   120  MET120      0.1702
     96  C         15.9890   38.2540  -48.5520 C.2   120  MET120      0.2593
     97  O         15.6840   37.9140  -47.4120 O.2   120  MET120     -0.2718
     98  CB        14.2980   38.4360  -50.3970 C.3   120  MET120      0.0401
     99  CG        13.4920   37.2500  -49.8720 C.3   120  MET120      0.0596
    100  SD        12.2750   36.5160  -51.0070 S.3   120  MET120     -0.1393
    101  CE        12.3670   34.7900  -50.5010 C.3   120  MET120      0.0692
    102  N         17.1040   37.8460  -49.1670 N.am  121  THR121     -0.1953
    103  CA        18.0710   36.9310  -48.5260 C.3   121  THR121      0.1897
    104  C         18.6330   37.5320  -47.2300 C.2   121  THR121      0.2313
    105  O         18.7560   36.8470  -46.2240 O.2   121  THR121     -0.2863
    106  CB        19.2410   36.5740  -49.4700 C.3   121  THR121      0.1794
    107  OG1       18.7390   35.9150  -50.6350 O.3   121  THR121     -0.2208
    108  CG2       20.2160   35.6570  -48.7970 C.3   121  THR121      0.0378
    109  N         15.8850   37.3110  -44.5870 N.3   124  LEU124     -0.1245
    110  CA        15.7120   35.9420  -44.0690 C.3   124  LEU124      0.1561
    111  C         16.8110   35.5980  -43.0600 C.2   124  LEU124      0.2260
    112  O         16.5370   35.0150  -42.0030 O.2   124  LEU124     -0.2867
    113  CB        15.7050   34.9060  -45.2200 C.3   124  LEU124      0.0270
    114  CG        14.6100   35.0020  -46.2980 C.3   124  LEU124      0.0019
    115  CD1       14.8320   33.9960  -47.4200 C.3   124  LEU124      0.0001
    116  CD2       13.2190   34.8380  -45.6930 C.3   124  LEU124      0.0001
    117  N         14.9420   27.7160  -50.1380 N.3   155  VAL155     -0.1231
    118  CA        14.7170   28.9650  -50.8630 C.3   155  VAL155      0.1692
    119  C         15.9910   29.4020  -51.6570 C.2   155  VAL155      0.2591
    120  O         15.9010   29.8400  -52.8230 O.2   155  VAL155     -0.2718
    121  CB        14.1990   30.0430  -49.8780 C.3   155  VAL155      0.0266
    122  CG1       14.2630   31.4280  -50.4850 C.3   155  VAL155      0.0020
    123  CG2       12.7790   29.7090  -49.4510 C.3   155  VAL155      0.0020
    124  N         17.1590   29.2640  -51.0250 N.am  156  LEU156     -0.1980
    125  CA        18.4320   29.6120  -51.6600 C.3   156  LEU156      0.1596
    126  C         18.7560   28.6980  -52.8120 C.2   156  LEU156      0.2287
    127  O         19.3800   29.1190  -53.7810 O.2   156  LEU156     -0.2864
    128  CB        19.5840   29.5480  -50.6490 C.3   156  LEU156      0.0297
    129  CG        19.5670   30.5540  -49.5000 C.3   156  LEU156      0.0022
    130  CD1       20.7250   30.2720  -48.5660 C.3   156  LEU156      0.0001
    131  CD2       19.6260   31.9740  -50.0450 C.3   156  LEU156      0.0001
    132  N         16.5330   27.1440  -54.9870 N.3   158  ILE158     -0.1231
    133  CA        15.7360   27.5540  -56.1590 C.3   158  ILE158      0.1692
    134  C         16.0050   29.0040  -56.5960 C.2   158  ILE158      0.2593
    135  O         15.7110   29.3960  -57.7460 O.2   158  ILE158     -0.2718
    136  CB        14.2000   27.3710  -55.9200 C.3   158  ILE158      0.0266
    137  CG1       13.6960   28.2670  -54.7820 C.3   158  ILE158      0.0019
    138  CG2       13.8730   25.9040  -55.6170 C.3   158  ILE158      0.0020
    139  CD1       12.2560   28.0100  -54.4220 C.3   158  ILE158      0.0001
    140  N         16.5390   29.7980  -55.6630 N.am  159  GLY159     -0.1942
    141  CA        16.7500   31.2160  -55.8940 C.3   159  GLY159      0.2014
    142  C         18.0760   31.5790  -56.5380 C.2   159  GLY159      0.2639
    143  O         18.1190   32.4250  -57.4540 O.2   159  GLY159     -0.2714
    144  N         19.1570   30.9640  -56.0470 N.am  160  CYS160     -0.1967
    145  CA        20.5020   31.2690  -56.5490 C.3   160  CYS160      0.1712
    146  C         21.5080   30.1180  -56.6220 C.2   160  CYS160      0.2296
    147  O         22.4610   30.2110  -57.3830 O.2   160  CYS160     -0.2864
    148  CB        21.1110   32.4030  -55.7280 C.3   160  CYS160      0.0983
    149  SG        21.2000   32.0450  -53.9630 S.3   160  CYS160     -0.0798
    150  N         21.0610   33.0430  -64.3950 N.3   169  TRP169     -0.1241
    151  CA        20.0840   33.6640  -63.5250 C.3   169  TRP169      0.1605
    152  C         18.6680   33.5530  -64.0920 C.2   169  TRP169      0.2264
    153  O         17.7090   33.8440  -63.3900 O.2   169  TRP169     -0.2867
    154  CB        20.4320   35.1340  -63.3200 C.3   169  TRP169      0.0550
    155  CG        21.5960   35.4030  -62.4200 C.ar  169  TRP169      0.0003
    156  CD1       22.7730   36.0560  -62.7410 C.ar  169  TRP169      0.0946
    157  CD2       21.6870   35.0750  -61.0280 C.ar  169  TRP169      0.0152
    158  NE1       23.5700   36.1380  -61.6250 N.ar  169  TRP169     -0.2442
    159  CE2       22.9250   35.5420  -60.5650 C.ar  169  TRP169      0.0810
    160  CE3       20.8410   34.4240  -60.1280 C.ar  169  TRP169      0.0012
    161  CZ2       23.3320   35.3690  -59.2410 C.ar  169  TRP169      0.0191
    162  CZ3       21.2600   34.2610  -58.8130 C.ar  169  TRP169      0.0001
    163  CH2       22.4840   34.7290  -58.3900 C.ar  169  TRP169      0.0015
    164  N         13.2330   31.9830  -59.6090 N.3   173  VAL173     -0.1231
    165  CA        11.8030   32.1180  -59.4230 C.3   173  VAL173      0.1678
    166  C         11.4200   33.6010  -59.5370 C.2   173  VAL173      0.2434
    167  O         11.9840   34.4300  -58.8530 O.2   173  VAL173     -0.2733
    168  CB        11.4090   31.5880  -58.0040 C.3   173  VAL173      0.0265
    169  CG1        9.9000   31.4630  -57.8850 C.3   173  VAL173      0.0020
    170  CG2       12.1050   30.2420  -57.6640 C.3   173  VAL173      0.0020
    171  N         10.4530   33.9530  -60.3780 N.am  174  PRO174     -0.2718
    172  CA         9.9440   35.3390  -60.3680 C.3   174  PRO174      0.1535
    173  C          9.1780   35.7250  -59.0900 C.2   174  PRO174      0.2599
    174  O          8.6470   34.8590  -58.4220 O.2   174  PRO174     -0.2715
    175  CB         8.9800   35.3860  -61.5660 C.3   174  PRO174      0.0310
    176  CG         9.1420   34.1000  -62.2900 C.3   174  PRO174      0.0237
    177  CD         9.7310   33.1040  -61.3250 C.3   174  PRO174      0.0939
    178  N          9.1290   37.0140  -58.7610 N.am  175  PHE175     -0.1960
    179  CA         8.2490   37.5330  -57.6990 C.3   175  PHE175      0.1771
    180  C          6.8840   37.8560  -58.3140 C.2   175  PHE175      0.2620
    181  O          6.8110   38.5210  -59.3390 O.2   175  PHE175     -0.2715
    182  CB         8.8250   38.8060  -57.0450 C.3   175  PHE175      0.0574
    183  CG        10.1630   38.6130  -56.3780 C.ar  175  PHE175     -0.0200
    184  CD1       10.2390   38.0850  -55.1010 C.ar  175  PHE175     -0.0042
    185  CD2       11.3450   38.9660  -57.0150 C.ar  175  PHE175     -0.0042
    186  CE1       11.4730   37.9050  -54.4670 C.ar  175  PHE175     -0.0003
    187  CE2       12.5720   38.7830  -56.3950 C.ar  175  PHE175     -0.0003
    188  CZ        12.6370   38.2460  -55.1130 C.ar  175  PHE175     -0.0000
    189  N          5.8040   37.3970  -57.6890 N.am  176  GLY176     -0.1940
    190  CA         4.4480   37.6410  -58.1990 C.3   176  GLY176      0.2014
    191  C          3.5660   36.4420  -57.9130 C.2   176  GLY176      0.2638
    192  O          4.0590   35.3100  -57.8180 O.2   176  GLY176     -0.2714
    193  N          2.2590   36.6890  -57.7780 N.am  177  ILE177     -0.1977
    194  CA         1.3250   35.6380  -57.3900 C.3   177  ILE177      0.1596
    195  C          1.3310   34.5740  -58.4870 C.2   177  ILE177      0.2287
    196  O          1.8550   33.4810  -58.2740 O.2   177  ILE177     -0.2864
    197  CB        -0.1090   36.1790  -57.0940 C.3   177  ILE177      0.0276
    198  CG1       -0.1050   37.1170  -55.8840 C.3   177  ILE177      0.0022
    199  CG2       -1.0780   35.0360  -56.8040 C.3   177  ILE177      0.0022
    200  CD1        0.3140   36.4510  -54.5830 C.3   177  ILE177      0.0001
    201  N          5.1780   33.4760  -60.0690 N.3   180  HIS180     -0.1241
    202  CA         6.0050   32.4920  -59.3380 C.3   180  HIS180      0.1621
    203  C          5.3820   31.1000  -59.4950 C.2   180  HIS180      0.2264
    204  O          6.0860   30.0910  -59.5130 O.2   180  HIS180     -0.2867
    205  CB         6.2620   32.9130  -57.8590 C.3   180  HIS180      0.0745
    206  CG         5.3040   32.3410  -56.8470 C.ar  180  HIS180      0.0817
    207  ND1        3.9920   32.7610  -56.7380 N.ar  180  HIS180     -0.2268
    208  CD2        5.4910   31.4290  -55.8570 C.ar  180  HIS180      0.1154
    209  CE1        3.4040   32.1070  -55.7480 C.ar  180  HIS180      0.1986
    210  NE2        4.2960   31.3010  -55.1920 N.ar  180  HIS180     -0.2212
@<TRIPOS>BOND
     1    47    46    2
     2    46    45    1
     3   150   151    1
     4    44    45    1
     5   152   151    1
     6   152   153    2
     7   151   154    1
     8    45    48    1
     9   154   155    1
    10   156   155   ar
    11   156   158   ar
    12   155   157   ar
    13    48    50    1
    14    48    49    1
    15   176   175    1
    16   176   177    1
    17    28    27    2
    18   158   159   ar
    19   175   172    1
    20   177   171    1
    21    49    51    1
    22   157   159   ar
    23   157   160   ar
    24    27    26    1
    25    56    57    1
    26    56    53    1
    27    62    64   ar
    28    62    59   ar
    29   159   161   ar
    30    26    25    1
    31    26    29    1
    32    64    65   ar
    33   171   172    1
    34   171   166   am
    35   172   173    1
    36    57    59   ar
    37    57    58   ar
    38    52    53    1
    39    59    61   ar
    40    33    34    1
    41   160   162   ar
    42   201   202    1
    43    73    71    1
    44    65    63   ar
    45    58    60   ar
    46    61    63   ar
    47    61    60   ar
    48    53    54    1
    49   164   165    1
    50   166   165    1
    51   166   167    2
    52   204   203    2
    53   203   202    1
    54    70    71    1
    55    70    67    1
    56   165   168    1
    57   181   180    2
    58   202   205    1
    59    29    30    1
    60    66    54   am
    61    66    67    1
    62    35    36    2
    63    35    34    1
    64   161   163   ar
    65    34    37    1
    66   173   178   am
    67   173   174    2
    68    30    31    1
    69    71    72    1
    70   162   163   ar
    71    54    55    2
    72   178   179    1
    73    67    68    1
    74   195   196    2
    75   195   194    1
    76   180   179    1
    77   180   189   am
    78   190   191    1
    79   190   189    1
    80   168   169    1
    81   168   170    1
    82   191   192    2
    83   191   193   am
    84   205   206    1
    85   193   194    1
    86    37    38    1
    87   135   134    2
    88    32    31    1
    89    12    11    2
    90   179   182    1
    91    81    80    1
    92    20    19    2
    93   143   142    2
    94    74    68   am
    95    74    75    1
    96   194   197    1
    97   147   146    2
    98    68    69    2
    99   197   199    1
   100   197   198    1
   101   182   183    1
   102   185   187   ar
   103   185   183   ar
   104   206   207   ar
   105   206   208   ar
   106    19    18    1
   107   207   209   ar
   108    38    39   ar
   109    38    40   ar
   110    78    75    1
   111    78    79    1
   112    39    41   ar
   113   146   145    1
   114   134   133    1
   115   134   140   am
   116    11    10    1
   117    11    17   am
   118   145   144    1
   119   145   148    1
   120   142   144   am
   121   142   141    1
   122   187   188   ar
   123   183   184   ar
   124    75    76    1
   125    10     9    1
   126    10    13    1
   127   133   136    1
   128   133   132    1
   129    80    79    1
   130    15    13    1
   131   136   138    1
   132   136   137    1
   133   141   140    1
   134   198   200    1
   135   208   210   ar
   136    40    42   ar
   137    18    17    1
   138    18    21    1
   139   209   210   ar
   140   148   149    1
   141    41    43   ar
   142    13    14    1
   143    76    77    2
   144    14    16    1
   145   188   186   ar
   146   184   186   ar
   147    42    43   ar
   148   137   139    1
   149    82    83    1
   150    21    22    1
   151    83    84    1
   152    24    22    1
   153   127   126    2
   154    22    23    1
   155    86    84   am
   156    86    87    1
   157    84    85    2
   158    90    87    1
   159    90    91    1
   160     4     3    2
   161    93    91    1
   162   120   119    2
   163   126   125    1
   164    87    88    1
   165    91    92    1
   166     3     2    1
   167   125   124    1
   168   125   128    1
   169   119   124   am
   170   119   118    1
   171     2     1    1
   172     2     5    1
   173    88    89    2
   174   100   101    1
   175   100    99    1
   176   118   117    1
   177   118   121    1
   178   128   129    1
   179   107   106    1
   180   122   121    1
   181    98    99    1
   182    98    95    1
   183     7     5    1
   184   131   129    1
   185    94    95    1
   186     5     6    1
   187   121   123    1
   188   129   130    1
   189   106   108    1
   190   106   103    1
   191    95    96    1
   192     6     8    1
   193   102    96   am
   194   102   103    1
   195    96    97    2
   196   103   104    1
   197   115   114    1
   198   104   105    2
   199   114   116    1
   200   114   113    1
   201   113   110    1
   202   109   110    1
   203   110   111    1
   204   111   112    2
