@<TRIPOS>MOLECULE
tmp/4casC05.pdb
 84 83 0 0 0
SMALL
GASTEIGER

@<TRIPOS>ATOM
      1  N          7.3250   14.7580  -61.2870 N.3   195  TYR195     -0.1241
      2  CA         6.7700   13.5250  -60.7220 C.3   195  TYR195      0.1605
      3  C          7.7790   12.3800  -60.7680 C.2   195  TYR195      0.2264
      4  O          7.7040   11.4620  -59.9460 O.2   195  TYR195     -0.2867
      5  CB         5.4710   13.1180  -61.4230 C.3   195  TYR195      0.0534
      6  CG         4.2850   13.9700  -61.0360 C.ar  195  TYR195     -0.0201
      7  CD1        3.8480   14.0180  -59.7180 C.ar  195  TYR195     -0.0009
      8  CD2        3.6050   14.7240  -61.9890 C.ar  195  TYR195     -0.0009
      9  CE1        2.7750   14.7950  -59.3630 C.ar  195  TYR195      0.0417
     10  CE2        2.5270   15.4970  -61.6370 C.ar  195  TYR195      0.0417
     11  CZ         2.1210   15.5280  -60.3240 C.ar  195  TYR195      0.1957
     12  OH         1.0420   16.3030  -59.9650 O.3   195  TYR195     -0.2866
     13  N         11.4650   14.6790  -55.0600 N.3   200  HIS200     -0.1226
     14  CA        10.1160   15.2560  -55.1440 C.3   200  HIS200      0.1752
     15  C          9.1620   14.3080  -54.4290 C.2   200  HIS200      0.2596
     16  O          8.3840   14.7260  -53.5910 O.2   200  HIS200     -0.2718
     17  CB         9.7180   15.4550  -56.6280 C.3   200  HIS200      0.0759
     18  CG         8.4580   16.2250  -56.8390 C.ar  200  HIS200      0.0818
     19  ND1        7.3080   15.6360  -57.3120 N.ar  200  HIS200     -0.2268
     20  CD2        8.1700   17.5380  -56.6700 C.ar  200  HIS200      0.1154
     21  CE1        6.3550   16.5500  -57.4060 C.ar  200  HIS200      0.1986
     22  NE2        6.8470   17.7090  -57.0070 N.ar  200  HIS200     -0.2212
     23  N          9.2540   13.0240  -54.7330 N.am  201  GLY201     -0.1957
     24  CA         8.4700   12.0100  -54.0220 C.3   201  GLY201      0.1869
     25  C          8.7630   11.8950  -52.5260 C.2   201  GLY201      0.2309
     26  O          7.8370   11.8070  -51.7100 O.2   201  GLY201     -0.2863
     27  N          7.2580   14.9560  -50.8630 N.3   204  ILE204     -0.1231
     28  CA         5.8010   14.8360  -50.8310 C.3   204  ILE204      0.1692
     29  C          5.3260   13.8960  -49.7420 C.2   204  ILE204      0.2593
     30  O          4.3740   14.2050  -49.0120 O.2   204  ILE204     -0.2718
     31  CB         5.2630   14.3470  -52.1960 C.3   204  ILE204      0.0266
     32  CG1        5.3550   15.4890  -53.2210 C.3   204  ILE204      0.0019
     33  CG2        3.8260   13.8830  -52.0680 C.3   204  ILE204      0.0020
     34  CD1        5.1680   15.1200  -54.6780 C.3   204  ILE204      0.0001
     35  N          5.9800   12.7470  -49.6470 N.am  205  GLY205     -0.1942
     36  CA         5.6890   11.7950  -48.5860 C.3   205  GLY205      0.2014
     37  C          5.8370   12.4090  -47.2100 C.2   205  GLY205      0.2638
     38  O          5.0270   12.1450  -46.3150 O.2   205  GLY205     -0.2714
     39  N          6.8790   13.2150  -47.0340 N.am  206  PHE206     -0.1973
     40  CA         7.0890   13.8810  -45.7700 C.3   206  PHE206      0.1639
     41  C          6.0820   15.0250  -45.5840 C.2   206  PHE206      0.2290
     42  O          5.6370   15.2760  -44.4490 O.2   206  PHE206     -0.2864
     43  CB         8.5180   14.4010  -45.6530 C.3   206  PHE206      0.0560
     44  CG         9.5370   13.3340  -45.3670 C.ar  206  PHE206     -0.0200
     45  CD1        9.4700   12.5870  -44.2000 C.ar  206  PHE206     -0.0042
     46  CD2       10.5950   13.1090  -46.2520 C.ar  206  PHE206     -0.0042
     47  CE1       10.4250   11.6080  -43.9380 C.ar  206  PHE206     -0.0003
     48  CE2       11.5550   12.1450  -45.9880 C.ar  206  PHE206     -0.0003
     49  CZ        11.4720   11.3890  -44.8340 C.ar  206  PHE206     -0.0000
     50  N          2.9250   15.2760  -46.9650 N.3   208  TYR208     -0.1227
     51  CA         1.7330   14.4990  -46.5960 C.3   208  TYR208      0.1736
     52  C          1.8710   13.9010  -45.1540 C.2   208  TYR208      0.2596
     53  O          0.9200   13.8810  -44.3560 O.2   208  TYR208     -0.2718
     54  CB         1.5260   13.3350  -47.5510 C.3   208  TYR208      0.0548
     55  CG         1.0380   13.5890  -48.9580 C.ar  208  TYR208     -0.0200
     56  CD1        0.4960   14.7970  -49.3570 C.ar  208  TYR208     -0.0009
     57  CD2        1.0600   12.5390  -49.8870 C.ar  208  TYR208     -0.0009
     58  CE1        0.0260   14.9590  -50.6690 C.ar  208  TYR208      0.0417
     59  CE2        0.5930   12.6820  -51.1790 C.ar  208  TYR208      0.0417
     60  CZ         0.0810   13.8820  -51.5850 C.ar  208  TYR208      0.1957
     61  OH        -0.3540   13.9680  -52.9000 O.3   208  TYR208     -0.2866
     62  N          3.0630   13.3970  -44.8460 N.am  209  GLY209     -0.1957
     63  CA         3.3820   12.8650  -43.5280 C.3   209  GLY209      0.1869
     64  C          3.1940   13.8450  -42.3820 C.2   209  GLY209      0.2309
     65  O          2.8120   13.4550  -41.2720 O.2   209  GLY209     -0.2863
     66  N         -0.5810   13.9250  -41.7650 N.3   212  LEU212     -0.1245
     67  CA        -0.9480   12.7300  -40.9950 C.3   212  LEU212      0.1561
     68  C         -0.5920   12.9100  -39.5080 C.2   212  LEU212      0.2260
     69  O         -1.4450   12.7200  -38.6130 O.2   212  LEU212     -0.2867
     70  CB        -0.2280   11.4990  -41.5730 C.3   212  LEU212      0.0270
     71  CG        -0.7790   10.1100  -41.2420 C.3   212  LEU212      0.0019
     72  CD1       -0.0240    9.0620  -42.0470 C.3   212  LEU212      0.0001
     73  CD2       -0.6690    9.7630  -39.7680 C.3   212  LEU212      0.0001
     74  N         10.0380   14.9510  -39.7380 N.3   270  PHE270     -0.1241
     75  CA         9.2040   14.9740  -40.9570 C.3   270  PHE270      0.1605
     76  C          9.1670   16.3420  -41.6200 C.2   270  PHE270      0.2264
     77  O          9.3130   16.4660  -42.8470 O.2   270  PHE270     -0.2867
     78  CB         7.7820   14.5190  -40.6250 C.3   270  PHE270      0.0534
     79  CG         7.5760   13.0540  -40.8150 C.ar  270  PHE270     -0.0203
     80  CD1        8.3540   12.1360  -40.1070 C.ar  270  PHE270     -0.0042
     81  CD2        6.6310   12.5930  -41.7180 C.ar  270  PHE270     -0.0042
     82  CE1        8.1880   10.7870  -40.2710 C.ar  270  PHE270     -0.0003
     83  CE2        6.4560   11.2400  -41.8950 C.ar  270  PHE270     -0.0003
     84  CZ         7.2410   10.3360  -41.1670 C.ar  270  PHE270     -0.0000
@<TRIPOS>BOND
     1     8    10   ar
     2     8     6   ar
     3    10    11   ar
     4     5     6    1
     5     5     2    1
     6     1     2    1
     7     6     7   ar
     8     3     2    1
     9     3     4    2
    10    11    12    1
    11    11     9   ar
    12     7     9   ar
    13    21    19   ar
    14    21    22   ar
    15    19    18   ar
    16    22    20   ar
    17    18    20   ar
    18    18    17    1
    19    17    14    1
    20    14    13    1
    21    14    15    1
    22    23    15   am
    23    23    24    1
    24    34    32    1
    25    15    16    2
    26    24    25    1
    27    32    31    1
    28    61    60    1
    29    25    26    2
    30    31    33    1
    31    31    28    1
    32    60    59   ar
    33    60    58   ar
    34    59    57   ar
    35    27    28    1
    36    28    29    1
    37    58    56   ar
    38    57    55   ar
    39    29    35   am
    40    29    30    2
    41    35    36    1
    42    56    55   ar
    43    55    54    1
    44    36    37    1
    45    54    51    1
    46    37    39   am
    47    37    38    2
    48    39    40    1
    49    50    51    1
    50    51    52    1
    51    46    48   ar
    52    46    44   ar
    53    48    49   ar
    54    40    43    1
    55    40    41    1
    56    43    44    1
    57    41    42    2
    58    44    45   ar
    59    52    62   am
    60    52    53    2
    61    62    63    1
    62    49    47   ar
    63    45    47   ar
    64    63    64    1
    65    77    76    2
    66    64    65    2
    67    72    71    1
    68    83    81   ar
    69    83    84   ar
    70    66    67    1
    71    81    79   ar
    72    76    75    1
    73    70    71    1
    74    70    67    1
    75    71    73    1
    76    84    82   ar
    77    67    68    1
    78    75    78    1
    79    75    74    1
    80    79    78    1
    81    79    80   ar
    82    82    80   ar
    83    68    69    2
