@<TRIPOS>MOLECULE
tmp/4casC06.pdb
 79 77 0 0 0
SMALL
GASTEIGER

@<TRIPOS>ATOM
      1  N          2.9250   15.2760  -46.9650 N.3   208  TYR208     -0.1241
      2  CA         1.7330   14.4990  -46.5960 C.3   208  TYR208      0.1605
      3  C          1.8710   13.9010  -45.1540 C.2   208  TYR208      0.2264
      4  O          0.9200   13.8810  -44.3560 O.2   208  TYR208     -0.2867
      5  CB         1.5260   13.3350  -47.5510 C.3   208  TYR208      0.0534
      6  CG         1.0380   13.5890  -48.9580 C.ar  208  TYR208     -0.0201
      7  CD1        0.4960   14.7970  -49.3570 C.ar  208  TYR208     -0.0009
      8  CD2        1.0600   12.5390  -49.8870 C.ar  208  TYR208     -0.0009
      9  CE1        0.0260   14.9590  -50.6690 C.ar  208  TYR208      0.0417
     10  CE2        0.5930   12.6820  -51.1790 C.ar  208  TYR208      0.0417
     11  CZ         0.0810   13.8820  -51.5850 C.ar  208  TYR208      0.1957
     12  OH        -0.3540   13.9680  -52.9000 O.3   208  TYR208     -0.2866
     13  N          0.9500   16.2240  -42.4330 N.3   211  GLY211     -0.1210
     14  CA        -0.5030   16.2540  -42.3410 C.3   211  GLY211      0.1956
     15  C         -1.0270   15.1410  -41.4680 C.2   211  GLY211      0.2611
     16  O         -1.8010   15.3770  -40.5470 O.2   211  GLY211     -0.2717
     17  N         -0.5810   13.9250  -41.7650 N.am  212  LEU212     -0.1979
     18  CA        -0.9480   12.7300  -40.9950 C.3   212  LEU212      0.1596
     19  C         -0.5920   12.9100  -39.5080 C.2   212  LEU212      0.2287
     20  O         -1.4450   12.7200  -38.6130 O.2   212  LEU212     -0.2864
     21  CB        -0.2280   11.4990  -41.5730 C.3   212  LEU212      0.0297
     22  CG        -0.7790   10.1100  -41.2420 C.3   212  LEU212      0.0022
     23  CD1       -0.0240    9.0620  -42.0470 C.3   212  LEU212      0.0001
     24  CD2       -0.6690    9.7630  -39.7680 C.3   212  LEU212      0.0001
     25  N         -2.5730   15.7600  -37.6390 N.3   215  ALA215     -0.1231
     26  CA        -3.9510   15.2940  -37.4510 C.3   215  ALA215      0.1694
     27  C         -3.9770   14.2870  -36.3080 C.2   215  ALA215      0.2591
     28  O         -4.7300   14.4500  -35.3440 O.2   215  ALA215     -0.2718
     29  CB        -4.4950   14.6740  -38.7210 C.3   215  ALA215      0.0304
     30  N         -3.1210   13.2740  -36.4080 N.am  216  ALA216     -0.1980
     31  CA        -3.0230   12.2270  -35.3710 C.3   216  ALA216      0.1597
     32  C         -2.6050   12.7460  -33.9700 C.2   216  ALA216      0.2287
     33  O         -3.2530   12.4290  -32.9690 O.2   216  ALA216     -0.2864
     34  CB        -2.0930   11.1070  -35.8320 C.3   216  ALA216      0.0319
     35  N         -5.2570   15.4800  -32.6540 N.3   219  ALA219     -0.1245
     36  CA        -6.4340   14.7230  -32.2320 C.3   219  ALA219      0.1562
     37  C         -6.1650   13.9560  -30.9360 C.2   219  ALA219      0.2260
     38  O         -7.0050   13.9330  -30.0240 O.2   219  ALA219     -0.2867
     39  CB        -6.8710   13.7650  -33.3230 C.3   219  ALA219      0.0290
     40  N         -3.3050    3.8830  -26.9520 N.3   249  PHE249     -0.1227
     41  CA        -4.2300    3.9960  -28.0880 C.3   249  PHE249      0.1736
     42  C         -3.5030    3.5800  -29.3600 C.2   249  PHE249      0.2595
     43  O         -4.0320    2.8160  -30.1640 O.2   249  PHE249     -0.2718
     44  CB        -4.8190    5.4060  -28.2650 C.3   249  PHE249      0.0547
     45  CG        -5.5270    5.5990  -29.5970 C.ar  249  PHE249     -0.0202
     46  CD1       -4.8220    6.0150  -30.7310 C.ar  249  PHE249     -0.0042
     47  CD2       -6.8810    5.3370  -29.7300 C.ar  249  PHE249     -0.0042
     48  CE1       -5.4520    6.1760  -31.9560 C.ar  249  PHE249     -0.0003
     49  CE2       -7.5230    5.5000  -30.9540 C.ar  249  PHE249     -0.0003
     50  CZ        -6.8090    5.9200  -32.0630 C.ar  249  PHE249     -0.0000
     51  N         -2.2820    4.0780  -29.5290 N.am  250  TRP250     -0.1976
     52  CA        -1.5110    3.7970  -30.7370 C.3   250  TRP250      0.1640
     53  C         -0.8980    2.4080  -30.7360 C.2   250  TRP250      0.2290
     54  O         -0.8600    1.7520  -31.7800 O.2   250  TRP250     -0.2864
     55  CB        -0.4630    4.8890  -30.9600 C.3   250  TRP250      0.0576
     56  CG        -1.1380    6.1660  -31.3280 C.ar  250  TRP250      0.0006
     57  CD1       -1.2870    7.2750  -30.5530 C.ar  250  TRP250      0.0946
     58  CD2       -1.8320    6.4290  -32.5500 C.ar  250  TRP250      0.0152
     59  NE1       -2.0080    8.2200  -31.2260 N.ar  250  TRP250     -0.2442
     60  CE2       -2.3550    7.7250  -32.4580 C.ar  250  TRP250      0.0810
     61  CE3       -2.0470    5.6910  -33.7250 C.ar  250  TRP250      0.0012
     62  CZ2       -3.0720    8.3150  -33.5050 C.ar  250  TRP250      0.0191
     63  CZ3       -2.7660    6.2670  -34.7560 C.ar  250  TRP250      0.0001
     64  CH2       -3.2680    7.5640  -34.6430 C.ar  250  TRP250      0.0015
     65  N         -3.5370    0.0710  -31.7100 N.3   253  THR253     -0.1203
     66  CA        -3.9940    0.2790  -33.0760 C.3   253  THR253      0.1994
     67  C         -2.9640   -0.2350  -34.0910 C.2   253  THR253      0.2617
     68  O         -3.2970   -1.0570  -34.9450 O.2   253  THR253     -0.2717
     69  CB        -4.3250    1.7650  -33.3410 C.3   253  THR253      0.1784
     70  OG1       -5.3140    2.2180  -32.4090 O.3   253  THR253     -0.2211
     71  CG2       -4.8750    1.9590  -34.7410 C.3   253  THR253      0.0376
     72  N         -1.7210    0.2350  -33.9950 N.am  254  ILE254     -0.1979
     73  CA        -0.6860   -0.0950  -34.9900 C.3   254  ILE254      0.1595
     74  C          0.4220   -1.0230  -34.4720 C.2   254  ILE254      0.2287
     75  O          1.3390   -1.3560  -35.2100 O.2   254  ILE254     -0.2864
     76  CB        -0.0650    1.1780  -35.6190 C.3   254  ILE254      0.0276
     77  CG1        0.5610    2.0790  -34.5480 C.3   254  ILE254      0.0022
     78  CG2       -1.1280    1.9340  -36.4120 C.3   254  ILE254      0.0022
     79  CD1        1.3220    3.2610  -35.0940 C.3   254  ILE254      0.0001
@<TRIPOS>BOND
     1    12    11    1
     2    11    10   ar
     3    11     9   ar
     4    10     8   ar
     5     9     7   ar
     6     8     6   ar
     7     7     6   ar
     8     6     5    1
     9     5     2    1
    10     1     2    1
    11     2     3    1
    12     3     4    2
    13    13    14    1
    14    14    15    1
    15    23    22    1
    16    17    15   am
    17    17    18    1
    18    21    22    1
    19    21    18    1
    20    15    16    2
    21    22    24    1
    22    18    19    1
    23    19    20    2
    24    29    26    1
    25    25    26    1
    26    26    27    1
    27    78    76    1
    28    30    27   am
    29    30    31    1
    30    27    28    2
    31    34    31    1
    32    76    73    1
    33    76    77    1
    34    31    32    1
    35    75    74    2
    36    79    77    1
    37    73    74    1
    38    73    72    1
    39    68    67    2
    40    63    64   ar
    41    63    61   ar
    42    71    69    1
    43    64    62   ar
    44    67    72   am
    45    67    66    1
    46    32    33    2
    47    61    58   ar
    48    62    60   ar
    49    69    66    1
    50    69    70    1
    51    39    36    1
    52    66    65    1
    53    35    36    1
    54    58    60   ar
    55    58    56   ar
    56    60    59   ar
    57    36    37    1
    58    50    48   ar
    59    50    49   ar
    60    48    46   ar
    61    54    53    2
    62    56    55    1
    63    56    57   ar
    64    59    57   ar
    65    55    52    1
    66    49    47   ar
    67    37    38    2
    68    52    53    1
    69    52    51    1
    70    46    45   ar
    71    43    42    2
    72    47    45   ar
    73    45    44    1
    74    51    42   am
    75    42    41    1
    76    44    41    1
    77    41    40    1
