@<TRIPOS>MOLECULE
tmp/4casC03.pdb
 133 131 0 0 0
SMALL
GASTEIGER

@<TRIPOS>ATOM
      1  N         -3.1650   43.5330  -24.9860 N.3    33  PHE33      -0.1241
      2  CA        -4.6190   43.6780  -24.9080 C.3    33  PHE33       0.1605
      3  C         -5.2720   42.3310  -25.1480 C.2    33  PHE33       0.2264
      4  O         -4.6470   41.4270  -25.7140 O.2    33  PHE33      -0.2867
      5  CB        -5.1440   44.7540  -25.8760 C.3    33  PHE33       0.0534
      6  CG        -4.9820   44.4070  -27.3240 C.ar   33  PHE33      -0.0203
      7  CD1       -3.7670   44.6110  -27.9690 C.ar   33  PHE33      -0.0042
      8  CD2       -6.0460   43.8850  -28.0560 C.ar   33  PHE33      -0.0042
      9  CE1       -3.6070   44.2930  -29.3170 C.ar   33  PHE33      -0.0003
     10  CE2       -5.8960   43.5610  -29.4030 C.ar   33  PHE33      -0.0003
     11  CZ        -4.6750   43.7690  -30.0370 C.ar   33  PHE33      -0.0000
     12  N         -2.7870   39.5360  -26.8370 N.3    46  ILE46      -0.1245
     13  CA        -1.9850   39.9030  -28.0010 C.3    46  ILE46       0.1561
     14  C         -0.9170   40.8810  -27.5350 C.2    46  ILE46       0.2260
     15  O         -1.2090   41.8490  -26.8170 O.2    46  ILE46      -0.2867
     16  CB        -2.8270   40.5790  -29.0910 C.3    46  ILE46       0.0252
     17  CG1       -3.9840   39.6790  -29.5050 C.3    46  ILE46       0.0019
     18  CG2       -1.9700   40.8920  -30.3150 C.3    46  ILE46       0.0019
     19  CD1       -5.0160   40.3930  -30.3600 C.3    46  ILE46       0.0001
     20  N         -2.6670   40.0290  -59.3030 N.3    89  PHE89      -0.1241
     21  CA        -2.2380   38.6250  -59.3460 C.3    89  PHE89       0.1605
     22  C         -1.3410   38.3040  -60.5640 C.2    89  PHE89       0.2264
     23  O         -0.4300   37.4550  -60.4860 O.2    89  PHE89      -0.2867
     24  CB        -3.4630   37.6940  -59.2960 C.3    89  PHE89       0.0534
     25  CG        -3.9970   37.4450  -57.8910 C.ar   89  PHE89      -0.0203
     26  CD1       -3.9470   38.4350  -56.9110 C.ar   89  PHE89      -0.0042
     27  CD2       -4.5840   36.2290  -57.5490 C.ar   89  PHE89      -0.0042
     28  CE1       -4.4610   38.2030  -55.6440 C.ar   89  PHE89      -0.0003
     29  CE2       -5.0800   35.9900  -56.2760 C.ar   89  PHE89      -0.0003
     30  CZ        -5.0210   36.9770  -55.3280 C.ar   89  PHE89      -0.0000
     31  N         15.8830   40.2260  -49.9340 N.3   120  MET120     -0.1245
     32  CA        15.0820   39.1940  -49.3260 C.3   120  MET120      0.1570
     33  C         15.9890   38.2540  -48.5520 C.2   120  MET120      0.2261
     34  O         15.6840   37.9140  -47.4120 O.2   120  MET120     -0.2867
     35  CB        14.2980   38.4360  -50.3970 C.3   120  MET120      0.0387
     36  CG        13.4920   37.2500  -49.8720 C.3   120  MET120      0.0595
     37  SD        12.2750   36.5160  -51.0070 S.3   120  MET120     -0.1393
     38  CE        12.3670   34.7900  -50.5010 C.3   120  MET120      0.0692
     39  N         16.3790   25.7430  -48.6820 N.3   154  PHE154     -0.1227
     40  CA        15.6000   25.3800  -49.8570 C.3   154  PHE154      0.1736
     41  C         15.3420   26.6120  -50.7640 C.2   154  PHE154      0.2595
     42  O         15.5100   26.5650  -52.0070 O.2   154  PHE154     -0.2718
     43  CB        14.2690   24.7190  -49.4890 C.3   154  PHE154      0.0547
     44  CG        13.3770   24.5210  -50.6750 C.ar  154  PHE154     -0.0202
     45  CD1       13.7800   23.6990  -51.7210 C.ar  154  PHE154     -0.0042
     46  CD2       12.1670   25.1810  -50.7760 C.ar  154  PHE154     -0.0042
     47  CE1       12.9870   23.5400  -52.8320 C.ar  154  PHE154     -0.0003
     48  CE2       11.3620   25.0210  -51.8940 C.ar  154  PHE154     -0.0003
     49  CZ        11.7700   24.1980  -52.9130 C.ar  154  PHE154     -0.0000
     50  N         14.9420   27.7160  -50.1380 N.am  155  VAL155     -0.1980
     51  CA        14.7170   28.9650  -50.8630 C.3   155  VAL155      0.1595
     52  C         15.9910   29.4020  -51.6570 C.2   155  VAL155      0.2287
     53  O         15.9010   29.8400  -52.8230 O.2   155  VAL155     -0.2864
     54  CB        14.1990   30.0430  -49.8780 C.3   155  VAL155      0.0276
     55  CG1       14.2630   31.4280  -50.4850 C.3   155  VAL155      0.0022
     56  CG2       12.7790   29.7090  -49.4510 C.3   155  VAL155      0.0022
     57  N         16.5330   27.1440  -54.9870 N.3   158  ILE158     -0.1245
     58  CA        15.7360   27.5540  -56.1590 C.3   158  ILE158      0.1561
     59  C         16.0050   29.0040  -56.5960 C.2   158  ILE158      0.2260
     60  O         15.7110   29.3960  -57.7460 O.2   158  ILE158     -0.2867
     61  CB        14.2000   27.3710  -55.9200 C.3   158  ILE158      0.0252
     62  CG1       13.6960   28.2670  -54.7820 C.3   158  ILE158      0.0019
     63  CG2       13.8730   25.9040  -55.6170 C.3   158  ILE158      0.0019
     64  CD1       12.2560   28.0100  -54.4220 C.3   158  ILE158      0.0001
     65  N         13.2330   31.9830  -59.6090 N.3   173  VAL173     -0.1245
     66  CA        11.8030   32.1180  -59.4230 C.3   173  VAL173      0.1561
     67  C         11.4200   33.6010  -59.5370 C.2   173  VAL173      0.2260
     68  O         11.9840   34.4300  -58.8530 O.2   173  VAL173     -0.2867
     69  CB        11.4090   31.5880  -58.0040 C.3   173  VAL173      0.0252
     70  CG1        9.9000   31.4630  -57.8850 C.3   173  VAL173      0.0019
     71  CG2       12.1050   30.2420  -57.6640 C.3   173  VAL173      0.0019
     72  N          2.2590   36.6890  -57.7780 N.3   177  ILE177     -0.1231
     73  CA         1.3250   35.6380  -57.3900 C.3   177  ILE177      0.1692
     74  C          1.3310   34.5740  -58.4870 C.2   177  ILE177      0.2592
     75  O          1.8550   33.4810  -58.2740 O.2   177  ILE177     -0.2718
     76  CB        -0.1090   36.1790  -57.0940 C.3   177  ILE177      0.0266
     77  CG1       -0.1050   37.1170  -55.8840 C.3   177  ILE177      0.0019
     78  CG2       -1.0780   35.0360  -56.8040 C.3   177  ILE177      0.0020
     79  CD1        0.3140   36.4510  -54.5830 C.3   177  ILE177      0.0001
     80  N          0.7820   34.9050  -59.6560 N.am  178  TRP178     -0.1976
     81  CA         0.7370   33.9540  -60.7730 C.3   178  TRP178      0.1640
     82  C          2.1250   33.6890  -61.3810 C.2   178  TRP178      0.2290
     83  O          2.4500   32.5340  -61.6760 O.2   178  TRP178     -0.2864
     84  CB        -0.2310   34.3870  -61.8860 C.3   178  TRP178      0.0576
     85  CG        -1.7120   34.4410  -61.5390 C.ar  178  TRP178      0.0006
     86  CD1       -2.5950   35.3490  -62.0100 C.ar  178  TRP178      0.0946
     87  CD2       -2.4650   33.5780  -60.6550 C.ar  178  TRP178      0.0152
     88  NE1       -3.8500   35.1230  -61.5030 N.ar  178  TRP178     -0.2442
     89  CE2       -3.8020   34.0460  -60.6600 C.ar  178  TRP178      0.0810
     90  CE3       -2.1460   32.4620  -59.8610 C.ar  178  TRP178      0.0012
     91  CZ2       -4.8230   33.4400  -59.9100 C.ar  178  TRP178      0.0191
     92  CZ3       -3.1710   31.8620  -59.1050 C.ar  178  TRP178      0.0001
     93  CH2       -4.4930   32.3560  -59.1490 C.ar  178  TRP178      0.0015
     94  N          5.1780   33.4760  -60.0690 N.3   180  HIS180     -0.1226
     95  CA         6.0050   32.4920  -59.3380 C.3   180  HIS180      0.1752
     96  C          5.3820   31.1000  -59.4950 C.2   180  HIS180      0.2595
     97  O          6.0860   30.0910  -59.5130 O.2   180  HIS180     -0.2718
     98  CB         6.2620   32.9130  -57.8590 C.3   180  HIS180      0.0759
     99  CG         5.3040   32.3410  -56.8470 C.ar  180  HIS180      0.0818
    100  ND1        3.9920   32.7610  -56.7380 N.ar  180  HIS180     -0.2268
    101  CD2        5.4910   31.4290  -55.8570 C.ar  180  HIS180      0.1154
    102  CE1        3.4040   32.1070  -55.7480 C.ar  180  HIS180      0.1986
    103  NE2        4.2960   31.3010  -55.1920 N.ar  180  HIS180     -0.2212
    104  N          4.0560   31.0740  -59.6480 N.am  181  ILE181     -0.1980
    105  CA         3.3100   29.8520  -59.9780 C.3   181  ILE181      0.1595
    106  C          3.7120   29.3420  -61.3730 C.2   181  ILE181      0.2287
    107  O          4.0100   28.1410  -61.5310 O.2   181  ILE181     -0.2864
    108  CB         1.7580   30.0670  -59.8730 C.3   181  ILE181      0.0276
    109  CG1        1.2960   30.0550  -58.4100 C.3   181  ILE181      0.0022
    110  CG2        0.9810   29.0480  -60.7060 C.3   181  ILE181      0.0022
    111  CD1        1.7040   28.8250  -57.6340 C.3   181  ILE181      0.0001
    112  N          6.4060   29.6570  -63.0040 N.3   183  TRP183     -0.1227
    113  CA         7.7450   29.0570  -62.9260 C.3   183  TRP183      0.1737
    114  C          7.7120   27.5500  -62.5980 C.2   183  TRP183      0.2595
    115  O          8.5240   26.7830  -63.1380 O.2   183  TRP183     -0.2718
    116  CB         8.5930   29.8100  -61.8960 C.3   183  TRP183      0.0564
    117  CG         9.9090   29.1540  -61.5880 C.ar  183  TRP183      0.0003
    118  CD1       11.0670   29.2840  -62.2900 C.ar  183  TRP183      0.0946
    119  CD2       10.2010   28.2770  -60.4850 C.ar  183  TRP183      0.0152
    120  NE1       12.0580   28.5450  -61.7090 N.ar  183  TRP183     -0.2442
    121  CE2       11.5580   27.9090  -60.6020 C.ar  183  TRP183      0.0810
    122  CE3        9.4420   27.7460  -59.4330 C.ar  183  TRP183      0.0012
    123  CZ2       12.1840   27.0410  -59.6950 C.ar  183  TRP183      0.0191
    124  CZ3       10.0530   26.9000  -58.5330 C.ar  183  TRP183      0.0001
    125  CH2       11.4200   26.5580  -58.6610 C.ar  183  TRP183      0.0015
    126  N          6.7910   27.1370  -61.7220 N.am  184  LEU184     -0.1980
    127  CA         6.7070   25.7430  -61.3090 C.3   184  LEU184      0.1596
    128  C          6.6040   24.8150  -62.5100 C.2   184  LEU184      0.2287
    129  O          7.3110   23.8030  -62.6010 O.2   184  LEU184     -0.2864
    130  CB         5.5020   25.5340  -60.3910 C.3   184  LEU184      0.0297
    131  CG         5.5690   26.1770  -58.9940 C.3   184  LEU184      0.0022
    132  CD1        4.1830   26.2270  -58.3310 C.3   184  LEU184      0.0001
    133  CD2        6.5820   25.4260  -58.1150 C.3   184  LEU184      0.0001
@<TRIPOS>BOND
     1   115   114    2
     2   112   113    1
     3   113   114    1
     4   113   116    1
     5   129   128    2
     6   114   126   am
     7   128   127    1
     8   118   120   ar
     9   118   117   ar
    10    86    85   ar
    11    86    88   ar
    12   116   117    1
    13    84    85    1
    14    84    81    1
    15   126   127    1
    16   120   121   ar
    17    83    82    2
    18   117   119   ar
    19    85    87   ar
    20   107   106    2
    21    88    89   ar
    22    82    81    1
    23   106   105    1
    24   127   130    1
    25    81    80    1
    26   110   108    1
    27    89    87   ar
    28    89    91   ar
    29    87    90   ar
    30   121   119   ar
    31   121   123   ar
    32    22    23    2
    33    22    21    1
    34   119   122   ar
    35   130   131    1
    36    94    95    1
    37   105   108    1
    38   105   104    1
    39    91    93   ar
    40   108   109    1
    41    90    92   ar
    42   123   125   ar
    43    80    74   am
    44   104    96   am
    45    65    66    1
    46    67    66    1
    47    67    68    2
    48    97    96    2
    49    96    95    1
    50   122   124   ar
    51    66    69    1
    52    21    20    1
    53    21    24    1
    54    95    98    1
    55    24    25    1
    56    93    92   ar
    57   131   132    1
    58   131   133    1
    59   125   124   ar
    60    74    75    2
    61    74    73    1
    62   109   111    1
    63    69    70    1
    64    69    71    1
    65    25    27   ar
    66    25    26   ar
    67    98    99    1
    68    72    73    1
    69    60    59    2
    70    27    29   ar
    71    73    76    1
    72    76    78    1
    73    76    77    1
    74    26    28   ar
    75    99   100   ar
    76    99   101   ar
    77   100   102   ar
    78    59    58    1
    79    29    30   ar
    80    58    61    1
    81    58    57    1
    82    61    63    1
    83    61    62    1
    84    77    79    1
    85   101   103   ar
    86   102   103   ar
    87    28    30   ar
    88    62    64    1
    89    49    47   ar
    90    49    48   ar
    91    47    45   ar
    92    53    52    2
    93    42    41    2
    94    48    46   ar
    95    45    44   ar
    96    52    51    1
    97    37    38    1
    98    37    36    1
    99    51    50    1
   100    51    54    1
   101    46    44   ar
   102    41    50   am
   103    41    40    1
   104    44    43    1
   105    55    54    1
   106    35    36    1
   107    35    32    1
   108    31    32    1
   109    54    56    1
   110    40    43    1
   111    40    39    1
   112    32    33    1
   113    33    34    2
   114    19    17    1
   115    18    16    1
   116    11    10   ar
   117    11     9   ar
   118    17    16    1
   119    10     8   ar
   120     9     7   ar
   121    16    13    1
   122     8     6   ar
   123    13    14    1
   124    13    12    1
   125     7     6   ar
   126    14    15    2
   127     6     5    1
   128     5     2    1
   129     4     3    2
   130     3     2    1
   131     1     2    1
