@<TRIPOS>MOLECULE
tmp/4casC00.pdb
 132 134 0 0 0
SMALL
GASTEIGER

@<TRIPOS>ATOM
      1  N          7.3250   14.7580  -61.2870 N.3   195  TYR195     -0.1227
      2  CA         6.7700   13.5250  -60.7220 C.3   195  TYR195      0.1736
      3  C          7.7790   12.3800  -60.7680 C.2   195  TYR195      0.2595
      4  O          7.7040   11.4620  -59.9460 O.2   195  TYR195     -0.2718
      5  CB         5.4710   13.1180  -61.4230 C.3   195  TYR195      0.0548
      6  CG         4.2850   13.9700  -61.0360 C.ar  195  TYR195     -0.0200
      7  CD1        3.8480   14.0180  -59.7180 C.ar  195  TYR195     -0.0009
      8  CD2        3.6050   14.7240  -61.9890 C.ar  195  TYR195     -0.0009
      9  CE1        2.7750   14.7950  -59.3630 C.ar  195  TYR195      0.0417
     10  CE2        2.5270   15.4970  -61.6370 C.ar  195  TYR195      0.0417
     11  CZ         2.1210   15.5280  -60.3240 C.ar  195  TYR195      0.1957
     12  OH         1.0420   16.3030  -59.9650 O.3   195  TYR195     -0.2866
     13  N          8.7260   12.4420  -61.7060 N.am  196  TYR196     -0.1976
     14  CA         9.7610   11.4040  -61.8200 C.3   196  TYR196      0.1639
     15  C         11.0830   11.7260  -61.0770 C.2   196  TYR196      0.2290
     16  O         12.0480   10.9450  -61.1360 O.2   196  TYR196     -0.2864
     17  CB         9.9720   11.0380  -63.3080 C.3   196  TYR196      0.0560
     18  CG         8.8100   10.2220  -63.8870 C.ar  196  TYR196     -0.0198
     19  CD1        7.6520   10.8370  -64.3580 C.ar  196  TYR196     -0.0009
     20  CD2        8.8600    8.8410  -63.9300 C.ar  196  TYR196     -0.0009
     21  CE1        6.5990   10.0920  -64.8760 C.ar  196  TYR196      0.0417
     22  CE2        7.8150    8.0950  -64.4440 C.ar  196  TYR196      0.0417
     23  CZ         6.6900    8.7190  -64.9190 C.ar  196  TYR196      0.1957
     24  OH         5.6690    7.9560  -65.4430 O.3   196  TYR196     -0.2866
     25  N         12.8750   11.4670  -57.7170 N.3   198  PRO198     -0.2116
     26  CA        12.6300   10.7440  -56.4520 C.3   198  PRO198      0.1372
     27  C         12.5670   11.6040  -55.1650 C.2   198  PRO198      0.2244
     28  O         11.8430   11.2710  -54.2070 O.2   198  PRO198     -0.2868
     29  CB        13.8040    9.7690  -56.3790 C.3   198  PRO198      0.0268
     30  CG        14.2200    9.5790  -57.7810 C.3   198  PRO198      0.0207
     31  CD        13.9990   10.8900  -58.4650 C.3   198  PRO198      0.0892
     32  N          9.2540   13.0240  -54.7330 N.3   201  GLY201     -0.1210
     33  CA         8.4700   12.0100  -54.0220 C.3   201  GLY201      0.1956
     34  C          8.7630   11.8950  -52.5260 C.2   201  GLY201      0.2611
     35  O          7.8370   11.8070  -51.7100 O.2   201  GLY201     -0.2717
     36  N         10.0420   11.8910  -52.1580 N.am  202  PHE202     -0.1976
     37  CA        10.4170   11.9600  -50.7400 C.3   202  PHE202      0.1639
     38  C          9.8230   13.1910  -50.0530 C.2   202  PHE202      0.2290
     39  O          9.2200   13.0890  -48.9910 O.2   202  PHE202     -0.2864
     40  CB        11.9400   11.9780  -50.5740 C.3   202  PHE202      0.0560
     41  CG        12.5690   10.6120  -50.5840 C.ar  202  PHE202     -0.0200
     42  CD1       12.3430    9.7340  -49.5280 C.ar  202  PHE202     -0.0042
     43  CD2       13.3960   10.2070  -51.6320 C.ar  202  PHE202     -0.0042
     44  CE1       12.9350    8.4770  -49.5050 C.ar  202  PHE202     -0.0003
     45  CE2       13.9810    8.9440  -51.6160 C.ar  202  PHE202     -0.0003
     46  CZ        13.7550    8.0780  -50.5490 C.ar  202  PHE202     -0.0000
     47  N          5.9800   12.7470  -49.6470 N.3   205  GLY205     -0.1210
     48  CA         5.6890   11.7950  -48.5860 C.3   205  GLY205      0.1956
     49  C          5.8370   12.4090  -47.2100 C.2   205  GLY205      0.2611
     50  O          5.0270   12.1450  -46.3150 O.2   205  GLY205     -0.2717
     51  N          6.8790   13.2150  -47.0340 N.am  206  PHE206     -0.1976
     52  CA         7.0890   13.8810  -45.7700 C.3   206  PHE206      0.1639
     53  C          6.0820   15.0250  -45.5840 C.2   206  PHE206      0.2290
     54  O          5.6370   15.2760  -44.4490 O.2   206  PHE206     -0.2864
     55  CB         8.5180   14.4010  -45.6530 C.3   206  PHE206      0.0560
     56  CG         9.5370   13.3340  -45.3670 C.ar  206  PHE206     -0.0200
     57  CD1        9.4700   12.5870  -44.2000 C.ar  206  PHE206     -0.0042
     58  CD2       10.5950   13.1090  -46.2520 C.ar  206  PHE206     -0.0042
     59  CE1       10.4250   11.6080  -43.9380 C.ar  206  PHE206     -0.0003
     60  CE2       11.5550   12.1450  -45.9880 C.ar  206  PHE206     -0.0003
     61  CZ        11.4720   11.3890  -44.8340 C.ar  206  PHE206     -0.0000
     62  N          2.6840   -0.5540  -32.1060 N.3   256  PHE256     -0.1241
     63  CA         3.8180    0.1470  -31.5100 C.3   256  PHE256      0.1605
     64  C          3.4120    1.5890  -31.2040 C.2   256  PHE256      0.2264
     65  O          2.3090    2.0120  -31.5440 O.2   256  PHE256     -0.2867
     66  CB         5.0500    0.0670  -32.4370 C.3   256  PHE256      0.0534
     67  CG         4.9020    0.8080  -33.7280 C.ar  256  PHE256     -0.0203
     68  CD1        4.0790    0.3290  -34.7280 C.ar  256  PHE256     -0.0042
     69  CD2        5.5960    1.9840  -33.9440 C.ar  256  PHE256     -0.0042
     70  CE1        3.9320    1.0200  -35.9170 C.ar  256  PHE256     -0.0003
     71  CE2        5.4570    2.6830  -35.1340 C.ar  256  PHE256     -0.0003
     72  CZ         4.6260    2.1980  -36.1250 C.ar  256  PHE256     -0.0000
     73  N          9.5810   12.9530  -34.1100 N.3   266  TRP266     -0.1241
     74  CA         9.0080   12.4950  -35.3860 C.3   266  TRP266      0.1605
     75  C          8.4950   13.6740  -36.2200 C.2   266  TRP266      0.2264
     76  O          8.8480   13.8270  -37.3940 O.2   266  TRP266     -0.2867
     77  CB         7.8600   11.5180  -35.1450 C.3   266  TRP266      0.0550
     78  CG         8.2730   10.1000  -34.7860 C.ar  266  TRP266      0.0003
     79  CD1        8.4490    9.5850  -33.5340 C.ar  266  TRP266      0.0946
     80  CD2        8.5030    9.0140  -35.6960 C.ar  266  TRP266      0.0152
     81  NE1        8.7990    8.2530  -33.6100 N.ar  266  TRP266     -0.2442
     82  CE2        8.8290    7.8770  -34.9230 C.ar  266  TRP266      0.0810
     83  CE3        8.4590    8.8930  -37.0860 C.ar  266  TRP266      0.0012
     84  CZ2        9.1130    6.6450  -35.4900 C.ar  266  TRP266      0.0191
     85  CZ3        8.7310    7.6640  -37.6520 C.ar  266  TRP266      0.0001
     86  CH2        9.0540    6.5530  -36.8540 C.ar  266  TRP266      0.0015
     87  N         10.0380   14.9510  -39.7380 N.3   270  PHE270     -0.1241
     88  CA         9.2040   14.9740  -40.9570 C.3   270  PHE270      0.1605
     89  C          9.1670   16.3420  -41.6200 C.2   270  PHE270      0.2264
     90  O          9.3130   16.4660  -42.8470 O.2   270  PHE270     -0.2867
     91  CB         7.7820   14.5190  -40.6250 C.3   270  PHE270      0.0534
     92  CG         7.5760   13.0540  -40.8150 C.ar  270  PHE270     -0.0203
     93  CD1        8.3540   12.1360  -40.1070 C.ar  270  PHE270     -0.0042
     94  CD2        6.6310   12.5930  -41.7180 C.ar  270  PHE270     -0.0042
     95  CE1        8.1880   10.7870  -40.2710 C.ar  270  PHE270     -0.0003
     96  CE2        6.4560   11.2400  -41.8950 C.ar  270  PHE270     -0.0003
     97  CZ         7.2410   10.3360  -41.1670 C.ar  270  PHE270     -0.0000
     98  N         15.4960    9.7510  -67.0090 N.3   295  TRP295     -0.1227
     99  CA        16.3570    9.1620  -66.0040 C.3   295  TRP295      0.1737
    100  C         15.6930    7.9080  -65.4400 C.2   295  TRP295      0.2595
    101  O         16.3370    6.8740  -65.2820 O.2   295  TRP295     -0.2718
    102  CB        16.6490   10.1920  -64.9100 C.3   295  TRP295      0.0564
    103  CG        17.5380    9.7280  -63.8280 C.ar  295  TRP295      0.0003
    104  CD1       18.8880    9.6790  -63.8470 C.ar  295  TRP295      0.0946
    105  CD2       17.1340    9.2690  -62.5480 C.ar  295  TRP295      0.0152
    106  NE1       19.3570    9.1970  -62.6590 N.ar  295  TRP295     -0.2442
    107  CE2       18.2940    8.9440  -61.8400 C.ar  295  TRP295      0.0810
    108  CE3       15.8980    9.0890  -61.9330 C.ar  295  TRP295      0.0012
    109  CZ2       18.2590    8.4510  -60.5350 C.ar  295  TRP295      0.0191
    110  CZ3       15.8590    8.5940  -60.6420 C.ar  295  TRP295      0.0001
    111  CH2       17.0300    8.2860  -59.9530 C.ar  295  TRP295      0.0015
    112  N         14.3950    7.9940  -65.1670 N.am  296  CYS296     -0.1970
    113  CA        13.6320    6.8180  -64.7330 C.3   296  CYS296      0.1712
    114  C         13.5420    5.7580  -65.8400 C.2   296  CYS296      0.2296
    115  O         13.6580    4.5540  -65.5660 O.2   296  CYS296     -0.2864
    116  CB        12.2360    7.2140  -64.2580 C.3   296  CYS296      0.0983
    117  SG        12.2060    8.0590  -62.6490 S.3   296  CYS296     -0.0798
    118  N         16.7320    3.8550  -65.9670 N.3   299  HIS299     -0.1241
    119  CA        16.8630    2.8790  -64.8930 C.3   299  HIS299      0.1621
    120  C         15.6810    1.8990  -64.8400 C.2   299  HIS299      0.2264
    121  O         15.5480    1.1380  -63.8920 O.2   299  HIS299     -0.2867
    122  CB        17.0760    3.6040  -63.5560 C.3   299  HIS299      0.0745
    123  CG        18.3200    4.4400  -63.5210 C.ar  299  HIS299      0.0817
    124  ND1       19.5760    3.8980  -63.6610 N.ar  299  HIS299     -0.2268
    125  CD2       18.5030    5.7750  -63.3630 C.ar  299  HIS299      0.1154
    126  CE1       20.4800    4.8550  -63.5890 C.ar  299  HIS299      0.1986
    127  NE2       19.8560    6.0020  -63.4000 N.ar  299  HIS299     -0.2212
    128  N         12.4680    2.1500  -64.4330 N.3   301  ALA301     -0.1245
    129  CA        11.4390    2.3620  -63.4070 C.3   301  ALA301      0.1562
    130  C         10.0920    2.8070  -63.9780 C.2   301  ALA301      0.2260
    131  O          9.0510    2.4100  -63.4390 O.2   301  ALA301     -0.2867
    132  CB        11.9230    3.3600  -62.3650 C.3   301  ALA301      0.0290
@<TRIPOS>BOND
     1    98    99    1
     2    99   100    1
     3    99   102    1
     4   118   119    1
     5   114   115    2
     6   114   113    1
     7    24    23    1
     8   100   101    2
     9   100   112   am
    10   112   113    1
    11    23    21   ar
    12    23    22   ar
    13   102   103    1
    14   119   120    1
    15   119   122    1
    16    21    19   ar
    17   120   121    2
    18   113   116    1
    19    22    20   ar
    20   128   129    1
    21    19    18   ar
    22   116   117    1
    23   130   131    2
    24   130   129    1
    25    20    18   ar
    26    18    17    1
    27   104   103   ar
    28   104   106   ar
    29   103   105   ar
    30   124   126   ar
    31   124   123   ar
    32   126   127   ar
    33   122   123    1
    34   123   125   ar
    35   129   132    1
    36   127   125   ar
    37    17    14    1
    38   106   107   ar
    39   105   108   ar
    40   105   107   ar
    41     8    10   ar
    42     8     6   ar
    43   108   110   ar
    44   107   109   ar
    45    14    13    1
    46    14    15    1
    47    13     3   am
    48    10    11   ar
    49     5     6    1
    50     5     2    1
    51     1     2    1
    52    16    15    2
    53     6     7   ar
    54     3     2    1
    55     3     4    2
    56   110   111   ar
    57   109   111   ar
    58    11    12    1
    59    11     9   ar
    60     7     9   ar
    61    31    30    1
    62    31    25    1
    63    30    29    1
    64    25    26    1
    65    26    29    1
    66    26    27    1
    67    27    28    2
    68    32    33    1
    69    33    34    1
    70    34    36   am
    71    34    35    2
    72    36    37    1
    73    43    45   ar
    74    43    41   ar
    75    45    46   ar
    76    37    40    1
    77    37    38    1
    78    41    40    1
    79    41    42   ar
    80    46    44   ar
    81    38    39    2
    82    47    48    1
    83    42    44   ar
    84    48    49    1
    85    49    51   am
    86    49    50    2
    87    51    52    1
    88    58    60   ar
    89    58    56   ar
    90    60    61   ar
    91    52    55    1
    92    52    53    1
    93    55    56    1
    94    53    54    2
    95    56    57   ar
    96    61    59   ar
    97    57    59   ar
    98    90    89    2
    99    96    94   ar
   100    96    97   ar
   101    94    92   ar
   102    89    88    1
   103    97    95   ar
   104    88    91    1
   105    88    87    1
   106    92    91    1
   107    92    93   ar
   108    95    93   ar
   109    85    83   ar
   110    85    86   ar
   111    76    75    2
   112    83    80   ar
   113    86    84   ar
   114    75    74    1
   115    72    70   ar
   116    72    71   ar
   117    70    68   ar
   118    80    82   ar
   119    80    78   ar
   120    84    82   ar
   121    74    77    1
   122    74    73    1
   123    77    78    1
   124    71    69   ar
   125    82    81   ar
   126    78    79   ar
   127    68    67   ar
   128    69    67   ar
   129    67    66    1
   130    81    79   ar
   131    66    63    1
   132    62    63    1
   133    65    64    2
   134    63    64    1
