@<TRIPOS>MOLECULE
tmp/4caxA01.pdb
 236 229 0 0 0
SMALL
GASTEIGER

@<TRIPOS>ATOM
      1  N          8.7140   18.6780   20.7450 N.3    47  TYR47      -0.1227
      2  CA         8.9940   17.2520   20.5680 C.3    47  TYR47       0.1736
      3  C          9.4530   16.8840   19.1390 C.2    47  TYR47       0.2595
      4  O          9.8780   17.7470   18.3650 O.2    47  TYR47      -0.2718
      5  CB         7.8010   16.3930   21.0260 C.3    47  TYR47       0.0548
      6  CG         8.2010   14.9820   21.4390 C.ar   47  TYR47      -0.0200
      7  CD1        9.2810   14.7680   22.2810 C.ar   47  TYR47      -0.0009
      8  CD2        7.4770   13.8750   21.0020 C.ar   47  TYR47      -0.0009
      9  CE1        9.6530   13.4820   22.6760 C.ar   47  TYR47       0.0417
     10  CE2        7.8380   12.5770   21.3840 C.ar   47  TYR47       0.0417
     11  CZ         8.9230   12.3880   22.2140 C.ar   47  TYR47       0.1957
     12  OH         9.2830   11.1120   22.5900 O.3    47  TYR47      -0.2866
     13  N          9.3860   15.6020   18.8050 N.am   48  VAL48      -0.1966
     14  CA        10.0130   15.0770   17.5760 C.3    48  VAL48       0.1727
     15  C          9.4920   15.7190   16.2760 C.2    48  VAL48       0.2616
     16  O          8.2860   15.7080   16.0010 O.2    48  VAL48      -0.2715
     17  CB         9.8300   13.5530   17.4960 C.3    48  VAL48       0.0290
     18  CG1       10.4250   12.9820   16.2240 C.3    48  VAL48       0.0023
     19  CG2       10.4520   12.8900   18.7280 C.3    48  VAL48       0.0023
     20  N         10.4120   16.2720   15.4900 N.am   49  GLU49      -0.1963
     21  CA        10.1180   16.7820   14.1430 C.3    49  GLU49       0.1733
     22  C         10.7750   15.8990   13.0730 C.2    49  GLU49       0.2616
     23  O         11.6680   15.1050   13.3810 O.2    49  GLU49      -0.2715
     24  CB        10.6300   18.2210   13.9960 C.3    49  GLU49       0.0429
     25  CG         9.8730   19.2430   14.8290 C.3    49  GLU49       0.1163
     26  CD        10.4950   20.6190   14.7930 C.2    49  GLU49       0.3649
     27  OE1       11.3440   20.8760   13.9000 O.co2  49  GLU49      -0.2457
     28  OE2       10.1330   21.4480   15.6620 O.co2  49  GLU49      -0.2457
     29  N         10.3420   16.0270   11.8200 N.am   50  ASP50      -0.1957
     30  CA        11.0470   15.3690   10.7180 C.3    50  ASP50       0.1840
     31  C         12.2440   16.2220   10.3430 C.2    50  ASP50       0.2622
     32  O         12.3670   17.3650   10.7870 O.2    50  ASP50      -0.2715
     33  CB        10.1640   15.2270    9.4890 C.3    50  ASP50       0.1450
     34  CG         9.7490   16.5570    8.9310 C.2    50  ASP50       0.3671
     35  OD1        9.2450   17.3850    9.7200 O.co2  50  ASP50      -0.2456
     36  OD2        9.9490   16.7890    7.7120 O.co2  50  ASP50      -0.2456
     37  N         13.1070   15.6650    9.5030 N.am   51  ASP51      -0.1971
     38  CA        14.3530   16.3250    9.1280 C.3    51  ASP51       0.1709
     39  C         14.1060   17.6180    8.3520 C.2    51  ASP51       0.2293
     40  O         14.9500   18.5190    8.3490 O.2    51  ASP51      -0.2864
     41  CB        15.2510   15.3620    8.3440 C.3    51  ASP51       0.1436
     42  CG        16.0740   14.4660    9.2530 C.2    51  ASP51       0.3671
     43  OD1       15.9820   14.6120   10.4930 O.co2  51  ASP51      -0.2456
     44  OD2       16.8340   13.6280    8.7350 O.co2  51  ASP51      -0.2456
     45  N          6.7750   18.5350    9.9630 N.3    55  PHE55      -0.1227
     46  CA         5.8500   17.8710   10.8780 C.3    55  PHE55       0.1736
     47  C          6.4110   17.7190   12.2940 C.2    55  PHE55       0.2595
     48  O          7.5990   17.4670   12.4760 O.2    55  PHE55      -0.2718
     49  CB         5.5290   16.4680   10.3770 C.3    55  PHE55       0.0547
     50  CG         5.0920   16.4110    8.9430 C.ar   55  PHE55      -0.0202
     51  CD1        3.8920   16.9670    8.5550 C.ar   55  PHE55      -0.0042
     52  CD2        5.8780   15.7820    7.9940 C.ar   55  PHE55      -0.0042
     53  CE1        3.4790   16.9030    7.2290 C.ar   55  PHE55      -0.0003
     54  CE2        5.4830   15.7140    6.6720 C.ar   55  PHE55      -0.0003
     55  CZ         4.2820   16.2770    6.2870 C.ar   55  PHE55      -0.0000
     56  N          5.5300   17.8060   13.2840 N.am   56  ARG56      -0.1966
     57  CA         5.9080   17.5460   14.6720 C.3    56  ARG56       0.1729
     58  C          4.8670   16.6610   15.3580 C.2    56  ARG56       0.2616
     59  O          3.6680   16.9530   15.3170 O.2    56  ARG56      -0.2715
     60  CB         6.0420   18.8610   15.4440 C.3    56  ARG56       0.0348
     61  CG         6.6630   18.6880   16.8210 C.3    56  ARG56       0.0492
     62  CD         6.8530   20.0120   17.5550 C.3    56  ARG56       0.2205
     63  NE         7.5130   21.0100   16.7250 N.pl3  56  ARG56      -0.0865
     64  CZ         6.9330   22.1320   16.3080 C.cat  56  ARG56       0.5346
     65  NH1        5.6800   22.4110   16.6550 N.pl3  56  ARG56       0.1354
     66  NH2        7.6080   22.9770   15.5470 N.pl3  56  ARG56       0.1354
     67  N          5.3100   15.5740   15.9840 N.am   57  PHE57      -0.1974
     68  CA         4.3650   14.7340   16.7330 C.3    57  PHE57       0.1639
     69  C          3.5150   15.5850   17.6710 C.2    57  PHE57       0.2290
     70  O          3.9980   16.5350   18.3010 O.2    57  PHE57      -0.2864
     71  CB         5.0790   13.6380   17.5270 C.3    57  PHE57       0.0560
     72  CG         5.6640   12.5580   16.6670 C.ar   57  PHE57      -0.0200
     73  CD1        5.0010   12.1270   15.5350 C.ar   57  PHE57      -0.0042
     74  CD2        6.8830   11.9830   16.9870 C.ar   57  PHE57      -0.0042
     75  CE1        5.5330   11.1520   14.7450 C.ar   57  PHE57      -0.0003
     76  CE2        7.4270   10.9950   16.1930 C.ar   57  PHE57      -0.0003
     77  CZ         6.7540   10.5820   15.0710 C.ar   57  PHE57      -0.0000
     78  N          1.2200   14.3040   20.3590 N.3    59  TYR59      -0.1241
     79  CA         0.5570   13.3770   21.2710 C.3    59  TYR59       0.1605
     80  C         -0.5610   14.1320   21.9750 C.2    59  TYR59       0.2264
     81  O         -0.3700   15.2730   22.3920 O.2    59  TYR59      -0.2867
     82  CB         1.5490   12.8250   22.2990 C.3    59  TYR59       0.0534
     83  CG         2.5630   11.8490   21.7200 C.ar   59  TYR59      -0.0201
     84  CD1        3.7250   12.3010   21.1020 C.ar   59  TYR59      -0.0009
     85  CD2        2.3640   10.4770   21.8190 C.ar   59  TYR59      -0.0009
     86  CE1        4.6560   11.4090   20.5870 C.ar   59  TYR59       0.0417
     87  CE2        3.2930    9.5780   21.3140 C.ar   59  TYR59       0.0417
     88  CZ         4.4350   10.0480   20.6930 C.ar   59  TYR59       0.1957
     89  OH         5.3630    9.1600   20.1850 O.3    59  TYR59      -0.2866
     90  N         10.5890    7.1950   27.4770 N.3   113  ASN113     -0.1240
     91  CA         9.9070    7.8920   26.4000 C.3   113  ASN113      0.1653
     92  C          9.7710    9.3730   26.7220 C.2   113  ASN113      0.2266
     93  O          9.9840    9.7860   27.8600 O.2   113  ASN113     -0.2867
     94  CB         8.5240    7.2610   26.1740 C.3   113  ASN113      0.1155
     95  CG         8.0520    7.3660   24.7210 C.2   113  ASN113      0.2627
     96  OD1        8.7300    7.9410   23.8680 O.2   113  ASN113     -0.2716
     97  ND2        6.8880    6.7890   24.4380 N.am  113  ASN113     -0.0877
     98  N         13.4520    3.3520   22.3890 N.3   149  THR149     -0.1203
     99  CA        13.3880    3.4400   20.9590 C.3   149  THR149      0.1994
    100  C         13.7680    4.8700   20.5940 C.2   149  THR149      0.2618
    101  O         13.4580    5.8000   21.3330 O.2   149  THR149     -0.2717
    102  CB        11.9520    3.1640   20.5280 C.3   149  THR149      0.1784
    103  OG1       11.8300    1.7890   20.1280 O.3   149  THR149     -0.2211
    104  CG2       11.5550    4.0780   19.4240 C.3   149  THR149      0.0376
    105  N         14.4470    5.0390   19.4650 N.am  150  ALA150     -0.1965
    106  CA        14.9700    6.3420   19.0830 C.3   150  ALA150      0.1728
    107  C         15.0980    6.4470   17.5660 C.2   150  ALA150      0.2616
    108  O         15.3190    5.4500   16.8790 O.2   150  ALA150     -0.2715
    109  CB        16.3320    6.5780   19.7570 C.3   150  ALA150      0.0334
    110  N         14.9590    7.6600   17.0440 N.am  151  GLY151     -0.1955
    111  CA        15.1210    7.8790   15.6130 C.3   151  GLY151      0.1869
    112  C         16.5490    8.1230   15.1900 C.2   151  GLY151      0.2309
    113  O         16.8420    8.1900   13.9980 O.2   151  GLY151     -0.2863
    114  N         10.1170    2.4850    8.9660 N.3   163  TYR163     -0.1241
    115  CA         8.7290    2.9390    8.9010 C.3   163  TYR163      0.1605
    116  C          8.1300    2.7780    7.5090 C.2   163  TYR163      0.2264
    117  O          8.7850    3.0800    6.5000 O.2   163  TYR163     -0.2867
    118  CB         8.6270    4.4100    9.2910 C.3   163  TYR163      0.0534
    119  CG         8.5970    4.6620   10.7780 C.ar  163  TYR163     -0.0201
    120  CD1        7.4120    4.5390   11.4960 C.ar  163  TYR163     -0.0009
    121  CD2        9.7470    5.0460   11.4630 C.ar  163  TYR163     -0.0009
    122  CE1        7.3760    4.7820   12.8570 C.ar  163  TYR163      0.0417
    123  CE2        9.7200    5.2810   12.8280 C.ar  163  TYR163      0.0417
    124  CZ         8.5360    5.1490   13.5150 C.ar  163  TYR163      0.1957
    125  OH         8.5060    5.3940   14.8610 O.3   163  TYR163     -0.2866
    126  N          4.1610    3.4000    5.3050 N.3   165  HIS165     -0.1241
    127  CA         2.9950    4.2870    5.3620 C.3   165  HIS165      0.1621
    128  C          1.9780    3.9860    4.2760 C.2   165  HIS165      0.2264
    129  O          2.2820    4.0680    3.0770 O.2   165  HIS165     -0.2867
    130  CB         3.4320    5.7500    5.2550 C.3   165  HIS165      0.0745
    131  CG         4.6120    6.0910    6.1090 C.ar  165  HIS165      0.0817
    132  ND1        4.4890    6.5280    7.4120 N.ar  165  HIS165     -0.2268
    133  CD2        5.9400    6.0550    5.8460 C.ar  165  HIS165      0.1154
    134  CE1        5.6910    6.7350    7.9190 C.ar  165  HIS165      0.1986
    135  NE2        6.5890    6.4620    6.9880 N.ar  165  HIS165     -0.2212
    136  N          3.1510   15.4790    2.5700 N.3   178  PHE178     -0.1241
    137  CA         3.5500   14.1580    3.0560 C.3   178  PHE178      0.1605
    138  C          3.7580   13.1700    1.9100 C.2   178  PHE178      0.2264
    139  O          4.7500   12.4360    1.8780 O.2   178  PHE178     -0.2867
    140  CB         2.4980   13.6190    4.0230 C.3   178  PHE178      0.0534
    141  CG         2.8420   12.2830    4.6180 C.ar  178  PHE178     -0.0203
    142  CD1        2.7370   11.1290    3.8620 C.ar  178  PHE178     -0.0042
    143  CD2        3.2510   12.1800    5.9410 C.ar  178  PHE178     -0.0042
    144  CE1        3.0390    9.8950    4.4070 C.ar  178  PHE178     -0.0003
    145  CE2        3.5570   10.9480    6.4970 C.ar  178  PHE178     -0.0003
    146  CZ         3.4500    9.8000    5.7270 C.ar  178  PHE178     -0.0000
    147  N         -2.1140    8.9350   16.6390 N.3   276  LEU276     -0.1245
    148  CA        -1.0550    9.8990   16.9490 C.3   276  LEU276      0.1561
    149  C         -0.9850   10.9130   15.8190 C.2   276  LEU276      0.2260
    150  O         -0.5010   10.5980   14.7320 O.2   276  LEU276     -0.2867
    151  CB         0.3060    9.2060   17.1240 C.3   276  LEU276      0.0270
    152  CG         1.5490   10.0480   17.4490 C.3   276  LEU276      0.0019
    153  CD1        2.7950    9.1780   17.5900 C.3   276  LEU276      0.0001
    154  CD2        1.8010   11.1300   16.4010 C.3   276  LEU276      0.0001
    155  N          0.2520   14.3660   13.8480 N.3   278  SER278     -0.1217
    156  CA         1.3150   15.3120   13.6740 C.3   278  SER278      0.1889
    157  C          0.7930   16.7210   13.2980 C.2   278  SER278      0.2288
    158  O         -0.0870   16.8940   12.5410 O.2   278  SER278     -0.2866
    159  CB         2.3340   14.8070   12.6620 C.3   278  SER278      0.2089
    160  OG         2.9870   13.6780   13.1030 O.3   278  SER278     -0.2183
    161  N         -1.9200   16.1030   10.4880 N.3   286  VAL286     -0.1245
    162  CA        -1.9990   14.7860    9.8760 C.3   286  VAL286      0.1561
    163  C         -2.5070   13.8230   10.9350 C.2   286  VAL286      0.2260
    164  O         -1.9190   13.7220   12.0100 O.2   286  VAL286     -0.2867
    165  CB        -0.6180   14.2950    9.4000 C.3   286  VAL286      0.0252
    166  CG1       -0.6790   12.8120    9.0270 C.3   286  VAL286      0.0019
    167  CG2       -0.1230   15.1380    8.2370 C.3   286  VAL286      0.0019
    168  N         -1.3670    4.2370   13.9610 N.3   290  TYR290     -0.1241
    169  CA        -0.2100    3.3530   13.9600 C.3   290  TYR290      0.1605
    170  C         -0.5930    1.9170   14.3010 C.2   290  TYR290      0.2264
    171  O         -1.2260    1.7110   15.2480 O.2   290  TYR290     -0.2867
    172  CB         0.8130    3.7720   14.9880 C.3   290  TYR290      0.0534
    173  CG         1.5430    5.0120   14.6550 C.ar  290  TYR290     -0.0201
    174  CD1        0.9030    6.2180   14.6570 C.ar  290  TYR290     -0.0009
    175  CD2        2.8440    4.9820   14.3280 C.ar  290  TYR290     -0.0009
    176  CE1        1.5550    7.3440   14.3520 C.ar  290  TYR290      0.0417
    177  CE2        3.5200    6.1140   14.0730 C.ar  290  TYR290      0.0417
    178  CZ         2.8770    7.2960   14.0880 C.ar  290  TYR290      0.1957
    179  OH         3.5600    8.3990   13.7690 O.3   290  TYR290     -0.2866
    180  N          0.3070    3.8270    9.6030 N.3   329  ASN329     -0.1240
    181  CA         1.7400    3.5770    9.7250 C.3   329  ASN329      0.1653
    182  C          2.0730    2.2390   10.3760 C.2   329  ASN329      0.2266
    183  O          1.3880    1.7910   11.3000 O.2   329  ASN329     -0.2867
    184  CB         2.4120    4.6950   10.5160 C.3   329  ASN329      0.1155
    185  CG         2.3050    6.0380    9.8390 C.2   329  ASN329      0.2627
    186  OD1        2.1990    6.1320    8.6070 O.2   329  ASN329     -0.2716
    187  ND2        2.3530    7.0970   10.6400 N.am  329  ASN329     -0.0877
    188  N          9.1770    4.4250    4.0340 N.3   348  GLY348     -0.1210
    189  CA         9.4140    5.7300    4.6200 C.3   348  GLY348      0.1956
    190  C         10.8860    6.0280    4.8240 C.2   348  GLY348      0.2612
    191  O         11.7350    5.1510    4.6960 O.2   348  GLY348     -0.2717
    192  N         11.1880    7.2780    5.1410 N.am  349  ASP349     -0.1959
    193  CA        12.5550    7.6750    5.3980 C.3   349  ASP349      0.1840
    194  C         12.9180    7.3620    6.8370 C.2   349  ASP349      0.2623
    195  O         14.0910    7.2060    7.1610 O.2   349  ASP349     -0.2715
    196  CB        12.7310    9.1740    5.1330 C.3   349  ASP349      0.1450
    197  CG        12.7040    9.5180    3.6490 C.2   349  ASP349      0.3671
    198  OD1       13.2570    8.7420    2.8290 O.co2 349  ASP349     -0.2456
    199  OD2       12.1410   10.5890    3.3070 O.co2 349  ASP349     -0.2456
    200  N         11.9010    7.2690    7.6880 N.am  350  GLY350     -0.1940
    201  CA        12.0910    7.0540    9.1190 C.3   350  GLY350      0.2014
    202  C         12.5970    5.6700    9.4970 C.2   350  GLY350      0.2639
    203  O         12.1980    4.6600    8.9170 O.2   350  GLY350     -0.2714
    204  N         13.4870    5.6380   10.4840 N.am  351  GLN351     -0.1963
    205  CA        14.0200    4.3960   11.0030 C.3   351  GLN351      0.1733
    206  C         13.9360    4.4700   12.5200 C.2   351  GLN351      0.2616
    207  O         14.2530    5.4970   13.1180 O.2   351  GLN351     -0.2715
    208  CB        15.4770    4.2190   10.5510 C.3   351  GLN351      0.0408
    209  CG        16.0090    2.7980   10.6190 C.3   351  GLN351      0.0908
    210  CD        15.5650    1.9510    9.4370 C.2   351  GLN351      0.2608
    211  OE1       14.9210    2.4520    8.5190 O.2   351  GLN351     -0.2717
    212  NE2       15.9080    0.6600    9.4580 N.am  351  GLN351     -0.0878
    213  N         13.4930    3.3830   13.1390 N.am  352  LEU352     -0.1977
    214  CA        13.4330    3.3130   14.5850 C.3   352  LEU352      0.1596
    215  C         14.4700    2.3070   15.0750 C.2   352  LEU352      0.2287
    216  O         14.4580    1.1400   14.6810 O.2   352  LEU352     -0.2864
    217  CB        12.0230    2.9210   15.0340 C.3   352  LEU352      0.0297
    218  CG        11.6510    3.1520   16.4980 C.3   352  LEU352      0.0022
    219  CD1       11.7510    4.6310   16.8450 C.3   352  LEU352      0.0001
    220  CD2       10.2350    2.6150   16.7650 C.3   352  LEU352      0.0001
    221  N          6.8440    0.2060   20.7940 N.3   386  MET386     -0.1230
    222  CA         6.8610    1.3230   21.7350 C.3   386  MET386      0.1702
    223  C          6.2240    2.5260   21.0790 C.2   386  MET386      0.2592
    224  O          6.1500    2.5910   19.8480 O.2   386  MET386     -0.2718
    225  CB         8.2780    1.6210   22.2080 C.3   386  MET386      0.0401
    226  CG         8.9520    0.3700   22.7590 C.3   386  MET386      0.0596
    227  SD        10.3530    0.7190   23.8170 S.3   386  MET386     -0.1393
    228  CE         9.7370    2.1250   24.7350 C.3   386  MET386      0.0692
    229  N          5.7580    3.4640   21.9000 N.am  387  LEU387     -0.1980
    230  CA         4.8610    4.5230   21.4440 C.3   387  LEU387      0.1596
    231  C          5.5450    5.8420   21.0940 C.2   387  LEU387      0.2287
    232  O          6.6220    6.1640   21.6160 O.2   387  LEU387     -0.2864
    233  CB         3.7960    4.7860   22.5050 C.3   387  LEU387      0.0297
    234  CG         2.9090    3.6300   22.9650 C.3   387  LEU387      0.0022
    235  CD1        2.0880    4.1070   24.1480 C.3   387  LEU387      0.0001
    236  CD2        2.0010    3.1190   21.8320 C.3   387  LEU387      0.0001
@<TRIPOS>BOND
     1   139   138    2
     2   138   137    1
     3   136   137    1
     4   198   197   ar
     5   137   140    1
     6   129   128    2
     7   199   197   ar
     8   197   196    1
     9   142   144   ar
    10   142   141   ar
    11   140   141    1
    12   188   189    1
    13   128   127    1
    14   144   146   ar
    15   141   143   ar
    16   189   190    1
    17   191   190    2
    18   190   192   am
    19   196   193    1
    20   192   193    1
    21   130   127    1
    22   130   131    1
    23   126   127    1
    24   193   194    1
    25   146   145   ar
    26   133   131   ar
    27   133   135   ar
    28   143   145   ar
    29   131   132   ar
    30    55    54   ar
    31    55    53   ar
    32   117   116    2
    33    54    52   ar
    34   194   195    2
    35   194   200   am
    36   135   134   ar
    37    53    51   ar
    38   132   134   ar
    39   116   115    1
    40   200   201    1
    41    36    34   ar
    42    52    50   ar
    43   167   165    1
    44    41    38    1
    45    41    42    1
    46    40    39    2
    47    39    38    1
    48   211   210    2
    49    51    50   ar
    50   186   185    2
    51    44    42   ar
    52   115   114    1
    53   115   118    1
    54   203   202    2
    55    34    33    1
    56    34    35   ar
    57    50    49    1
    58   166   165    1
    59   201   202    1
    60    38    37    1
    61    42    43   ar
    62   118   119    1
    63   165   162    1
    64   210   212   am
    65   210   209    1
    66    33    30    1
    67   202   204   am
    68    37    31   am
    69   180   181    1
    70   181   182    1
    71   181   184    1
    72   185   184    1
    73   185   187   am
    74   162   161    1
    75   162   163    1
    76    45    46    1
    77    31    30    1
    78    31    32    2
    79   182   183    2
    80    49    46    1
    81   204   205    1
    82   208   209    1
    83   208   205    1
    84    30    29    1
    85   119   121   ar
    86   119   120   ar
    87    46    47    1
    88   163   164    2
    89   205   206    1
    90   121   123   ar
    91   120   122   ar
    92    29    22   am
    93    47    48    2
    94    47    56   am
    95   206   207    2
    96   206   213   am
    97   158   157    2
    98   159   160    1
    99   159   156    1
   100   123   124   ar
   101   122   124   ar
   102    22    23    2
   103    22    21    1
   104   213   214    1
   105    56    57    1
   106   157   156    1
   107   124   125    1
   108   156   155    1
   109   179   178    1
   110    27    26   ar
   111   169   168    1
   112   169   170    1
   113   169   172    1
   114    24    21    1
   115    24    25    1
   116   113   112    2
   117   177   178   ar
   118   177   175   ar
   119   178   176   ar
   120    21    20    1
   121   170   171    2
   122   175   173   ar
   123   176   174   ar
   124   214   217    1
   125   214   215    1
   126   173   174   ar
   127   173   172    1
   128    57    58    1
   129    57    60    1
   130   216   215    2
   131   150   149    2
   132    75    77   ar
   133    75    73   ar
   134    26    25    1
   135    26    28   ar
   136   217   218    1
   137    77    76   ar
   138   112   111    1
   139    59    58    2
   140    58    67   am
   141    60    61    1
   142    20    15   am
   143    73    72   ar
   144    66    64    1
   145   111   110    1
   146   149   148    1
   147    67    68    1
   148    16    15    2
   149    76    74   ar
   150    18    17    1
   151    15    14    1
   152    64    65    1
   153    64    63    2
   154   154   152    1
   155   218   220    1
   156   218   219    1
   157   147   148    1
   158    72    74   ar
   159    72    71    1
   160    63    62    1
   161    68    71    1
   162    68    69    1
   163    61    62    1
   164   108   107    2
   165   148   151    1
   166   110   107   am
   167   151   152    1
   168   152   153    1
   169    17    14    1
   170    17    19    1
   171   107   106    1
   172    14    13    1
   173    69    70    2
   174     4     3    2
   175    13     3   am
   176   106   105    1
   177   106   109    1
   178     3     2    1
   179   104   102    1
   180   105   100   am
   181   224   223    2
   182   103   102    1
   183    89    88    1
   184    78    79    1
   185   102    99    1
   186     2     1    1
   187     2     5    1
   188    86    88   ar
   189    86    84   ar
   190   100    99    1
   191   100   101    2
   192    88    87   ar
   193   221   222    1
   194    99    98    1
   195     8    10   ar
   196     8     6   ar
   197     5     6    1
   198   223   222    1
   199   223   229   am
   200   231   230    1
   201   231   232    2
   202    84    83   ar
   203    79    80    1
   204    79    82    1
   205    87    85   ar
   206    10    11   ar
   207     6     7   ar
   208   230   229    1
   209   230   233    1
   210    83    85   ar
   211    83    82    1
   212   222   225    1
   213   236   234    1
   214    80    81    2
   215   225   226    1
   216    11    12    1
   217    11     9   ar
   218     7     9   ar
   219   233   234    1
   220   226   227    1
   221   234   235    1
   222   227   228    1
   223    96    95    2
   224    97    95   am
   225    95    94    1
   226    94    91    1
   227    91    92    1
   228    91    90    1
   229    92    93    2
