@<TRIPOS>MOLECULE
tmp/4cb5A00.pdb
 122 118 0 0 0
SMALL
GASTEIGER

@<TRIPOS>ATOM
      1  N        -53.3900   -0.9960   -5.7170 N.3     2  PHE2       -0.1227
      2  CA       -52.9500    0.0590   -6.6350 C.3     2  PHE2        0.1736
      3  C        -51.6710   -0.3990   -7.3640 C.2     2  PHE2        0.2596
      4  O        -51.0840   -1.3640   -6.9510 O.2     2  PHE2       -0.2718
      5  CB       -52.7240    1.3780   -5.8730 C.3     2  PHE2        0.0547
      6  CG       -51.6740    1.2580   -4.7740 C.ar    2  PHE2       -0.0202
      7  CD1      -50.3410    1.4510   -5.0950 C.ar    2  PHE2       -0.0042
      8  CD2      -52.0170    0.8950   -3.4680 C.ar    2  PHE2       -0.0042
      9  CE1      -49.3830    1.3150   -4.1420 C.ar    2  PHE2       -0.0003
     10  CE2      -51.0280    0.7520   -2.4930 C.ar    2  PHE2       -0.0003
     11  CZ       -49.7140    0.9480   -2.8540 C.ar    2  PHE2       -0.0000
     12  N        -51.2400    0.3110   -8.4030 N.am    3  SER3       -0.1938
     13  CA       -50.0210   -0.0180   -9.1600 C.3     3  SER3        0.2055
     14  C        -48.9460    1.0370   -8.9600 C.2     3  SER3        0.2643
     15  O        -49.1850    2.2440   -9.0760 O.2     3  SER3       -0.2714
     16  CB       -50.3270   -0.2200  -10.6490 C.3     3  SER3        0.2130
     17  OG       -49.1570   -0.5130  -11.4000 O.3     3  SER3       -0.2179
     18  N        -47.7100    0.5690   -8.8010 N.am    4  PHE4       -0.1973
     19  CA       -46.5660    1.4600   -8.6420 C.3     4  PHE4        0.1639
     20  C        -45.3340    0.7450   -9.2320 C.2     4  PHE4        0.2290
     21  O        -45.0420   -0.3560   -8.8880 O.2     4  PHE4       -0.2864
     22  CB       -46.3090    1.9010   -7.1790 C.3     4  PHE4        0.0560
     23  CG       -45.0790    2.7670   -7.0340 C.ar    4  PHE4       -0.0200
     24  CD1      -45.1120    4.1310   -7.4160 C.ar    4  PHE4       -0.0042
     25  CD2      -43.8700    2.2540   -6.5400 C.ar    4  PHE4       -0.0042
     26  CE1      -43.9960    4.9310   -7.3060 C.ar    4  PHE4       -0.0003
     27  CE2      -42.7620    3.0530   -6.4580 C.ar    4  PHE4       -0.0003
     28  CZ       -42.8040    4.3890   -6.8140 C.ar    4  PHE4       -0.0000
     29  N        -52.5280   -4.3340    0.0450 N.3    11  ARG11      -0.1245
     30  CA       -52.3440   -4.3330    1.4830 C.3    11  ARG11       0.1563
     31  C        -52.9970   -5.5580    2.1110 C.2    11  ARG11       0.2260
     32  O        -54.1900   -5.8120    1.9330 O.2    11  ARG11      -0.2867
     33  CB       -52.8910   -3.0600    2.0800 C.3    11  ARG11       0.0307
     34  CG       -52.8190   -2.9960    3.5870 C.3    11  ARG11       0.0489
     35  CD       -54.1020   -2.3270    4.0660 C.3    11  ARG11       0.2205
     36  NE       -53.7060   -0.9670    4.1660 N.pl3  11  ARG11      -0.0865
     37  CZ       -54.3880    0.1210    3.8260 C.cat  11  ARG11       0.5346
     38  NH1      -55.6740    0.1090    3.4290 N.pl3  11  ARG11       0.1354
     39  NH2      -53.7560    1.2620    3.9910 N.pl3  11  ARG11       0.1354
     40  N        -52.5900    3.1470    6.8200 N.3    16  SER16      -0.1217
     41  CA       -51.8080    4.3580    6.7490 C.3    16  SER16       0.1889
     42  C        -52.6210    5.5740    6.3610 C.2    16  SER16       0.2288
     43  O        -53.6770    5.4660    5.7200 O.2    16  SER16      -0.2866
     44  CB       -50.6290    4.2390    5.7580 C.3    16  SER16       0.2089
     45  OG       -51.0440    4.1590    4.4130 O.3    16  SER16      -0.2183
     46  N        -46.5800    8.2280    3.3220 N.3    36  HIS36      -0.1241
     47  CA       -47.6330    7.3770    3.8920 C.3    36  HIS36       0.1621
     48  C        -47.2190    7.0100    5.3180 C.2    36  HIS36       0.2264
     49  O        -46.1560    6.4520    5.5040 O.2    36  HIS36      -0.2867
     50  CB       -47.8480    6.1700    2.9880 C.3    36  HIS36       0.0745
     51  CG       -48.3210    6.5800    1.6350 C.ar   36  HIS36       0.0817
     52  ND1      -49.6590    6.6570    1.3460 N.ar   36  HIS36      -0.2268
     53  CD2      -47.6730    7.0640    0.5550 C.ar   36  HIS36       0.1154
     54  CE1      -49.8230    7.1070    0.1230 C.ar   36  HIS36       0.1986
     55  NE2      -48.6280    7.3530   -0.3840 N.ar   36  HIS36      -0.2212
     56  N        -47.5760   -1.1570    7.5620 N.3    40  GLU40      -0.1245
     57  CA       -48.4350   -1.8550    6.5950 C.3    40  GLU40       0.1567
     58  C        -47.6470   -3.0610    6.0450 C.2    40  GLU40       0.2260
     59  O        -46.3710   -3.0420    6.0020 O.2    40  GLU40      -0.2867
     60  CB       -48.7840   -0.9310    5.4370 C.3    40  GLU40       0.0388
     61  CG       -49.6280    0.3130    5.6950 C.3    40  GLU40       0.1160
     62  CD       -49.7360    1.2380    4.4570 C.2    40  GLU40       0.3649
     63  OE1      -48.6940    1.8110    3.9760 O.co2  40  GLU40      -0.2457
     64  OE2      -50.9010    1.4250    4.0290 O.co2  40  GLU40      -0.2457
     65  N        -47.7840   -5.7200    2.5860 N.3    42  PHE42      -0.1241
     66  CA       -48.2590   -5.7540    1.2300 C.3    42  PHE42       0.1605
     67  C        -47.7970   -7.0080    0.5690 C.2    42  PHE42       0.2264
     68  O        -46.6800   -7.5170    0.8500 O.2    42  PHE42      -0.2867
     69  CB       -47.6360   -4.5970    0.4220 C.3    42  PHE42       0.0534
     70  CG       -48.1570   -3.2380    0.7860 C.ar   42  PHE42      -0.0203
     71  CD1      -49.2950   -2.7180    0.1790 C.ar   42  PHE42      -0.0042
     72  CD2      -47.4580   -2.4250    1.7090 C.ar   42  PHE42      -0.0042
     73  CE1      -49.7830   -1.4980    0.5490 C.ar   42  PHE42      -0.0003
     74  CE2      -47.9390   -1.1540    1.9900 C.ar   42  PHE42      -0.0003
     75  CZ       -49.0930   -0.7110    1.3890 C.ar   42  PHE42      -0.0000
     76  N        -43.5090   -2.7540    5.9560 N.3    55  LYS55      -0.1245
     77  CA       -42.9290   -1.4240    6.0960 C.3    55  LYS55       0.1561
     78  C        -43.6070   -0.6330    7.1680 C.2    55  LYS55       0.2260
     79  O        -44.7550   -0.8530    7.4860 O.2    55  LYS55      -0.2867
     80  CB       -42.8680   -0.6290    4.7980 C.3    55  LYS55       0.0271
     81  CG       -44.2450   -0.2440    4.2820 C.3    55  LYS55       0.0035
     82  CD       -44.1560    0.6490    3.0760 C.3    55  LYS55       0.0206
     83  CE       -43.6900    2.0330    3.3630 C.3    55  LYS55       0.1093
     84  NZ       -44.7400    2.9490    3.9220 N.3    55  LYS55      -0.1314
     85  N        -40.4550    2.7240   -2.9340 N.3    83  PHE83      -0.1241
     86  CA       -41.7830    2.7590   -2.2810 C.3    83  PHE83       0.1605
     87  C        -41.6650    2.9170   -0.7460 C.2    83  PHE83       0.2264
     88  O        -42.5270    3.5090   -0.1210 O.2    83  PHE83      -0.2867
     89  CB       -42.4830    1.4370   -2.5990 C.3    83  PHE83       0.0534
     90  CG       -43.8450    1.3050   -2.0450 C.ar   83  PHE83      -0.0203
     91  CD1      -44.9270    1.7790   -2.7520 C.ar   83  PHE83      -0.0042
     92  CD2      -44.0530    0.5830   -0.8320 C.ar   83  PHE83      -0.0042
     93  CE1      -46.1950    1.6900   -2.2130 C.ar   83  PHE83      -0.0003
     94  CE2      -45.3290    0.5170   -0.2930 C.ar   83  PHE83      -0.0003
     95  CZ       -46.3890    0.9990   -0.9970 C.ar   83  PHE83      -0.0000
     96  N        -39.7960    4.7680    0.8590 N.3    85  GLN85      -0.1245
     97  CA       -39.5650    6.2000    1.1580 C.3    85  GLN85       0.1566
     98  C        -38.4510    6.3880    2.1900 C.2    85  GLN85       0.2260
     99  O        -38.3020    7.4610    2.7420 O.2    85  GLN85      -0.2867
    100  CB       -40.8410    6.9090    1.5750 C.3    85  GLN85       0.0367
    101  CG       -41.9810    6.6820    0.6300 C.3    85  GLN85       0.0905
    102  CD       -43.1970    7.5110    0.9330 C.2    85  GLN85       0.2608
    103  OE1      -43.7540    7.4080    2.0310 O.2    85  GLN85      -0.2717
    104  NE2      -43.6080    8.3380   -0.0040 N.am   85  GLN85      -0.0878
    105  N        -42.0620   11.0290   -6.2240 N.3   110  MET110     -0.1230
    106  CA       -41.9110    9.5810   -6.0410 C.3   110  MET110      0.1702
    107  C        -41.5280    8.8870   -7.3660 C.2   110  MET110      0.2592
    108  O        -40.7190    7.9900   -7.4030 O.2   110  MET110     -0.2718
    109  CB       -43.1370    8.9210   -5.3860 C.3   110  MET110      0.0401
    110  CG       -43.2660    9.1860   -3.8960 C.3   110  MET110      0.0596
    111  SD       -41.8980    8.4160   -2.9850 S.3   110  MET110     -0.1393
    112  CE       -42.3240    6.6930   -3.2080 C.3   110  MET110      0.0692
    113  N        -42.1350    9.3380   -8.4620 N.am  111  HIS111     -0.1976
    114  CA       -41.8600    8.7910   -9.7620 C.3   111  HIS111      0.1656
    115  C        -40.5700    9.3130  -10.3450 C.2   111  HIS111      0.2291
    116  O        -39.9060    8.5340  -11.1110 O.2   111  HIS111     -0.2864
    117  CB       -43.0380    8.9730  -10.7130 C.3   111  HIS111      0.0771
    118  CG       -44.1580    8.0150  -10.4230 C.ar  111  HIS111      0.0820
    119  ND1      -45.1000    8.2300   -9.4390 N.ar  111  HIS111     -0.2267
    120  CD2      -44.4860    6.8210  -11.0010 C.ar  111  HIS111      0.1154
    121  CE1      -45.9350    7.2060   -9.3990 C.ar  111  HIS111      0.1986
    122  NE2      -45.5950    6.3520  -10.3460 N.ar  111  HIS111     -0.2212
@<TRIPOS>BOND
     1    17    16    1
     2   116   115    2
     3   120   118   ar
     4   120   122   ar
     5   117   118    1
     6   117   114    1
     7    16    13    1
     8   118   119   ar
     9   122   121   ar
    10   115   114    1
    11   114   113    1
    12   119   121   ar
    13    20    21    2
    14    20    19    1
    15    13    14    1
    16    13    12    1
    17    15    14    2
    18    14    18   am
    19    18    19    1
    20    19    22    1
    21   113   107   am
    22    12     3   am
    23    24    26   ar
    24    24    23   ar
    25   108   107    2
    26   107   106    1
    27     3     4    2
    28     3     2    1
    29    26    28   ar
    30    22    23    1
    31    23    25   ar
    32    28    27   ar
    33     2     5    1
    34     2     1    1
    35    25    27   ar
    36   105   106    1
    37   106   109    1
    38     5     6    1
    39   109   110    1
    40     7     6   ar
    41     7     9   ar
    42     6     8   ar
    43     9    11   ar
    44   110   111    1
    45     8    10   ar
    46   112   111    1
    47    85    86    1
    48    11    10   ar
    49    91    93   ar
    50    91    90   ar
    51    89    86    1
    52    89    90    1
    53    86    87    1
    54    93    95   ar
    55    90    92   ar
    56    95    94   ar
    57    92    94   ar
    58    87    88    2
    59    55    54   ar
    60    55    53   ar
    61   104   102   am
    62    29    30    1
    63    54    52   ar
    64    71    73   ar
    65    71    70   ar
    66    69    70    1
    67    69    66    1
    68    73    75   ar
    69    53    51   ar
    70    67    68    2
    71    67    66    1
    72   101   102    1
    73   101   100    1
    74    70    72   ar
    75    96    97    1
    76   102   103    2
    77    97   100    1
    78    97    98    1
    79    66    65    1
    80    52    51   ar
    81    75    74   ar
    82    30    33    1
    83    30    31    1
    84    51    50    1
    85    72    74   ar
    86    32    31    2
    87    33    34    1
    88    98    99    2
    89    50    47    1
    90    82    83    1
    91    82    81    1
    92    46    47    1
    93    83    84    1
    94    38    37    1
    95    34    35    1
    96    37    39    1
    97    37    36    2
    98    47    48    1
    99    63    62   ar
   100    64    62   ar
   101    35    36    1
   102    81    80    1
   103    45    44    1
   104    62    61    1
   105    80    77    1
   106    48    49    2
   107    60    61    1
   108    60    57    1
   109    43    42    2
   110    44    41    1
   111    76    77    1
   112    59    58    2
   113    58    57    1
   114    77    78    1
   115    42    41    1
   116    57    56    1
   117    41    40    1
   118    78    79    2
