@<TRIPOS>MOLECULE
tmp/4cb6B00.pdb
 139 133 0 0 0
SMALL
GASTEIGER

@<TRIPOS>ATOM
      1  N          4.9430   19.6690   10.4170 N.3     1  SER1       -0.1217
      2  CA         6.0470   20.3140    9.6550 C.3     1  SER1        0.1889
      3  C          7.0620   19.3280    9.0800 C.2     1  SER1        0.2288
      4  O          7.1890   18.1600    9.4800 O.2     1  SER1       -0.2866
      5  CB         6.7690   21.3610   10.5290 C.3     1  SER1        0.2089
      6  OG         7.1870   20.8050   11.7610 O.3     1  SER1       -0.2183
      7  N         10.9240   18.0250    7.8990 N.3     3  PHE3       -0.1227
      8  CA        12.2280   17.8450    8.5580 C.3     3  PHE3        0.1736
      9  C         13.1690   17.0960    7.6360 C.2     3  PHE3        0.2596
     10  O         12.7590   16.4830    6.6450 O.2     3  PHE3       -0.2718
     11  CB        12.1050   17.1080    9.8990 C.3     3  PHE3        0.0547
     12  CG        11.4910   15.7400    9.7760 C.ar    3  PHE3       -0.0202
     13  CD1       10.1130   15.5820    9.7980 C.ar    3  PHE3       -0.0042
     14  CD2       12.2950   14.6130    9.6050 C.ar    3  PHE3       -0.0042
     15  CE1        9.5350   14.3290    9.6480 C.ar    3  PHE3       -0.0003
     16  CE2       11.7210   13.3600    9.4680 C.ar    3  PHE3       -0.0003
     17  CZ        10.3380   13.2150    9.4890 C.ar    3  PHE3       -0.0000
     18  N         14.4540   17.1780    7.9500 N.am    4  SER4       -0.1938
     19  CA        15.4860   16.6880    7.0630 C.3     4  SER4        0.2055
     20  C         16.0720   15.4850    7.7440 C.2     4  SER4        0.2643
     21  O         16.2810   15.5120    8.9660 O.2     4  SER4       -0.2714
     22  CB        16.5380   17.7780    6.8490 C.3     4  SER4        0.2130
     23  OG        17.5170   17.3620    5.9110 O.3     4  SER4       -0.2179
     24  N         16.2870   14.4190    6.9820 N.am    5  PHE5       -0.1973
     25  CA        16.9700   13.2140    7.4810 C.3     5  PHE5        0.1639
     26  C         17.6380   12.5740    6.2820 C.2     5  PHE5        0.2290
     27  O         17.0000   12.3480    5.2330 O.2     5  PHE5       -0.2864
     28  CB        15.9670   12.2530    8.1270 C.3     5  PHE5        0.0560
     29  CG        16.5910   11.0360    8.7430 C.ar    5  PHE5       -0.0200
     30  CD1       17.2980   11.1280    9.9510 C.ar    5  PHE5       -0.0042
     31  CD2       16.4460    9.8040    8.1450 C.ar    5  PHE5       -0.0042
     32  CE1       17.8750   10.0010   10.5200 C.ar    5  PHE5       -0.0003
     33  CE2       17.0100    8.6730    8.7020 C.ar    5  PHE5       -0.0003
     34  CZ        17.7460    8.7660    9.8810 C.ar    5  PHE5       -0.0000
     35  N          5.3050   14.3220    6.8100 N.3    12  ARG12      -0.1245
     36  CA         4.2310   13.3790    7.0970 C.3    12  ARG12       0.1563
     37  C          2.9600   13.8310    6.3600 C.2    12  ARG12       0.2260
     38  O          2.4550   14.9300    6.5830 O.2    12  ARG12      -0.2867
     39  CB         3.9660   13.2130    8.5910 C.3    12  ARG12       0.0307
     40  CG         2.9650   12.0830    8.8610 C.3    12  ARG12       0.0489
     41  CD         2.7330   11.7770   10.3310 C.3    12  ARG12       0.2205
     42  NE         2.3130   12.9370   11.1160 N.pl3  12  ARG12      -0.0865
     43  CZ         2.1510   12.9230   12.4450 C.cat  12  ARG12       0.5346
     44  NH1        2.4360   11.8350   13.1590 N.pl3  12  ARG12       0.1354
     45  NH2        1.7330   13.9980   13.0770 N.pl3  12  ARG12       0.1354
     46  N          1.3720    8.9470   15.3000 N.3    17  SER17      -0.1217
     47  CA         2.2020    8.0680   16.1130 C.3    17  SER17       0.1889
     48  C          2.4060    8.6390   17.4990 C.2    17  SER17       0.2288
     49  O          2.2220    9.8140   17.7300 O.2    17  SER17      -0.2866
     50  CB         3.5650    7.8470   15.4630 C.3    17  SER17       0.2089
     51  OG         4.1990    9.0960   15.2860 O.3    17  SER17      -0.2183
     52  N         14.3220    6.4040   20.2650 N.3    35  ARG35      -0.1245
     53  CA        12.9890    6.9470   20.3880 C.3    35  ARG35       0.1563
     54  C         12.1910    6.3910   19.2110 C.2    35  ARG35       0.2260
     55  O         12.4140    6.7370   18.0480 O.2    35  ARG35      -0.2867
     56  CB        13.0100    8.4730   20.3870 C.3    35  ARG35       0.0307
     57  CG        13.7960    9.0380   21.5650 C.3    35  ARG35       0.0489
     58  CD        14.1950   10.4970   21.3810 C.3    35  ARG35       0.2205
     59  NE        13.0050   11.3410   21.3410 N.pl3  35  ARG35      -0.0865
     60  CZ        12.8490   12.3760   20.5140 C.cat  35  ARG35       0.5346
     61  NH1       13.7770   12.7080   19.6160 N.pl3  35  ARG35       0.1354
     62  NH2       11.7290   13.0680   20.5610 N.pl3  35  ARG35       0.1354
     63  N          8.7560    5.5210   17.1380 N.3    37  HIS37      -0.1241
     64  CA         7.4250    6.0340   16.8610 C.3    37  HIS37       0.1621
     65  C          6.4780    4.8800   16.5760 C.2    37  HIS37       0.2264
     66  O          6.7700    4.0280   15.7640 O.2    37  HIS37      -0.2867
     67  CB         7.4830    7.0240   15.7120 C.3    37  HIS37       0.0745
     68  CG         8.2350    8.2560   16.0790 C.ar   37  HIS37       0.0817
     69  ND1        7.6140    9.4450   16.3790 N.ar   37  HIS37      -0.2268
     70  CD2        9.5640    8.4610   16.2540 C.ar   37  HIS37       0.1154
     71  CE1        8.5300   10.3350   16.7160 C.ar   37  HIS37       0.1986
     72  NE2        9.7190    9.7650   16.6350 N.ar   37  HIS37      -0.2212
     73  N          2.0500    5.5670    9.5990 N.3    41  GLU41      -0.1245
     74  CA         2.2670    6.9330    9.0690 C.3    41  GLU41       0.1567
     75  C          2.7240    6.8550    7.5870 C.2    41  GLU41       0.2260
     76  O          3.3640    5.8800    7.1980 O.2    41  GLU41      -0.2867
     77  CB         3.3570    7.6310    9.8700 C.3    41  GLU41       0.0388
     78  CG         2.9910    7.9210   11.3330 C.3    41  GLU41       0.1160
     79  CD         4.1680    8.4780   12.1090 C.2    41  GLU41       0.3649
     80  OE1        5.2300    7.8010   12.1620 O.co2  41  GLU41      -0.2457
     81  OE2        4.0450    9.5970   12.6210 O.co2  41  GLU41      -0.2457
     82  N          4.7320    9.2520    4.6080 N.3    43  PHE43      -0.1241
     83  CA         5.6110   10.3990    4.3800 C.3    43  PHE43       0.1605
     84  C          5.9690   10.5300    2.9130 C.2    43  PHE43       0.2264
     85  O          6.1070    9.5140    2.1990 O.2    43  PHE43      -0.2867
     86  CB         6.9560   10.1750    5.0800 C.3    43  PHE43       0.0534
     87  CG         6.8620   10.1380    6.5610 C.ar   43  PHE43      -0.0203
     88  CD1        6.6150    8.9560    7.2090 C.ar   43  PHE43      -0.0042
     89  CD2        7.0750   11.2690    7.2970 C.ar   43  PHE43      -0.0042
     90  CE1        6.5190    8.9330    8.6000 C.ar   43  PHE43      -0.0003
     91  CE2        6.9780   11.2510    8.6930 C.ar   43  PHE43      -0.0003
     92  CZ         6.7030   10.0700    9.3260 C.ar   43  PHE43      -0.0000
     93  N          4.9750    3.5110    6.6340 N.3    56  LYS56      -0.1245
     94  CA         5.5540    2.6930    7.6940 C.3    56  LYS56       0.1561
     95  C          4.5960    2.5600    8.8840 C.2    56  LYS56       0.2260
     96  O          3.6340    3.3010    9.0100 O.2    56  LYS56      -0.2867
     97  CB         6.8700    3.3010    8.1840 C.3    56  LYS56       0.0271
     98  CG         6.7360    4.6440    8.8760 C.3    56  LYS56       0.0035
     99  CD         8.0880    5.1180    9.4150 C.3    56  LYS56       0.0206
    100  CE         8.6350    4.2720   10.5710 C.3    56  LYS56       0.1093
    101  NZ         7.8140    4.3610   11.7990 N.3    56  LYS56      -0.1314
    102  N         15.0990    4.9420    8.6120 N.3    84  PHE84      -0.1241
    103  CA        13.9830    5.6660    9.1560 C.3    84  PHE84       0.1605
    104  C         12.8560    4.7090    9.6080 C.2    84  PHE84       0.2264
    105  O         12.1720    5.0280   10.5800 O.2    84  PHE84      -0.2867
    106  CB        13.4900    6.7000    8.1460 C.3    84  PHE84       0.0534
    107  CG        12.4410    7.6390    8.6870 C.ar   84  PHE84      -0.0203
    108  CD1       12.8080    8.7950    9.3230 C.ar   84  PHE84      -0.0042
    109  CD2       11.0870    7.3550    8.5530 C.ar   84  PHE84      -0.0042
    110  CE1       11.8760    9.6410    9.8460 C.ar   84  PHE84      -0.0003
    111  CE2       10.1450    8.2200    9.0730 C.ar   84  PHE84      -0.0003
    112  CZ        10.5340    9.3430    9.7180 C.ar   84  PHE84      -0.0000
    113  N         13.2340    2.0670   11.2510 N.3    86  GLN86      -0.1245
    114  CA        13.6420    1.5640   12.5680 C.3    86  GLN86       0.1566
    115  C         13.5180    0.0710   12.6630 C.2    86  GLN86       0.2260
    116  O         13.4900   -0.4700   13.7700 O.2    86  GLN86      -0.2867
    117  CB        12.8430    2.2160   13.6880 C.3    86  GLN86       0.0367
    118  CG        12.7990    3.7340   13.6050 C.3    86  GLN86       0.0905
    119  CD        12.2510    4.4100   14.8320 C.2    86  GLN86       0.2608
    120  OE1       11.0590    4.2980   15.1390 O.2    86  GLN86      -0.2717
    121  NE2       13.0910    5.2050   15.5000 N.am   86  GLN86      -0.0878
    122  N         19.6070    7.2830   15.8730 N.3   111  MET111     -0.1230
    123  CA        19.0960    7.2430   14.4880 C.3   111  MET111      0.1702
    124  C         20.1710    7.7380   13.5060 C.2   111  MET111      0.2592
    125  O         20.2900    7.1890   12.4160 O.2   111  MET111     -0.2718
    126  CB        17.8070    8.0860   14.3390 C.3   111  MET111      0.0401
    127  CG        16.6030    7.4450   15.0290 C.3   111  MET111      0.0596
    128  SD        16.2740    5.8400   14.3400 S.3   111  MET111     -0.1393
    129  CE        15.7870    6.2940   12.6610 C.3   111  MET111      0.0692
    130  N         20.9770    8.7110   13.9260 N.am  112  HIS112     -0.1976
    131  CA        22.0260    9.2430   13.0400 C.3   112  HIS112      0.1656
    132  C         23.2690    8.4040   13.0050 C.2   112  HIS112      0.2291
    133  O         24.0000    8.4020   11.9910 O.2   112  HIS112     -0.2864
    134  CB        22.3030   10.7050   13.3550 C.3   112  HIS112      0.0771
    135  CG        21.2020   11.6160   12.9060 C.ar  112  HIS112      0.0820
    136  ND1       20.0880   11.8710   13.6770 N.ar  112  HIS112     -0.2267
    137  CD2       21.0310   12.3160   11.7590 C.ar  112  HIS112      0.1154
    138  CE1       19.2810   12.6920   13.0250 C.ar  112  HIS112      0.1986
    139  NE2       19.8350   12.9790   11.8610 N.ar  112  HIS112     -0.2212
@<TRIPOS>BOND
     1    85    84    2
     2    84    83    1
     3    83    82    1
     4    83    86    1
     5    86    87    1
     6    27    26    2
     7    23    22    1
     8    26    25    1
     9    37    38    2
    10    37    36    1
    11    87    88   ar
    12    87    89   ar
    13    93    94    1
    14    10     9    2
    15    35    36    1
    16    22    19    1
    17    24    25    1
    18    24    20   am
    19    19    20    1
    20    19    18    1
    21    36    39    1
    22    76    75    2
    23    88    90   ar
    24    89    91   ar
    25    25    28    1
    26    75    74    1
    27     9    18   am
    28     9     8    1
    29    94    97    1
    30    94    95    1
    31    20    21    2
    32     7     8    1
    33    28    29    1
    34    31    33   ar
    35    31    29   ar
    36   106   107    1
    37   106   103    1
    38    97    98    1
    39   109   107   ar
    40   109   111   ar
    41     8    11    1
    42    39    40    1
    43    90    92   ar
    44   102   103    1
    45   107   108   ar
    46    91    92   ar
    47    33    34   ar
    48    29    30   ar
    49    40    41    1
    50    98    99    1
    51    95    96    2
    52    74    73    1
    53    74    77    1
    54   111   112   ar
    55     3     4    2
    56     3     2    1
    57   103   104    1
    58   108   110   ar
    59    99   100    1
    60    16    17   ar
    61    16    14   ar
    62    17    15   ar
    63    14    12   ar
    64   104   105    2
    65    15    13   ar
    66     2     1    1
    67     2     5    1
    68   112   110   ar
    69    12    13   ar
    70    12    11    1
    71    77    78    1
    72    34    32   ar
    73    30    32   ar
    74    41    42    1
    75     5     6    1
    76   100   101    1
    77    42    43    2
    78   113   114    1
    79    78    79    1
    80   137   139   ar
    81   137   135   ar
    82   139   138   ar
    83   133   132    2
    84    79    80   ar
    85    79    81   ar
    86   125   124    2
    87    43    45    1
    88    43    44    1
    89   114   115    1
    90   114   117    1
    91   129   128    1
    92   115   116    2
    93   135   134    1
    94   135   136   ar
    95   132   131    1
    96   138   136   ar
    97   131   134    1
    98   131   130    1
    99   124   130   am
   100   124   123    1
   101   118   117    1
   102   118   119    1
   103   126   123    1
   104   126   127    1
   105   128   127    1
   106   123   122    1
   107   119   120    2
   108   119   121   am
   109    51    50    1
   110    46    47    1
   111    50    47    1
   112    67    68    1
   113    67    64    1
   114    66    65    2
   115    68    70   ar
   116    68    69   ar
   117    47    48    1
   118    70    72   ar
   119    69    71   ar
   120    65    64    1
   121    72    71   ar
   122    64    63    1
   123    48    49    2
   124    55    54    2
   125    54    53    1
   126    61    60    1
   127    52    53    1
   128    56    53    1
   129    56    57    1
   130    60    62    1
   131    60    59    2
   132    59    58    1
   133    58    57    1
