@<TRIPOS>MOLECULE
tmp/4cbbA01.pdb
 129 126 0 0 0
SMALL
GASTEIGER

@<TRIPOS>ATOM
      1  N         48.6600   17.0160   40.5070 N.3   102  SER102     -0.1202
      2  CA        49.3380   16.8740   39.2190 C.3   102  SER102      0.2020
      3  C         48.9350   15.6290   38.4350 C.2   102  SER102      0.2618
      4  O         49.0270   15.6100   37.2040 O.2   102  SER102     -0.2717
      5  CB        50.8550   16.8730   39.4220 C.3   102  SER102      0.2103
      6  OG        51.3580   18.1890   39.5330 O.3   102  SER102     -0.2182
      7  N         48.4920   14.5990   39.1490 N.am  103  VAL103     -0.1979
      8  CA        48.2280   13.2900   38.5500 C.3   103  VAL103      0.1595
      9  C         46.7690   12.8410   38.5690 C.2   103  VAL103      0.2287
     10  O         46.1780   12.5640   37.5190 O.2   103  VAL103     -0.2864
     11  CB        49.0440   12.1880   39.2610 C.3   103  VAL103      0.0276
     12  CG1       48.7340   10.8260   38.6620 C.3   103  VAL103      0.0022
     13  CG2       50.5180   12.4740   39.1500 C.3   103  VAL103      0.0022
     14  N         44.1210   15.2860   36.9720 N.3   106  VAL106     -0.1231
     15  CA        44.6340   15.6380   35.6420 C.3   106  VAL106      0.1692
     16  C         44.5040   14.4550   34.6890 C.2   106  VAL106      0.2592
     17  O         43.9720   14.5850   33.5760 O.2   106  VAL106     -0.2718
     18  CB        46.1100   16.0760   35.6780 C.3   106  VAL106      0.0266
     19  CG1       46.6750   16.1820   34.2460 C.3   106  VAL106      0.0020
     20  CG2       46.2700   17.4000   36.4080 C.3   106  VAL106      0.0020
     21  N         44.9690   13.2840   35.1180 N.am  107  THR107     -0.1953
     22  CA        44.9860   12.1480   34.2060 C.3   107  THR107      0.1897
     23  C         43.6500   11.4110   34.1540 C.2   107  THR107      0.2313
     24  O         43.3550   10.7230   33.1750 O.2   107  THR107     -0.2863
     25  CB        46.1150   11.1570   34.5230 C.3   107  THR107      0.1794
     26  OG1       45.9050   10.5920   35.8200 O.3   107  THR107     -0.2208
     27  CG2       47.4580   11.8760   34.4820 C.3   107  THR107      0.0378
     28  N         41.9710   13.5930   31.7080 N.3   110  ASP110     -0.1239
     29  CA        42.5680   13.3960   30.3800 C.3   110  ASP110      0.1674
     30  C         41.8600   12.2540   29.6490 C.2   110  ASP110      0.2266
     31  O         41.6400   12.3140   28.4260 O.2   110  ASP110     -0.2867
     32  CB        44.0580   13.0180   30.4730 C.3   110  ASP110      0.1410
     33  CG        44.9730   14.1960   30.7680 C.2   110  ASP110      0.3668
     34  OD1       44.5670   15.3790   30.6270 O.co2 110  ASP110     -0.2456
     35  OD2       46.1430   13.9180   31.1260 O.co2 110  ASP110     -0.2456
     36  N         44.0330    5.1100   43.6050 N.3   153  TYR153     -0.1241
     37  CA        43.7550    6.2740   42.7740 C.3   153  TYR153      0.1605
     38  C         42.2520    6.3770   42.6270 C.2   153  TYR153      0.2264
     39  O         41.7200    6.0870   41.5560 O.2   153  TYR153     -0.2867
     40  CB        44.3820    6.0830   41.3840 C.3   153  TYR153      0.0534
     41  CG        45.8750    6.3400   41.3430 C.ar  153  TYR153     -0.0201
     42  CD1       46.7690    5.4300   41.8950 C.ar  153  TYR153     -0.0009
     43  CD2       46.3820    7.4790   40.7460 C.ar  153  TYR153     -0.0009
     44  CE1       48.1300    5.6600   41.8720 C.ar  153  TYR153      0.0417
     45  CE2       47.7490    7.7240   40.7100 C.ar  153  TYR153      0.0417
     46  CZ        48.6140    6.8030   41.2710 C.ar  153  TYR153      0.1957
     47  OH        49.9710    7.0310   41.2290 O.3   153  TYR153     -0.2866
     48  N         40.6900    8.9280   39.8770 N.3   156  GLN156     -0.1245
     49  CA        41.2220    8.5740   38.5740 C.3   156  GLN156      0.1566
     50  C         40.6040    7.2790   38.0570 C.2   156  GLN156      0.2260
     51  O         40.2100    7.1910   36.8950 O.2   156  GLN156     -0.2867
     52  CB        42.7400    8.4440   38.6120 C.3   156  GLN156      0.0367
     53  CG        43.3250    8.2430   37.2200 C.3   156  GLN156      0.0905
     54  CD        44.6200    7.4720   37.2510 C.2   156  GLN156      0.2608
     55  OE1       45.6900    7.9910   36.9020 O.2   156  GLN156     -0.2717
     56  NE2       44.5340    6.2220   37.6500 N.am  156  GLN156     -0.0878
     57  N         38.4670    6.5920   34.7710 N.3   160  TRP160     -0.1241
     58  CA        38.9060    5.6620   33.7260 C.3   160  TRP160      0.1605
     59  C         37.8730    4.5820   33.4230 C.2   160  TRP160      0.2264
     60  O         37.8500    4.0550   32.3130 O.2   160  TRP160     -0.2867
     61  CB        40.2460    4.9990   34.0800 C.3   160  TRP160      0.0550
     62  CG        41.4270    5.9050   33.9310 C.ar  160  TRP160      0.0003
     63  CD1       41.4200    7.2630   33.8700 C.ar  160  TRP160      0.0946
     64  CD2       42.7970    5.5040   33.8660 C.ar  160  TRP160      0.0152
     65  NE1       42.7090    7.7380   33.7660 N.ar  160  TRP160     -0.2442
     66  CE2       43.5710    6.6730   33.7470 C.ar  160  TRP160      0.0810
     67  CE3       43.4420    4.2630   33.8840 C.ar  160  TRP160      0.0012
     68  CZ2       44.9660    6.6410   33.6420 C.ar  160  TRP160      0.0191
     69  CZ3       44.8310    4.2310   33.7880 C.ar  160  TRP160      0.0001
     70  CH2       45.5740    5.4140   33.6700 C.ar  160  TRP160      0.0015
     71  N         61.2450    5.7650   40.7270 N.3   275  MET275     -0.1245
     72  CA        59.8850    6.1640   40.3350 C.3   275  MET275      0.1570
     73  C         58.9710    4.9470   40.2550 C.2   275  MET275      0.2261
     74  O         57.7680    5.0290   40.5370 O.2   275  MET275     -0.2867
     75  CB        59.8790    6.8800   38.9830 C.3   275  MET275      0.0387
     76  CG        60.3370    8.3260   39.0620 C.3   275  MET275      0.0595
     77  SD        59.1240    9.3430   39.9490 S.3   275  MET275     -0.1393
     78  CE        57.8330    9.4910   38.7230 C.3   275  MET275      0.0692
     79  N         56.7240    6.0650   43.9540 N.3   279  PHE279     -0.1241
     80  CA        55.6700    7.0270   43.6510 C.3   279  PHE279      0.1605
     81  C         54.3880    6.5070   44.3140 C.2   279  PHE279      0.2264
     82  O         54.1880    5.2790   44.4050 O.2   279  PHE279     -0.2867
     83  CB        55.5030    7.1860   42.1380 C.3   279  PHE279      0.0534
     84  CG        54.7320    8.4180   41.7410 C.ar  279  PHE279     -0.0203
     85  CD1       55.3520    9.6620   41.7320 C.ar  279  PHE279     -0.0042
     86  CD2       53.4000    8.3300   41.3750 C.ar  279  PHE279     -0.0042
     87  CE1       54.6490   10.8050   41.3730 C.ar  279  PHE279     -0.0003
     88  CE2       52.6820    9.4720   41.0170 C.ar  279  PHE279     -0.0003
     89  CZ        53.3130   10.7060   41.0140 C.ar  279  PHE279     -0.0000
     90  N         61.7280    4.2170   30.3110 N.3   442  THR442     -0.1203
     91  CA        60.8010    5.0590   31.0570 C.3   442  THR442      0.1994
     92  C         59.9900    4.1310   31.9690 C.2   442  THR442      0.2618
     93  O         60.1680    2.9080   31.9200 O.2   442  THR442     -0.2717
     94  CB        59.8970    5.8680   30.0970 C.3   442  THR442      0.1784
     95  OG1       59.0540    6.7520   30.8510 O.3   442  THR442     -0.2211
     96  CG2       59.0370    4.9350   29.2320 C.3   442  THR442      0.0376
     97  N         59.1340    4.6910   32.8190 N.am  443  TRP443     -0.1961
     98  CA        58.2070    3.8660   33.5710 C.3   443  TRP443      0.1771
     99  C         57.0360    4.7330   34.0000 C.2   443  TRP443      0.2620
    100  O         57.2220    5.8910   34.3160 O.2   443  TRP443     -0.2715
    101  CB        58.8850    3.2930   34.8310 C.3   443  TRP443      0.0590
    102  CG        58.1120    2.1590   35.4100 C.ar  443  TRP443      0.0006
    103  CD1       57.0190    2.2420   36.2300 C.ar  443  TRP443      0.0946
    104  CD2       58.3520    0.7660   35.1960 C.ar  443  TRP443      0.0152
    105  NE1       56.5700    0.9860   36.5400 N.ar  443  TRP443     -0.2442
    106  CE2       57.3740    0.0590   35.9240 C.ar  443  TRP443      0.0810
    107  CE3       59.3090    0.0420   34.4590 C.ar  443  TRP443      0.0012
    108  CZ2       57.3150   -1.3370   35.9390 C.ar  443  TRP443      0.0191
    109  CZ3       59.2540   -1.3470   34.4850 C.ar  443  TRP443      0.0001
    110  CH2       58.2610   -2.0210   35.2140 C.ar  443  TRP443      0.0015
    111  N         55.8320    4.1760   34.0140 N.am  444  GLY444     -0.1940
    112  CA        54.7520    4.8170   34.7420 C.3   444  GLY444      0.2014
    113  C         53.7910    5.6640   33.9330 C.2   444  GLY444      0.2639
    114  O         52.6720    5.9270   34.3900 O.2   444  GLY444     -0.2714
    115  N         54.2150    6.1150   32.7550 N.am  445  GLU445     -0.1963
    116  CA        53.3760    6.9910   31.9440 C.3   445  GLU445      0.1733
    117  C         52.2830    6.1450   31.3250 C.2   445  GLU445      0.2617
    118  O         52.5500    5.0540   30.8100 O.2   445  GLU445     -0.2715
    119  CB        54.1860    7.6960   30.8480 C.3   445  GLU445      0.0429
    120  CG        53.3800    8.7460   30.0600 C.3   445  GLU445      0.1163
    121  CD        54.2140    9.5450   29.0580 C.2   445  GLU445      0.3649
    122  OE1       55.4480    9.3470   28.9930 O.co2 445  GLU445     -0.2457
    123  OE2       53.6250   10.3810   28.3320 O.co2 445  GLU445     -0.2457
    124  N         51.0480    6.6340   31.3710 N.am  446  SER446     -0.1950
    125  CA        49.9360    5.8310   30.8770 C.3   446  SER446      0.1924
    126  C         48.9700    6.7240   30.1010 C.2   446  SER446      0.2314
    127  O         47.8940    7.0730   30.6030 O.2   446  SER446     -0.2863
    128  CB        49.2350    5.1450   32.0570 C.3   446  SER446      0.2116
    129  OG        48.4770    4.0220   31.6360 O.3   446  SER446     -0.2180
@<TRIPOS>BOND
     1   123   121   ar
     2    31    30    2
     3   122   121   ar
     4   121   120    1
     5    96    94    1
     6    30    29    1
     7   120   119    1
     8    94    95    1
     9    94    91    1
    10   126   127    2
    11   126   125    1
    12    90    91    1
    13    29    32    1
    14    29    28    1
    15    32    33    1
    16    34    33   ar
    17    33    35   ar
    18   118   117    2
    19   119   116    1
    20   125   124    1
    21   125   128    1
    22    91    92    1
    23   117   124   am
    24   117   116    1
    25   129   128    1
    26    93    92    2
    27   116   115    1
    28    92    97   am
    29    60    59    2
    30   115   113   am
    31    97    98    1
    32    24    23    2
    33    59    58    1
    34    98    99    1
    35    98   101    1
    36    17    16    2
    37    68    70   ar
    38    68    66   ar
    39    70    69   ar
    40    58    61    1
    41    58    57    1
    42    66    65   ar
    43    66    64   ar
    44    65    63   ar
    45    69    67   ar
    46    64    67   ar
    47    64    62   ar
    48    63    62   ar
    49    62    61    1
    50   113   114    2
    51   113   112    1
    52    99   111   am
    53    99   100    2
    54   111   112    1
    55    23    22    1
    56    22    25    1
    57    22    21    1
    58    19    18    1
    59   107   109   ar
    60   107   104   ar
    61    27    25    1
    62   109   110   ar
    63    25    26    1
    64    16    21   am
    65    16    15    1
    66   101   102    1
    67   104   102   ar
    68   104   106   ar
    69   110   108   ar
    70   102   103   ar
    71    15    18    1
    72    15    14    1
    73    18    20    1
    74   106   108   ar
    75   106   105   ar
    76   103   105   ar
    77    51    50    2
    78    55    54    2
    79     4     3    2
    80    53    54    1
    81    53    52    1
    82    54    56   am
    83    10     9    2
    84    50    49    1
    85     3     7   am
    86     3     2    1
    87     8     9    1
    88     8     7    1
    89     8    11    1
    90    49    52    1
    91    49    48    1
    92    12    11    1
    93    78    77    1
    94    75    76    1
    95    75    72    1
    96    76    77    1
    97    13    11    1
    98     2     5    1
    99     2     1    1
   100     5     6    1
   101    73    72    1
   102    73    74    2
   103    72    71    1
   104    45    43   ar
   105    45    46   ar
   106    43    41   ar
   107    89    88   ar
   108    89    87   ar
   109    88    86   ar
   110    47    46    1
   111    46    44   ar
   112    41    40    1
   113    41    42   ar
   114    87    85   ar
   115    86    84   ar
   116    40    37    1
   117    39    38    2
   118    85    84   ar
   119    84    83    1
   120    44    42   ar
   121    83    80    1
   122    38    37    1
   123    37    36    1
   124    80    79    1
   125    80    81    1
   126    81    82    2
