@<TRIPOS>MOLECULE
tmp/4cbbA00.pdb
 75 72 0 0 0
SMALL
GASTEIGER

@<TRIPOS>ATOM
      1  N         39.3060    0.9220   43.1980 N.3   150  ALA150     -0.1231
      2  CA        40.3310    0.6050   44.1790 C.3   150  ALA150      0.1694
      3  C         40.6580    1.8690   44.9450 C.2   150  ALA150      0.2592
      4  O         40.2060    2.9610   44.5850 O.2   150  ALA150     -0.2718
      5  CB        41.5790    0.0510   43.5080 C.3   150  ALA150      0.0304
      6  N         41.4420    1.7170   46.0050 N.am  151  TRP151     -0.1976
      7  CA        41.6940    2.8380   46.8930 C.3   151  TRP151      0.1640
      8  C         42.9380    3.6510   46.5800 C.2   151  TRP151      0.2290
      9  O         43.1550    4.6880   47.2040 O.2   151  TRP151     -0.2864
     10  CB        41.7360    2.3850   48.3520 C.3   151  TRP151      0.0576
     11  CG        42.6060    1.1960   48.6670 C.ar  151  TRP151      0.0006
     12  CD1       42.1820   -0.0530   49.0160 C.ar  151  TRP151      0.0946
     13  CD2       44.0400    1.1670   48.7400 C.ar  151  TRP151      0.0152
     14  NE1       43.2620   -0.8640   49.2850 N.ar  151  TRP151     -0.2442
     15  CE2       44.4130   -0.1380   49.1250 C.ar  151  TRP151      0.0810
     16  CE3       45.0440    2.1120   48.5080 C.ar  151  TRP151      0.0012
     17  CZ2       45.7500   -0.5150   49.2870 C.ar  151  TRP151      0.0191
     18  CZ3       46.3700    1.7360   48.6690 C.ar  151  TRP151      0.0001
     19  CH2       46.7080    0.4370   49.0620 C.ar  151  TRP151      0.0015
     20  N         41.6220   -4.0540   41.4050 N.3   228  GLY228     -0.1210
     21  CA        41.9780   -4.4830   42.7530 C.3   228  GLY228      0.1956
     22  C         42.9260   -5.6640   42.7080 C.2   228  GLY228      0.2612
     23  O         43.5910   -5.8820   41.7010 O.2   228  GLY228     -0.2717
     24  N         42.9940   -6.4370   43.7860 N.am  229  GLY229     -0.1956
     25  CA        43.9480   -7.5300   43.8380 C.3   229  GLY229      0.1869
     26  C         43.5080   -8.7250   43.0120 C.2   229  GLY229      0.2309
     27  O         42.3150   -8.9230   42.7550 O.2   229  GLY229     -0.2863
     28  N         44.1710   -5.9550   37.6020 N.3   252  LEU252     -0.1231
     29  CA        44.5120   -6.5800   38.8810 C.3   252  LEU252      0.1693
     30  C         45.9480   -6.3450   39.3240 C.2   252  LEU252      0.2592
     31  O         46.5310   -5.3160   39.0080 O.2   252  LEU252     -0.2718
     32  CB        44.1720   -8.0720   38.8580 C.3   252  LEU252      0.0284
     33  CG        42.7490   -8.3630   38.3650 C.3   252  LEU252      0.0019
     34  CD1       42.4740   -9.8580   38.4020 C.3   252  LEU252      0.0001
     35  CD2       41.6750   -7.6480   39.1790 C.3   252  LEU252      0.0001
     36  N         46.5000   -7.2880   40.0850 N.am  253  GLY253     -0.1957
     37  CA        47.7910   -7.0640   40.7180 C.3   253  GLY253      0.1869
     38  C         48.9570   -7.3400   39.7880 C.2   253  GLY253      0.2309
     39  O         48.7670   -7.7720   38.6510 O.2   253  GLY253     -0.2863
     40  N         49.7490   -0.4230   40.9720 N.3   285  CYS285     -0.1235
     41  CA        49.6950   -1.8110   40.5550 C.3   285  CYS285      0.1677
     42  C         50.8160   -2.1580   39.5870 C.2   285  CYS285      0.2270
     43  O         51.3350   -3.2720   39.6070 O.2   285  CYS285     -0.2867
     44  CB        48.3560   -2.0190   39.8490 C.3   285  CYS285      0.0956
     45  SG        47.0830   -1.8490   41.0640 S.3   285  CYS285     -0.0801
     46  N         46.7780   -1.6200   55.9590 N.3   332  HIS332     -0.1241
     47  CA        47.6930   -1.8180   54.8410 C.3   332  HIS332      0.1621
     48  C         49.1440   -1.6450   55.2800 C.2   332  HIS332      0.2264
     49  O         50.0310   -2.4110   54.8640 O.2   332  HIS332     -0.2867
     50  CB        47.3760   -0.8930   53.6780 C.3   332  HIS332      0.0745
     51  CG        48.1780   -1.2020   52.4560 C.ar  332  HIS332      0.0817
     52  ND1       48.1340   -2.4370   51.8440 N.ar  332  HIS332     -0.2268
     53  CD2       49.0780   -0.4680   51.7620 C.ar  332  HIS332      0.1154
     54  CE1       48.9550   -2.4420   50.8110 C.ar  332  HIS332      0.1986
     55  NE2       49.5400   -1.2610   50.7360 N.ar  332  HIS332     -0.2212
     56  N         53.0840   -9.7550   45.6640 N.3   386  GLU386     -0.1245
     57  CA        52.8500   -8.3250   45.5060 C.3   386  GLU386      0.1567
     58  C         52.7090   -7.6990   46.8770 C.2   386  GLU386      0.2260
     59  O         51.8780   -8.1260   47.6730 O.2   386  GLU386     -0.2867
     60  CB        51.5630   -8.0860   44.7250 C.3   386  GLU386      0.0388
     61  CG        51.2190   -6.6100   44.5910 C.3   386  GLU386      0.1160
     62  CD        49.9110   -6.3910   43.8720 C.2   386  GLU386      0.3649
     63  OE1       48.8980   -7.0200   44.2680 O.co2 386  GLU386     -0.2457
     64  OE2       49.9000   -5.5940   42.9150 O.co2 386  GLU386     -0.2457
     65  N         52.5420   -4.1320   47.3150 N.3   388  PHE388     -0.1241
     66  CA        51.7340   -2.9170   47.1570 C.3   388  PHE388      0.1605
     67  C         52.1180   -1.8550   48.1790 C.2   388  PHE388      0.2264
     68  O         51.2800   -1.1210   48.7140 O.2   388  PHE388     -0.2867
     69  CB        50.2360   -3.2260   47.1860 C.3   388  PHE388      0.0534
     70  CG        49.4080   -2.2740   46.3690 C.ar  388  PHE388     -0.0203
     71  CD1       49.6210   -2.1410   45.0010 C.ar  388  PHE388     -0.0042
     72  CD2       48.4030   -1.5260   46.9600 C.ar  388  PHE388     -0.0042
     73  CE1       48.8450   -1.2690   44.2430 C.ar  388  PHE388     -0.0003
     74  CE2       47.6260   -0.6570   46.2030 C.ar  388  PHE388     -0.0003
     75  CZ        47.8460   -0.5290   44.8440 C.ar  388  PHE388     -0.0000
@<TRIPOS>BOND
     1    28    29    1
     2    33    34    1
     3    33    32    1
     4    33    35    1
     5    39    38    2
     6    32    29    1
     7    29    30    1
     8    31    30    2
     9    30    36   am
    10    42    43    2
    11    42    41    1
    12    38    37    1
    13    44    41    1
    14    44    45    1
    15    36    37    1
    16    41    40    1
    17    20    21    1
    18    23    22    2
    19    22    21    1
    20    22    24   am
    21    27    26    2
    22    64    62   ar
    23    26    25    1
    24     1     2    1
    25     5     2    1
    26    24    25    1
    27    62    63   ar
    28    62    61    1
    29     2     3    1
    30    73    75   ar
    31    73    71   ar
    32     4     3    2
    33    61    60    1
    34    60    57    1
    35    75    74   ar
    36     3     6   am
    37    71    70   ar
    38    57    56    1
    39    57    58    1
    40     6     7    1
    41    74    72   ar
    42    70    72   ar
    43    70    69    1
    44     8     7    1
    45     8     9    2
    46    58    59    2
    47     7    10    1
    48    66    69    1
    49    66    65    1
    50    66    67    1
    51    67    68    2
    52    10    11    1
    53    16    18   ar
    54    16    13   ar
    55    11    13   ar
    56    11    12   ar
    57    18    19   ar
    58    13    15   ar
    59    12    14   ar
    60    19    17   ar
    61    15    14   ar
    62    15    17   ar
    63    55    54   ar
    64    55    53   ar
    65    54    52   ar
    66    53    51   ar
    67    52    51   ar
    68    51    50    1
    69    50    47    1
    70    47    48    1
    71    47    46    1
    72    49    48    2
