@<TRIPOS>MOLECULE
tmp/4cbcA01.pdb
 107 103 0 0 0
SMALL
GASTEIGER

@<TRIPOS>ATOM
      1  N        -24.2250  -55.8490    5.1970 N.3    12  VAL12      -0.1245
      2  CA       -23.9520  -56.6470    6.3910 C.3    12  VAL12       0.1561
      3  C        -24.6240  -58.0140    6.2760 C.2    12  VAL12       0.2260
      4  O        -24.0530  -59.0350    6.6610 O.2    12  VAL12      -0.2867
      5  CB       -24.4450  -55.9310    7.6790 C.3    12  VAL12       0.0252
      6  CG1      -24.5600  -56.9090    8.8440 C.3    12  VAL12       0.0019
      7  CG2      -23.5210  -54.7800    8.0420 C.3    12  VAL12       0.0019
      8  N        -22.3000  -61.3060    6.1550 N.3    16  ALA16      -0.1245
      9  CA       -22.5250  -62.2940    7.2050 C.3    16  ALA16       0.1562
     10  C        -22.9750  -63.6270    6.6160 C.2    16  ALA16       0.2260
     11  O        -22.5810  -64.6910    7.0960 O.2    16  ALA16      -0.2867
     12  CB       -23.5550  -61.7880    8.1990 C.3    16  ALA16       0.0290
     13  N        -19.9440  -65.2090    5.0060 N.3    19  MET19      -0.1245
     14  CA       -19.1390  -65.7340    6.1090 C.3    19  MET19       0.1570
     15  C        -19.7320  -67.0010    6.7350 C.2    19  MET19       0.2261
     16  O        -19.0050  -67.9300    7.0880 O.2    19  MET19      -0.2867
     17  CB       -18.9700  -64.6660    7.1960 C.3    19  MET19       0.0387
     18  CG       -17.9720  -63.5700    6.8720 C.3    19  MET19       0.0595
     19  SD       -18.0540  -62.2360    8.0840 S.3    19  MET19      -0.1393
     20  CE       -17.6590  -63.1270    9.5830 C.3    19  MET19       0.0692
     21  N        -18.3450  -70.9910    7.1120 N.3    23  LEU23      -0.1231
     22  CA       -18.1220  -71.5360    8.4520 C.3    23  LEU23       0.1693
     23  C        -18.9350  -72.7820    8.8000 C.2    23  LEU23       0.2592
     24  O        -18.3850  -73.7870    9.2540 O.2    23  LEU23      -0.2718
     25  CB       -18.3850  -70.4490    9.5040 C.3    23  LEU23       0.0284
     26  CG       -17.4140  -69.2700    9.5710 C.3    23  LEU23       0.0019
     27  CD1      -17.9190  -68.2220   10.5350 C.3    23  LEU23       0.0001
     28  CD2      -16.0450  -69.7450    9.9940 C.3    23  LEU23       0.0001
     29  N        -20.2440  -72.7150    8.5810 N.am   24  TYR24      -0.1976
     30  CA       -21.1540  -73.7300    9.1060 C.3    24  TYR24       0.1639
     31  C        -21.8360  -74.5310    7.9970 C.2    24  TYR24       0.2290
     32  O        -22.6160  -75.4440    8.2680 O.2    24  TYR24      -0.2864
     33  CB       -22.2050  -73.0650    9.9980 C.3    24  TYR24       0.0560
     34  CG       -21.6400  -71.9660   10.8710 C.ar   24  TYR24      -0.0198
     35  CD1      -20.7210  -72.2480   11.8780 C.ar   24  TYR24      -0.0009
     36  CD2      -22.0150  -70.6400   10.6730 C.ar   24  TYR24      -0.0009
     37  CE1      -20.2010  -71.2400   12.6700 C.ar   24  TYR24       0.0417
     38  CE2      -21.5010  -69.6270   11.4590 C.ar   24  TYR24       0.0417
     39  CZ       -20.5940  -69.9340   12.4560 C.ar   24  TYR24       0.1957
     40  OH       -20.0760  -68.9330   13.2430 O.3    24  TYR24      -0.2866
     41  N        -19.1900  -76.3020   16.7900 N.3    63  HIS63      -0.1241
     42  CA       -18.3870  -75.0850   16.7380 C.3    63  HIS63       0.1621
     43  C        -18.6260  -74.2520   17.9980 C.2    63  HIS63       0.2264
     44  O        -19.3760  -73.2790   17.9680 O.2    63  HIS63      -0.2867
     45  CB       -18.7400  -74.2740   15.4900 C.3    63  HIS63       0.0745
     46  CG       -18.7520  -75.0820   14.2270 C.ar   63  HIS63       0.0817
     47  ND1      -17.6330  -75.2490   13.4390 N.ar   63  HIS63      -0.2268
     48  CD2      -19.7460  -75.7790   13.6250 C.ar   63  HIS63       0.1154
     49  CE1      -17.9400  -76.0040   12.3980 C.ar   63  HIS63       0.1986
     50  NE2      -19.2140  -76.3400   12.4890 N.ar   63  HIS63      -0.2212
     51  N        -17.5050  -71.8970   19.5980 N.3    65  ASN65      -0.1225
     52  CA       -17.3710  -70.4420   19.6310 C.3    65  ASN65       0.1785
     53  C        -18.3270  -69.7040   18.6940 C.2    65  ASN65       0.2597
     54  O        -18.2200  -68.4850   18.5260 O.2    65  ASN65      -0.2718
     55  CB       -15.9290  -70.0330   19.3180 C.3    65  ASN65       0.1169
     56  CG       -14.9860  -70.2500   20.4880 C.2    65  ASN65       0.2627
     57  OD1      -13.9770  -70.9430   20.3650 O.2    65  ASN65      -0.2716
     58  ND2      -15.3090  -69.6530   21.6300 N.am   65  ASN65      -0.0877
     59  N        -19.2610  -70.4400   18.0940 N.am   66  ALA66      -0.1979
     60  CA       -20.2210  -69.8720   17.1390 C.3    66  ALA66       0.1597
     61  C        -20.9600  -68.6380   17.6590 C.2    66  ALA66       0.2287
     62  O        -21.5040  -67.8620   16.8760 O.2    66  ALA66      -0.2864
     63  CB       -21.2240  -70.9310   16.7060 C.3    66  ALA66       0.0319
     64  N        -19.6660  -66.0240   19.0110 N.3    68  VAL68      -0.1231
     65  CA       -18.9430  -64.7900   18.7210 C.3    68  VAL68       0.1692
     66  C        -19.3470  -64.2840   17.3430 C.2    68  VAL68       0.2592
     67  O        -19.1280  -63.1220   17.0070 O.2    68  VAL68      -0.2718
     68  CB       -17.4030  -64.9470   18.8080 C.3    68  VAL68       0.0266
     69  CG1      -17.0120  -65.7180   20.0490 C.3    68  VAL68       0.0020
     70  CG2      -16.8610  -65.6390   17.5830 C.3    68  VAL68       0.0020
     71  N        -19.9290  -65.1780   16.5460 N.am   69  PHE69      -0.1976
     72  CA       -20.5220  -64.8110   15.2640 C.3    69  PHE69       0.1639
     73  C        -21.9580  -64.3140   15.4060 C.2    69  PHE69       0.2290
     74  O        -22.3140  -63.2660   14.8800 O.2    69  PHE69      -0.2864
     75  CB       -20.4900  -65.9710   14.2700 C.3    69  PHE69       0.0560
     76  CG       -21.1400  -65.6420   12.9510 C.ar   69  PHE69      -0.0200
     77  CD1      -20.5990  -64.6780   12.1120 C.ar   69  PHE69      -0.0042
     78  CD2      -22.3130  -66.2740   12.5720 C.ar   69  PHE69      -0.0042
     79  CE1      -21.2100  -64.3680   10.9090 C.ar   69  PHE69      -0.0003
     80  CE2      -22.9270  -65.9690   11.3730 C.ar   69  PHE69      -0.0003
     81  CZ       -22.3760  -65.0150   10.5400 C.ar   69  PHE69      -0.0000
     82  N        -23.0070  -60.8500   18.1670 N.3    72  PRO72      -0.2102
     83  CA       -22.7870  -59.4970   17.6420 C.3    72  PRO72       0.1504
     84  C        -23.6010  -59.2530   16.3700 C.2    72  PRO72       0.2575
     85  O        -24.0700  -58.1340   16.1620 O.2    72  PRO72      -0.2718
     86  CB       -21.2850  -59.4730   17.3380 C.3    72  PRO72       0.0282
     87  CG       -20.7050  -60.5560   18.1740 C.3    72  PRO72       0.0208
     88  CD       -21.7560  -61.6260   18.1980 C.3    72  PRO72       0.0893
     89  N        -23.7630  -60.2890   15.5430 N.am   73  PHE73      -0.1977
     90  CA       -24.6320  -60.2220   14.3650 C.3    73  PHE73       0.1639
     91  C        -26.0380  -59.8040   14.7570 C.2    73  PHE73       0.2290
     92  O        -26.6190  -58.9040   14.1520 O.2    73  PHE73      -0.2864
     93  CB       -24.7070  -61.5800   13.6560 C.3    73  PHE73       0.0560
     94  CG       -25.8520  -61.6920   12.6780 C.ar   73  PHE73      -0.0200
     95  CD1      -25.7960  -61.0730   11.4380 C.ar   73  PHE73      -0.0042
     96  CD2      -26.9970  -62.4000   13.0170 C.ar   73  PHE73      -0.0042
     97  CE1      -26.8530  -61.1790   10.5490 C.ar   73  PHE73      -0.0003
     98  CE2      -28.0560  -62.5020   12.1380 C.ar   73  PHE73      -0.0003
     99  CZ       -27.9860  -61.8900   10.9030 C.ar   73  PHE73      -0.0000
    100  N        -26.2060  -56.2560   16.0810 N.3    76  LEU76      -0.1245
    101  CA       -26.0310  -55.2760   15.0080 C.3    76  LEU76       0.1561
    102  C        -27.2670  -55.1260   14.1170 C.2    76  LEU76       0.2260
    103  O        -27.7610  -54.0190   13.9150 O.2    76  LEU76      -0.2867
    104  CB       -24.8110  -55.6300   14.1470 C.3    76  LEU76       0.0270
    105  CG       -24.6070  -54.7860   12.8840 C.3    76  LEU76       0.0019
    106  CD1      -24.3790  -53.3290   13.2340 C.3    76  LEU76       0.0001
    107  CD2      -23.4530  -55.3150   12.0450 C.3    76  LEU76       0.0001
@<TRIPOS>BOND
     1    13    14    1
     2     1     2    1
     3    14    15    1
     4    14    17    1
     5     8     9    1
     6     3     2    1
     7     3     4    2
     8     2     5    1
     9    10    11    2
    10    10     9    1
    11    15    16    2
    12    18    17    1
    13    18    19    1
    14    21    22    1
    15     9    12    1
    16     5     7    1
    17     5     6    1
    18    31    32    2
    19    31    30    1
    20    19    20    1
    21    22    23    1
    22    22    25    1
    23    29    23   am
    24    29    30    1
    25    23    24    2
    26    30    33    1
    27    25    26    1
    28    26    28    1
    29    26    27    1
    30    33    34    1
    31    81    79   ar
    32    81    80   ar
    33    97    99   ar
    34    97    95   ar
    35    36    34   ar
    36    36    38   ar
    37    34    35   ar
    38    99    98   ar
    39    79    77   ar
    40    80    78   ar
    41    95    94   ar
    42    38    39   ar
    43    35    37   ar
    44   107   105    1
    45    77    76   ar
    46    98    96   ar
    47    49    50   ar
    48    49    47   ar
    49    39    37   ar
    50    39    40    1
    51    50    48   ar
    52    78    76   ar
    53    94    96   ar
    54    94    93    1
    55   105   106    1
    56   105   104    1
    57    76    75    1
    58    47    46   ar
    59    48    46   ar
    60    93    90    1
    61   103   102    2
    62   102   101    1
    63   104   101    1
    64    92    91    2
    65    46    45    1
    66    75    72    1
    67    90    91    1
    68    90    89    1
    69    74    73    2
    70   101   100    1
    71    72    73    1
    72    72    71    1
    73    45    42    1
    74    89    84   am
    75    85    84    2
    76    84    83    1
    77    71    66   am
    78    63    60    1
    79    42    41    1
    80    42    43    1
    81    62    61    2
    82    67    66    2
    83    60    61    1
    84    60    59    1
    85    86    83    1
    86    86    87    1
    87    66    65    1
    88    70    68    1
    89    83    82    1
    90    44    43    2
    91    59    53   am
    92    82    88    1
    93    87    88    1
    94    54    53    2
    95    53    52    1
    96    65    68    1
    97    65    64    1
    98    68    69    1
    99    55    52    1
   100    55    56    1
   101    51    52    1
   102    57    56    2
   103    56    58   am
