@<TRIPOS>MOLECULE
tmp/4cbcB02.pdb
 115 111 0 0 0
SMALL
GASTEIGER

@<TRIPOS>ATOM
      1  N        -25.2540  -55.8540   35.7760 N.3    12  VAL12      -0.1245
      2  CA       -26.4370  -56.6670   36.0500 C.3    12  VAL12       0.1561
      3  C        -26.3130  -58.0250   35.3580 C.2    12  VAL12       0.2260
      4  O        -26.6780  -59.0560   35.9220 O.2    12  VAL12      -0.2867
      5  CB       -27.7380  -55.9560   35.5870 C.3    12  VAL12       0.0252
      6  CG1      -28.8970  -56.9420   35.4910 C.3    12  VAL12       0.0019
      7  CG2      -28.0920  -54.8180   36.5310 C.3    12  VAL12       0.0019
      8  N        -23.6150  -60.0500   37.3990 N.3    15  ILE15      -0.1231
      9  CA       -24.1430  -60.4110   38.7130 C.3    15  ILE15       0.1692
     10  C        -25.2380  -61.4750   38.5920 C.2    15  ILE15       0.2591
     11  O        -25.2450  -62.4540   39.3390 O.2    15  ILE15      -0.2718
     12  CB       -24.6860  -59.1730   39.4680 C.3    15  ILE15       0.0266
     13  CG1      -23.5410  -58.2070   39.7910 C.3    15  ILE15       0.0019
     14  CG2      -25.3790  -59.5910   40.7570 C.3    15  ILE15       0.0020
     15  CD1      -23.9810  -56.9280   40.4850 C.3    15  ILE15       0.0001
     16  N        -26.1430  -61.2970   37.6330 N.am   16  ALA16      -0.1980
     17  CA       -27.1990  -62.2800   37.4110 C.3    16  ALA16       0.1597
     18  C        -26.5920  -63.6070   36.9760 C.2    16  ALA16       0.2287
     19  O        -27.0570  -64.6780   37.3710 O.2    16  ALA16      -0.2864
     20  CB       -28.1770  -61.7860   36.3640 C.3    16  ALA16       0.0319
     21  N        -24.9460  -65.1730   40.0070 N.3    19  MET19      -0.1245
     22  CA       -26.0490  -65.7110   40.8060 C.3    19  MET19       0.1570
     23  C        -26.6620  -66.9840   40.2110 C.2    19  MET19       0.2261
     24  O        -27.0260  -67.9080   40.9390 O.2    19  MET19      -0.2867
     25  CB       -27.1440  -64.6490   40.9690 C.3    19  MET19       0.0387
     26  CG       -26.8260  -63.5510   41.9670 C.3    19  MET19       0.0595
     27  SD       -28.0300  -62.2110   41.8820 S.3    19  MET19      -0.1393
     28  CE       -29.5360  -63.0920   42.2770 C.3    19  MET19       0.0692
     29  N        -27.0450  -71.0080   41.6070 N.3    23  LEU23      -0.1231
     30  CA       -28.3930  -71.5460   41.7810 C.3    23  LEU23       0.1693
     31  C        -28.7310  -72.7830   40.9460 C.2    23  LEU23       0.2592
     32  O        -29.2080  -73.7840   41.4810 O.2    23  LEU23      -0.2718
     33  CB       -29.4340  -70.4490   41.5110 C.3    23  LEU23       0.0284
     34  CG       -29.5350  -69.2960   42.5110 C.3    23  LEU23       0.0019
     35  CD1      -30.4860  -68.2350   42.0060 C.3    23  LEU23       0.0001
     36  CD2      -30.0000  -69.8090   43.8510 C.3    23  LEU23       0.0001
     37  N        -28.4830  -72.7220   39.6400 N.am   24  TYR24      -0.1976
     38  CA       -29.0100  -73.7440   38.7310 C.3    24  TYR24       0.1639
     39  C        -27.9270  -74.5820   38.0460 C.2    24  TYR24       0.2290
     40  O        -28.2330  -75.4960   37.2820 O.2    24  TYR24      -0.2864
     41  CB       -29.9020  -73.0830   37.6760 C.3    24  TYR24       0.0560
     42  CG       -30.7830  -71.9840   38.2320 C.ar   24  TYR24      -0.0198
     43  CD1      -31.7830  -72.2630   39.1590 C.ar   24  TYR24      -0.0009
     44  CD2      -30.6100  -70.6640   37.8270 C.ar   24  TYR24      -0.0009
     45  CE1      -32.5860  -71.2560   39.6670 C.ar   24  TYR24       0.0417
     46  CE2      -31.4060  -69.6510   38.3280 C.ar   24  TYR24       0.0417
     47  CZ       -32.3930  -69.9540   39.2480 C.ar   24  TYR24       0.1957
     48  OH       -33.1890  -68.9510   39.7500 O.3    24  TYR24      -0.2866
     49  N        -36.7970  -76.3480   40.7510 N.3    63  HIS63      -0.1241
     50  CA       -36.7200  -75.1200   41.5370 C.3    63  HIS63       0.1621
     51  C        -37.9790  -74.2800   41.3110 C.2    63  HIS63       0.2264
     52  O        -37.9480  -73.3010   40.5680 O.2    63  HIS63      -0.2867
     53  CB       -35.4800  -74.3240   41.1250 C.3    63  HIS63       0.0745
     54  CG       -34.2130  -75.1260   41.1380 C.ar   63  HIS63       0.0817
     55  ND1      -33.3870  -75.1900   42.2410 N.ar   63  HIS63      -0.2268
     56  CD2      -33.6630  -75.9400   40.2050 C.ar   63  HIS63       0.1154
     57  CE1      -32.3620  -75.9790   41.9720 C.ar   63  HIS63       0.1986
     58  NE2      -32.5090  -76.4510   40.7470 N.ar   63  HIS63      -0.2212
     59  N        -39.5960  -71.9110   42.4260 N.3    65  ASN65      -0.1225
     60  CA       -39.6340  -70.4560   42.5620 C.3    65  ASN65       0.1785
     61  C        -38.6980  -69.7120   41.6120 C.2    65  ASN65       0.2597
     62  O        -38.5240  -68.4950   41.7290 O.2    65  ASN65      -0.2718
     63  CB       -39.3300  -70.0510   44.0070 C.3    65  ASN65       0.1169
     64  CG       -40.5040  -70.2760   44.9410 C.2    65  ASN65       0.2627
     65  OD1      -41.6630  -70.2200   44.5280 O.2    65  ASN65      -0.2716
     66  ND2      -40.2080  -70.5320   46.2100 N.am   65  ASN65      -0.0877
     67  N        -38.1030  -70.4430   40.6720 N.am   66  ALA66      -0.1979
     68  CA       -37.1460  -69.8730   39.7160 C.3    66  ALA66       0.1597
     69  C        -37.6540  -68.6200   38.9940 C.2    66  ALA66       0.2287
     70  O        -36.8630  -67.8510   38.4500 O.2    66  ALA66      -0.2864
     71  CB       -36.7300  -70.9260   38.6980 C.3    66  ALA66       0.0319
     72  N        -38.9510  -65.9840   40.3260 N.3    68  VAL68      -0.1231
     73  CA       -38.6440  -64.7590   41.0650 C.3    68  VAL68       0.1692
     74  C        -37.2790  -64.2300   40.6430 C.2    68  VAL68       0.2592
     75  O        -36.9420  -63.0730   40.8960 O.2    68  VAL68      -0.2718
     76  CB       -38.6840  -64.9460   42.6060 C.3    68  VAL68       0.0266
     77  CG1      -39.9180  -65.7170   43.0230 C.3    68  VAL68       0.0020
     78  CG2      -37.4380  -65.6490   43.1000 C.3    68  VAL68       0.0020
     79  N        -36.4920  -65.1000   40.0170 N.am   69  PHE69      -0.1976
     80  CA       -35.2190  -64.7230   39.4130 C.3    69  PHE69       0.1639
     81  C        -35.3850  -64.1830   37.9920 C.2    69  PHE69       0.2290
     82  O        -34.9480  -63.0780   37.6790 O.2    69  PHE69      -0.2864
     83  CB       -34.2520  -65.9100   39.4040 C.3    69  PHE69       0.0560
     84  CG       -32.9210  -65.6060   38.7650 C.ar   69  PHE69      -0.0200
     85  CD1      -32.0170  -64.7460   39.3720 C.ar   69  PHE69      -0.0042
     86  CD2      -32.5800  -66.1820   37.5500 C.ar   69  PHE69      -0.0042
     87  CE1      -30.7970  -64.4700   38.7770 C.ar   69  PHE69      -0.0003
     88  CE2      -31.3660  -65.9110   36.9520 C.ar   69  PHE69      -0.0003
     89  CZ       -30.4720  -65.0530   37.5650 C.ar   69  PHE69      -0.0000
     90  N        -38.0460  -60.8120   36.9760 N.3    72  PRO72      -0.2102
     91  CA       -37.4510  -59.4930   37.2180 C.3    72  PRO72       0.1504
     92  C        -36.1930  -59.2880   36.3780 C.2    72  PRO72       0.2575
     93  O        -35.9650  -58.1740   35.9080 O.2    72  PRO72      -0.2718
     94  CB       -37.0920  -59.5340   38.7060 C.3    72  PRO72       0.0282
     95  CG       -37.9710  -60.5720   39.2820 C.3    72  PRO72       0.0208
     96  CD       -38.0970  -61.6100   38.2120 C.3    72  PRO72       0.0893
     97  N        -35.4050  -60.3480   36.1910 N.am   73  PHE73      -0.1977
     98  CA       -34.2510  -60.3000   35.2940 C.3    73  PHE73       0.1639
     99  C        -34.6640  -59.8570   33.9030 C.2    73  PHE73       0.2290
    100  O        -34.0670  -58.9480   33.3300 O.2    73  PHE73      -0.2864
    101  CB       -33.5750  -61.6710   35.1850 C.3    73  PHE73       0.0560
    102  CG       -32.6720  -61.8050   33.9820 C.ar   73  PHE73      -0.0200
    103  CD1      -31.4250  -61.1960   33.9500 C.ar   73  PHE73      -0.0042
    104  CD2      -33.0900  -62.5240   32.8720 C.ar   73  PHE73      -0.0042
    105  CE1      -30.6100  -61.3210   32.8360 C.ar   73  PHE73      -0.0003
    106  CE2      -32.2850  -62.6470   31.7600 C.ar   73  PHE73      -0.0003
    107  CZ       -31.0450  -62.0450   31.7400 C.ar   73  PHE73      -0.0000
    108  N        -36.0350  -56.2760   33.8040 N.3    76  LEU76      -0.1245
    109  CA       -34.9710  -55.2860   33.9760 C.3    76  LEU76       0.1561
    110  C        -34.0860  -55.1370   32.7380 C.2    76  LEU76       0.2260
    111  O        -33.8970  -54.0330   32.2340 O.2    76  LEU76      -0.2867
    112  CB       -34.1010  -55.6240   35.1950 C.3    76  LEU76       0.0270
    113  CG       -32.8480  -54.7630   35.3880 C.3    76  LEU76       0.0019
    114  CD1      -33.2170  -53.3100   35.6110 C.3    76  LEU76       0.0001
    115  CD2      -32.0000  -55.2740   36.5430 C.3    76  LEU76       0.0001
@<TRIPOS>BOND
     1   107   106   ar
     2   107   105   ar
     3   106   104   ar
     4   111   110    2
     5   110   109    1
     6   105   103   ar
     7   104   102   ar
     8   100    99    2
     9   108   109    1
    10    99    98    1
    11   103   102   ar
    12   109   112    1
    13   102   101    1
    14   101    98    1
    15   112   113    1
    16    98    97    1
    17     3     4    2
    18     3     2    1
    19   113   114    1
    20   113   115    1
    21     6     5    1
    22     5     2    1
    23     5     7    1
    24     1     2    1
    25    93    92    2
    26    97    92   am
    27    20    17    1
    28    92    91    1
    29    88    86   ar
    30    88    89   ar
    31    18    19    2
    32    18    17    1
    33    90    91    1
    34    90    96    1
    35    91    94    1
    36    40    39    2
    37     8     9    1
    38    17    16    1
    39    86    84   ar
    40    89    87   ar
    41    16    10   am
    42    41    42    1
    43    41    38    1
    44    82    81    2
    45    44    42   ar
    46    44    46   ar
    47    81    80    1
    48    39    38    1
    49    96    95    1
    50    42    43   ar
    51    46    47   ar
    52    70    69    2
    53    10     9    1
    54    10    11    2
    55    71    68    1
    56    94    95    1
    57     9    12    1
    58    38    37    1
    59    84    85   ar
    60    84    83    1
    61    87    85   ar
    62    69    68    1
    63    43    45   ar
    64    47    45   ar
    65    47    48    1
    66    83    80    1
    67    80    79    1
    68    12    13    1
    69    12    14    1
    70    37    31   am
    71    68    67    1
    72    13    15    1
    73    21    22    1
    74    79    74   am
    75    56    58   ar
    76    56    54   ar
    77    23    22    1
    78    23    24    2
    79    72    73    1
    80    52    51    2
    81    74    75    2
    82    74    73    1
    83    67    61   am
    84    58    57   ar
    85    49    50    1
    86    22    25    1
    87    31    32    2
    88    31    30    1
    89    25    26    1
    90    73    76    1
    91    53    54    1
    92    53    50    1
    93    54    55   ar
    94    51    50    1
    95    33    30    1
    96    33    34    1
    97    29    30    1
    98    61    62    2
    99    61    60    1
   100    27    26    1
   101    27    28    1
   102    57    55   ar
   103    35    34    1
   104    59    60    1
   105    34    36    1
   106    60    63    1
   107    76    77    1
   108    76    78    1
   109    63    64    1
   110    65    64    2
   111    64    66   am
