@<TRIPOS>MOLECULE
tmp/4cbtB00.pdb
 162 159 0 0 0
SMALL
GASTEIGER

@<TRIPOS>ATOM
      1  N         -6.4140   52.8950  177.8830 N.3    28  PRO28      -0.2102
      2  CA        -6.2320   51.4960  177.5280 C.3    28  PRO28       0.1504
      3  C         -5.8360   50.6010  178.7020 C.2    28  PRO28       0.2575
      4  O         -6.3380   49.4840  178.8360 O.2    28  PRO28      -0.2718
      5  CB        -5.1340   51.5140  176.4690 C.3    28  PRO28       0.0282
      6  CG        -5.1990   52.9120  175.8930 C.3    28  PRO28       0.0208
      7  CD        -5.5770   53.7710  177.0800 C.3    28  PRO28       0.0893
      8  N         -4.8490   51.0680  179.5270 N.am   29  GLU29      -0.1980
      9  CA        -4.3780   50.3000  180.6720 C.3    29  GLU29       0.1602
     10  C         -5.3280   50.5800  181.8390 C.2    29  GLU29       0.2287
     11  O         -5.1190   51.4460  182.6850 O.2    29  GLU29      -0.2864
     12  CB        -2.9370   50.6870  181.0150 C.3    29  GLU29       0.0415
     13  CG        -2.1820   49.6010  181.7780 C.3    29  GLU29       0.1163
     14  CD        -2.6300   49.4220  183.2210 C.2    29  GLU29       0.3649
     15  OE1       -2.2080   50.2730  184.0480 O.co2  29  GLU29      -0.2457
     16  OE2       -3.4100   48.4410  183.4510 O.co2  29  GLU29      -0.2457
     17  N         -8.8830   44.9260  182.5380 N.3    33  ARG33      -0.1245
     18  CA        -7.9590   43.9870  181.9380 C.3    33  ARG33       0.1563
     19  C         -7.7520   42.7620  182.8380 C.2    33  ARG33       0.2260
     20  O         -7.9440   41.6220  182.4260 O.2    33  ARG33      -0.2867
     21  CB        -6.6230   44.6710  181.6560 C.3    33  ARG33       0.0307
     22  CG        -6.7510   45.7690  180.5990 C.3    33  ARG33       0.0489
     23  CD        -5.4570   46.5440  180.4310 C.3    33  ARG33       0.2205
     24  NE        -4.3570   45.6860  180.0030 N.pl3  33  ARG33      -0.0865
     25  CZ        -3.2960   45.3490  180.7630 C.cat  33  ARG33       0.5346
     26  NH1       -3.0670   45.8450  181.9910 N.pl3  33  ARG33       0.1354
     27  NH2       -2.3800   44.5190  180.2170 N.pl3  33  ARG33       0.1354
     28  N         -0.1420   61.6840  179.5320 N.3    81  ASP81      -0.1239
     29  CA        -0.6980   60.5430  178.8140 C.3    81  ASP81       0.1674
     30  C         -1.0150   59.4060  179.7970 C.2    81  ASP81       0.2266
     31  O         -1.8940   58.5800  179.5390 O.2    81  ASP81      -0.2867
     32  CB         0.2910   60.0640  177.7380 C.3    81  ASP81       0.1410
     33  CG        -0.3920   59.6960  176.4300 C.2    81  ASP81       0.3668
     34  OD1       -1.4910   59.1020  176.4660 O.co2  81  ASP81      -0.2456
     35  OD2        0.1810   60.0020  175.3610 O.co2  81  ASP81      -0.2456
     36  N          1.5940   47.2060  184.3590 N.3   122  PRO122     -0.2116
     37  CA         2.7660   46.5360  183.8150 C.3   122  PRO122      0.1372
     38  C          4.0370   47.2390  184.2970 C.2   122  PRO122      0.2244
     39  O          4.0170   48.2620  184.9780 O.2   122  PRO122     -0.2868
     40  CB         2.5840   46.6770  182.3060 C.3   122  PRO122      0.0268
     41  CG         1.7620   47.9430  182.1490 C.3   122  PRO122      0.0207
     42  CD         0.8340   47.9090  183.3380 C.3   122  PRO122      0.0892
     43  N          7.5910   46.3920  182.3370 N.3   124  HIS124     -0.1226
     44  CA         8.7750   46.1840  181.5090 C.3   124  HIS124      0.1752
     45  C          9.3800   47.4300  180.8330 C.2   124  HIS124      0.2596
     46  O         10.4880   47.3720  180.2940 O.2   124  HIS124     -0.2718
     47  CB         8.5460   45.0740  180.4740 C.3   124  HIS124      0.0759
     48  CG         7.6150   45.4450  179.3760 C.ar  124  HIS124      0.0818
     49  ND1        7.8010   45.0040  178.0860 N.ar  124  HIS124     -0.2268
     50  CD2        6.4570   46.1820  179.3460 C.ar  124  HIS124      0.1154
     51  CE1        6.8180   45.5490  177.3290 C.ar  124  HIS124      0.1986
     52  NE2        5.9960   46.2680  178.0670 N.ar  124  HIS124     -0.2212
     53  N          8.6000   48.5590  180.8130 N.am  125  HIS125     -0.1975
     54  CA         9.1230   49.8130  180.2830 C.3   125  HIS125      0.1656
     55  C          9.7300   50.7300  181.3440 C.2   125  HIS125      0.2291
     56  O         10.4870   51.6490  181.0390 O.2   125  HIS125     -0.2864
     57  CB         8.0660   50.5800  179.5150 C.3   125  HIS125      0.0771
     58  CG         7.5960   49.9080  178.2810 C.ar  125  HIS125      0.0820
     59  ND1        8.3260   49.1400  177.4110 N.ar  125  HIS125     -0.2267
     60  CD2        6.3430   49.9610  177.7370 C.ar  125  HIS125      0.1154
     61  CE1        7.4760   48.7700  176.4060 C.ar  125  HIS125      0.1986
     62  NE2        6.2750   49.2770  176.5700 N.ar  125  HIS125     -0.2212
     63  N          5.4520   54.0930  179.2640 N.3   133  GLY133     -0.1210
     64  CA         4.5540   53.1210  178.6650 C.3   133  GLY133      0.1956
     65  C          3.5670   52.4970  179.6410 C.2   133  GLY133      0.2612
     66  O          3.3140   51.2960  179.6200 O.2   133  GLY133     -0.2717
     67  N          2.9830   53.3940  180.5000 N.am  134  PHE134     -0.1962
     68  CA         2.0510   52.9860  181.5480 C.3   134  PHE134      0.1771
     69  C          2.6560   51.9980  182.5470 C.2   134  PHE134      0.2619
     70  O          1.9560   51.2390  183.2130 O.2   134  PHE134     -0.2715
     71  CB         0.7370   52.4110  180.9880 C.3   134  PHE134      0.0574
     72  CG         0.0650   53.2710  179.9480 C.ar  134  PHE134     -0.0200
     73  CD1        0.0810   54.6630  180.0290 C.ar  134  PHE134     -0.0042
     74  CD2       -0.6520   52.6820  178.9090 C.ar  134  PHE134     -0.0042
     75  CE1       -0.5450   55.4440  179.0600 C.ar  134  PHE134     -0.0003
     76  CE2       -1.2880   53.4580  177.9410 C.ar  134  PHE134     -0.0003
     77  CZ        -1.2290   54.8430  178.0150 C.ar  134  PHE134     -0.0000
     78  N          4.0090   52.0650  182.7050 N.am  135  CYS135     -0.1968
     79  CA         4.7230   51.2650  183.6760 C.3   135  CYS135      0.1712
     80  C          5.3590   52.2260  184.6720 C.2   135  CYS135      0.2296
     81  O          5.6990   53.3720  184.3790 O.2   135  CYS135     -0.2864
     82  CB         5.8080   50.4210  183.0220 C.3   135  CYS135      0.0983
     83  SG         5.1850   49.3060  181.7360 S.3   135  CYS135     -0.0798
     84  N          5.7350   40.5180  174.7860 N.3   162  ASP162     -0.1239
     85  CA         4.9040   41.6860  174.5410 C.3   162  ASP162      0.1674
     86  C          5.4530   42.2710  173.2440 C.2   162  ASP162      0.2266
     87  O          6.6550   42.3270  173.0000 O.2   162  ASP162     -0.2867
     88  CB         5.0590   42.6870  175.6710 C.3   162  ASP162      0.1410
     89  CG         4.1290   43.8530  175.5350 C.2   162  ASP162      0.3668
     90  OD1        4.2050   44.6390  174.5380 O.co2 162  ASP162     -0.2456
     91  OD2        3.3270   44.1060  176.4730 O.co2 162  ASP162     -0.2456
     92  N          5.7910   45.2040  172.3490 N.3   164  HIS164     -0.1241
     93  CA         6.6380   46.3600  172.5710 C.3   164  HIS164      0.1621
     94  C          7.9060   45.9050  173.3020 C.2   164  HIS164      0.2264
     95  O          7.9040   45.0270  174.1590 O.2   164  HIS164     -0.2867
     96  CB         5.9030   47.4080  173.3990 C.3   164  HIS164      0.0745
     97  CG         4.5890   47.7900  172.8030 C.ar  164  HIS164      0.0817
     98  ND1        3.4040   47.2890  173.2990 N.ar  164  HIS164     -0.2268
     99  CD2        4.3230   48.6200  171.7430 C.ar  164  HIS164      0.1154
    100  CE1        2.4510   47.8080  172.5460 C.ar  164  HIS164      0.1986
    101  NE2        2.9650   48.6210  171.5840 N.ar  164  HIS164     -0.2212
    102  N          6.9180   51.9730  169.0510 N.3   193  PHE193     -0.1241
    103  CA         7.0400   52.2970  170.4600 C.3   193  PHE193      0.1605
    104  C          7.7910   51.1740  171.1870 C.2   193  PHE193      0.2264
    105  O          7.4920   49.9880  171.0330 O.2   193  PHE193     -0.2867
    106  CB         5.6550   52.4610  171.0800 C.3   193  PHE193      0.0534
    107  CG         5.7110   52.8880  172.5180 C.ar  193  PHE193     -0.0203
    108  CD1        5.9210   54.2280  172.8450 C.ar  193  PHE193     -0.0042
    109  CD2        5.5700   51.9510  173.5430 C.ar  193  PHE193     -0.0042
    110  CE1        5.9790   54.6280  174.1760 C.ar  193  PHE193     -0.0003
    111  CE2        5.6310   52.3520  174.8740 C.ar  193  PHE193     -0.0003
    112  CZ         5.8350   53.6910  175.1910 C.ar  193  PHE193     -0.0000
    113  N         -0.4910   41.8080  173.6020 N.3   256  ASP256     -0.1239
    114  CA        -0.8810   42.8560  172.6660 C.3   256  ASP256      0.1674
    115  C         -0.4350   42.5580  171.2260 C.2   256  ASP256      0.2266
    116  O         -0.7440   43.2860  170.2850 O.2   256  ASP256     -0.2867
    117  CB        -0.4140   44.2360  173.1160 C.3   256  ASP256      0.1410
    118  CG         1.0380   44.2880  173.5690 C.2   256  ASP256      0.3668
    119  OD1        1.7840   43.3080  173.2930 O.co2 256  ASP256     -0.2456
    120  OD2        1.3910   45.2970  174.2690 O.co2 256  ASP256     -0.2456
    121  N         -0.6630   51.3030  166.9540 N.3   264  PRO264     -0.2102
    122  CA         0.2660   51.7110  167.9990 C.3   264  PRO264      0.1504
    123  C          0.4030   50.6380  169.0950 C.2   264  PRO264      0.2575
    124  O          1.4670   50.4250  169.6760 O.2   264  PRO264     -0.2718
    125  CB        -0.3390   52.9930  168.5690 C.3   264  PRO264      0.0282
    126  CG        -1.5360   53.3320  167.6890 C.3   264  PRO264      0.0208
    127  CD        -1.9120   52.0480  167.0000 C.3   264  PRO264      0.0893
    128  N         -0.7640   49.9940  169.4270 N.am  265  LEU265     -0.1980
    129  CA        -0.8150   49.0110  170.4990 C.3   265  LEU265      0.1596
    130  C         -0.3200   47.6460  170.0190 C.2   265  LEU265      0.2287
    131  O          0.0380   46.7870  170.8200 O.2   265  LEU265     -0.2864
    132  CB        -2.2280   48.8370  171.0670 C.3   265  LEU265      0.0297
    133  CG        -2.8360   50.0910  171.7170 C.3   265  LEU265      0.0022
    134  CD1       -4.2060   49.7530  172.3010 C.3   265  LEU265      0.0001
    135  CD2       -1.9300   50.6640  172.8030 C.3   265  LEU265      0.0001
    136  N          1.7530   41.7440  181.1140 N.3   295  GLU295     -0.1231
    137  CA         2.3710   43.0250  180.7730 C.3   295  GLU295      0.1699
    138  C          1.3490   43.8400  179.9630 C.2   295  GLU295      0.2593
    139  O          0.3980   44.4080  180.5210 O.2   295  GLU295     -0.2718
    140  CB         3.6970   42.8150  180.0470 C.3   295  GLU295      0.0402
    141  CG         4.8180   42.2820  180.9280 C.3   295  GLU295      0.1161
    142  CD         5.5310   43.3250  181.7850 C.2   295  GLU295      0.3649
    143  OE1        5.1020   44.5160  181.7800 O.co2 295  GLU295     -0.2457
    144  OE2        6.5320   42.8980  182.4310 O.co2 295  GLU295     -0.2457
    145  N          1.4920   43.8530  178.5940 N.am  296  GLY296     -0.1942
    146  CA         0.5280   44.5000  177.7350 C.3   296  GLY296      0.2014
    147  C         -0.6150   43.5920  177.3300 C.2   296  GLY296      0.2639
    148  O         -0.7400   42.4290  177.7040 O.2   296  GLY296     -0.2714
    149  N         -1.5440   44.2030  176.5250 N.am  297  GLY297     -0.1939
    150  CA        -2.7900   43.5550  176.1570 C.3   297  GLY297      0.2014
    151  C         -3.9000   44.4920  176.5930 C.2   297  GLY297      0.2638
    152  O         -3.7900   45.2140  177.5870 O.2   297  GLY297     -0.2714
    153  N         -5.0190   44.4730  175.8120 N.am  298  HIS298     -0.1973
    154  CA        -6.0020   45.5430  175.9200 C.3   298  HIS298      0.1656
    155  C         -7.3850   45.0680  175.5340 C.2   298  HIS298      0.2291
    156  O         -8.3630   45.3370  176.2240 O.2   298  HIS298     -0.2864
    157  CB        -5.5370   46.6970  175.0350 C.3   298  HIS298      0.0771
    158  CG        -6.5090   47.7990  174.8660 C.ar  298  HIS298      0.0820
    159  ND1       -7.1940   48.4760  175.8450 N.ar  298  HIS298     -0.2267
    160  CD2       -6.9230   48.3560  173.6800 C.ar  298  HIS298      0.1154
    161  CE1       -7.9830   49.3960  175.2040 C.ar  298  HIS298      0.1986
    162  NE2       -7.8120   49.3530  173.9030 N.ar  298  HIS298     -0.2212
@<TRIPOS>BOND
     1   121   127    1
     2   121   122    1
     3   127   126    1
     4   126   125    1
     5   122   125    1
     6   122   123    1
     7   102   103    1
     8   123   128   am
     9   123   124    2
    10   128   129    1
    11   130   129    1
    12   130   131    2
    13   116   115    2
    14   103   106    1
    15   103   104    1
    16   129   132    1
    17   105   104    2
    18   132   133    1
    19   106   107    1
    20   115   114    1
    21   101    99   ar
    22   101   100   ar
    23   133   134    1
    24   133   135    1
    25    99    97   ar
    26    92    93    1
    27   107   108   ar
    28   107   109   ar
    29   100    98   ar
    30    93    94    1
    31    93    96    1
    32   114   117    1
    33   114   113    1
    34    97    98   ar
    35    97    96    1
    36   108   110   ar
    37    87    86    2
    38   117   118    1
    39    86    85    1
    40   119   118   ar
    41    94    95    2
    42   109   111   ar
    43   118   120   ar
    44   160   162   ar
    45   160   158   ar
    46   162   161   ar
    47   110   112   ar
    48    90    89   ar
    49    85    84    1
    50    85    88    1
    51   158   157    1
    52   158   159   ar
    53   111   112   ar
    54   157   154    1
    55   161   159   ar
    56    35    33   ar
    57   155   154    1
    58   155   156    2
    59    89    88    1
    60    89    91   ar
    61   153   154    1
    62   153   151   am
    63     6     5    1
    64     6     7    1
    65   150   149    1
    66   150   151    1
    67    61    62   ar
    68    61    59   ar
    69    33    34   ar
    70    33    32    1
    71     5     2    1
    72   149   147   am
    73    62    60   ar
    74   151   152    2
    75     7     1    1
    76    51    52   ar
    77    51    49   ar
    78   147   148    2
    79   147   146    1
    80    59    58   ar
    81     2     1    1
    82     2     3    1
    83   146   145    1
    84    60    58   ar
    85    32    29    1
    86    76    77   ar
    87    76    74   ar
    88    77    75   ar
    89    52    50   ar
    90    49    48   ar
    91    58    57    1
    92   145   138   am
    93    64    63    1
    94    64    65    1
    95     3     4    2
    96     3     8   am
    97    29    28    1
    98    29    30    1
    99    74    72   ar
   100    75    73   ar
   101    50    48   ar
   102    48    47    1
   103    57    54    1
   104     8     9    1
   105    31    30    2
   106    66    65    2
   107    65    67   am
   108    72    73   ar
   109    72    71    1
   110   138   139    2
   111   138   137    1
   112    24    23    1
   113    24    25    2
   114   140   137    1
   115   140   141    1
   116    27    25    1
   117    54    53    1
   118    54    55    1
   119    46    45    2
   120    23    22    1
   121    47    44    1
   122    67    68    1
   123    22    21    1
   124     9    12    1
   125     9    10    1
   126    25    26    1
   127   137   136    1
   128    53    45   am
   129    45    44    1
   130   141   142    1
   131    71    68    1
   132    12    13    1
   133    56    55    2
   134    44    43    1
   135    68    69    1
   136    21    18    1
   137    83    82    1
   138    13    14    1
   139   143   142   ar
   140   142   144   ar
   141    10    11    2
   142    18    17    1
   143    18    19    1
   144    41    40    1
   145    41    42    1
   146    40    37    1
   147    20    19    2
   148    69    78   am
   149    69    70    2
   150    78    79    1
   151    82    79    1
   152    14    16   ar
   153    14    15   ar
   154    42    36    1
   155    79    80    1
   156    37    38    1
   157    37    36    1
   158    38    39    2
   159    81    80    2
