@<TRIPOS>MOLECULE
tmp/4cbxA00.pdb
 167 154 0 0 0
SMALL
GASTEIGER

@<TRIPOS>ATOM
      1  N          7.3950    3.4120   17.2580 N.3     7  ASP7       -0.1239
      2  CA         8.0290    4.1380   16.1660 C.3     7  ASP7        0.1674
      3  C          6.9860    4.9500   15.4030 C.2     7  ASP7        0.2266
      4  O          6.2380    4.4070   14.5910 O.2     7  ASP7       -0.2867
      5  CB         8.7470    3.1680   15.2240 C.3     7  ASP7        0.1410
      6  CG         9.4330    3.8740   14.0720 C.2     7  ASP7        0.3668
      7  OD1        9.7570    5.0710   14.2160 O.co2   7  ASP7       -0.2456
      8  OD2        9.6550    3.2300   13.0240 O.co2   7  ASP7       -0.2456
      9  N          5.6870    7.4270   12.6640 N.3     9  GLY9       -0.1210
     10  CA         6.0340    7.9100   11.3410 C.3     9  GLY9        0.1956
     11  C          5.0040    8.8720   10.7820 C.2     9  GLY9        0.2613
     12  O          3.9570    9.0960   11.3890 O.2     9  GLY9       -0.2717
     13  N          5.3060    9.4410    9.6180 N.am   10  SER10      -0.1938
     14  CA         4.4200   10.4060    8.9770 C.3    10  SER10       0.2055
     15  C          3.1250    9.7500    8.5150 C.2    10  SER10       0.2644
     16  O          2.0680   10.3810    8.5050 O.2    10  SER10      -0.2714
     17  CB         5.1170   11.0620    7.7830 C.3    10  SER10       0.2130
     18  OG         6.3060   11.7200    8.1830 O.3    10  SER10      -0.2179
     19  N          3.2120    8.4810    8.1330 N.am   11  GLY11      -0.1939
     20  CA         2.0600    7.7710    7.6100 C.3    11  GLY11       0.2014
     21  C          1.6570    6.5450    8.4070 C.2    11  GLY11       0.2638
     22  O          0.4760    6.2060    8.4670 O.2    11  GLY11      -0.2714
     23  N          2.6340    5.8800    9.0170 N.am   12  MET12      -0.1976
     24  CA         2.3790    4.6340    9.7400 C.3    12  MET12       0.1605
     25  C          2.9380    4.6360   11.1630 C.2    12  MET12       0.2287
     26  O          3.9850    5.2260   11.4330 O.2    12  MET12      -0.2864
     27  CB         2.9510    3.4430    8.9640 C.3    12  MET12       0.0413
     28  CG         2.3490    3.2540    7.5820 C.3    12  MET12       0.0598
     29  SD         0.5800    2.9150    7.6370 S.3    12  MET12      -0.1393
     30  CE         0.5600    1.3350    8.4780 C.3    12  MET12       0.0692
     31  N          4.4010    2.1980   14.0730 N.3    14  LYS14      -0.1245
     32  CA         4.9420    0.8820   14.3850 C.3    14  LYS14       0.1561
     33  C          5.0700    0.7200   15.8950 C.2    14  LYS14       0.2260
     34  O          5.8610    1.4120   16.5370 O.2    14  LYS14      -0.2867
     35  CB         6.3010    0.6740   13.7100 C.3    14  LYS14       0.0271
     36  CG         6.2260    0.2580   12.2440 C.3    14  LYS14       0.0035
     37  CD         5.8240    1.4070   11.3290 C.3    14  LYS14       0.0206
     38  CE         6.8870    2.4970   11.2880 C.3    14  LYS14       0.1093
     39  NZ         6.5100    3.6080   10.3620 N.3    14  LYS14      -0.1314
     40  N          8.0320   13.7430    8.9600 N.3    59  GLY59      -0.1225
     41  CA         8.7630   13.1740   10.0770 C.3    59  GLY59       0.1811
     42  C          8.7080   14.0170   11.3360 C.2    59  GLY59       0.2280
     43  O          9.2590   13.6380   12.3690 O.2    59  GLY59      -0.2866
     44  N         15.7680    7.6320   14.7160 N.3   122  GLN122     -0.1245
     45  CA        15.3200    6.5110   13.8910 C.3   122  GLN122      0.1566
     46  C         16.4400    5.8450   13.0960 C.2   122  GLN122      0.2260
     47  O         16.5720    4.6200   13.1120 O.2   122  GLN122     -0.2867
     48  CB        14.1950    6.9590   12.9540 C.3   122  GLN122      0.0367
     49  CG        12.8690    7.1610   13.6630 C.3   122  GLN122      0.0905
     50  CD        12.0660    8.3250   13.1140 C.2   122  GLN122      0.2608
     51  OE1       12.3450    8.8360   12.0280 O.2   122  GLN122     -0.2717
     52  NE2       11.0610    8.7540   13.8710 N.am  122  GLN122     -0.0878
     53  N         17.1430    6.5340    5.0850 N.3   139  ASP139     -0.1239
     54  CA        15.8000    6.2850    5.5940 C.3   139  ASP139      0.1674
     55  C         14.7830    6.9660    4.6920 C.2   139  ASP139      0.2266
     56  O         14.7930    8.1850    4.5320 O.2   139  ASP139     -0.2867
     57  CB        15.6630    6.7880    7.0350 C.3   139  ASP139      0.1410
     58  CG        14.4390    6.2250    7.7440 C.2   139  ASP139      0.3668
     59  OD1       13.4260    5.9350    7.0720 O.co2 139  ASP139     -0.2456
     60  OD2       14.4910    6.0710    8.9830 O.co2 139  ASP139     -0.2456
     61  N         10.6790    6.9890    3.9290 N.3   141  GLY141     -0.1210
     62  CA         9.3590    6.5600    4.3530 C.3   141  GLY141      0.1956
     63  C          8.2050    7.0840    3.5200 C.2   141  GLY141      0.2612
     64  O          8.2430    7.0410    2.2900 O.2   141  GLY141     -0.2717
     65  N          7.1700    7.5730    4.1980 N.am  142  ASP142     -0.1959
     66  CA         5.9680    8.0610    3.5290 C.3   142  ASP142      0.1840
     67  C          6.0220    9.5650    3.2880 C.2   142  ASP142      0.2623
     68  O          5.5760   10.0500    2.2490 O.2   142  ASP142     -0.2715
     69  CB         4.7200    7.7190    4.3480 C.3   142  ASP142      0.1450
     70  CG         3.4290    8.0750    3.6270 C.2   142  ASP142      0.3671
     71  OD1        3.2650    7.6710    2.4560 O.co2 142  ASP142     -0.2456
     72  OD2        2.5770    8.7630    4.2290 O.co2 142  ASP142     -0.2456
     73  N          6.5740   10.3000    4.2480 N.am  143  GLY143     -0.1940
     74  CA         6.5830   11.7500    4.1770 C.3   143  GLY143      0.2014
     75  C          7.9450   12.4010    4.0220 C.2   143  GLY143      0.2638
     76  O          8.0300   13.5710    3.6530 O.2   143  GLY143     -0.2714
     77  N          9.0140   11.6590    4.2970 N.am  144  VAL144     -0.1977
     78  CA        10.3540   12.2410    4.2510 C.3   144  VAL144      0.1596
     79  C         11.4440   11.1950    3.9970 C.2   144  VAL144      0.2287
     80  O         11.3380   10.0470    4.4330 O.2   144  VAL144     -0.2864
     81  CB        10.6670   13.0330    5.5530 C.3   144  VAL144      0.0276
     82  CG1       10.7640   12.0920    6.7520 C.3   144  VAL144      0.0022
     83  CG2       11.9400   13.8650    5.4030 C.3   144  VAL144      0.0022
     84  N          7.2830    8.3120   -0.1180 N.3   167  GLY167     -0.1225
     85  CA         6.2700    7.3830   -0.5870 C.3   167  GLY167      0.1811
     86  C          4.9800    8.0440   -1.0340 C.2   167  GLY167      0.2280
     87  O          4.4230    7.6930   -2.0750 O.2   167  GLY167     -0.2866
     88  N          3.0790    7.9930   -4.6510 N.3   171  THR171     -0.1218
     89  CA         1.6980    7.5510   -4.8070 C.3   171  THR171      0.1862
     90  C          0.9200    8.5280   -5.6850 C.2   171  THR171      0.2287
     91  O          0.1690    8.1160   -6.5700 O.2   171  THR171     -0.2866
     92  CB         0.9890    7.4060   -3.4440 C.3   171  THR171      0.1770
     93  OG1        1.6950    6.4590   -2.6320 O.3   171  THR171     -0.2211
     94  CG2       -0.4430    6.9300   -3.6310 C.3   171  THR171      0.0375
     95  N         -2.0660    3.3630   -4.0100 N.3   195  ARG195     -0.1245
     96  CA        -0.9710    3.1070   -3.0830 C.3   195  ARG195      0.1563
     97  C         -0.6500    1.6150   -3.0440 C.2   195  ARG195      0.2260
     98  O          0.5140    1.2200   -2.9670 O.2   195  ARG195     -0.2867
     99  CB        -1.3430    3.6120   -1.6880 C.3   195  ARG195      0.0307
    100  CG        -0.1650    4.0470   -0.8290 C.3   195  ARG195      0.0489
    101  CD         0.5060    2.8670   -0.1490 C.3   195  ARG195      0.2205
    102  NE        -0.4490    2.0540    0.5990 N.pl3 195  ARG195     -0.0865
    103  CZ        -0.8410    2.3150    1.8420 C.cat 195  ARG195      0.5346
    104  NH1       -0.3640    3.3740    2.4820 N.pl3 195  ARG195      0.1354
    105  NH2       -1.7140    1.5190    2.4440 N.pl3 195  ARG195      0.1354
    106  N          0.9940    0.6210   -6.3210 N.3   198  LYS198     -0.1231
    107  CA         2.4010    1.0020   -6.2950 C.3   198  LYS198      0.1693
    108  C          3.2530   -0.0300   -5.5570 C.2   198  LYS198      0.2591
    109  O          4.3020   -0.4430   -6.0440 O.2   198  LYS198     -0.2718
    110  CB         2.5610    2.3770   -5.6430 C.3   198  LYS198      0.0285
    111  CG         3.9950    2.8650   -5.5520 C.3   198  LYS198      0.0035
    112  CD         4.1200    4.0140   -4.5670 C.3   198  LYS198      0.0206
    113  CE         3.7560    3.5650   -3.1600 C.3   198  LYS198      0.1093
    114  NZ         4.0410    4.6210   -2.1530 N.3   198  LYS198     -0.1314
    115  N          2.7940   -0.4500   -4.3830 N.am  199  GLU199     -0.1979
    116  CA         3.5510   -1.3840   -3.5580 C.3   199  GLU199      0.1602
    117  C          3.6650   -2.7730   -4.1850 C.2   199  GLU199      0.2287
    118  O          4.7070   -3.4210   -4.0940 O.2   199  GLU199     -0.2864
    119  CB         2.9220   -1.4990   -2.1680 C.3   199  GLU199      0.0415
    120  CG         2.9660   -0.2210   -1.3450 C.3   199  GLU199      0.1163
    121  CD         2.3710   -0.4100    0.0360 C.2   199  GLU199      0.3649
    122  OE1        1.8360   -1.5060    0.3050 O.co2 199  GLU199     -0.2457
    123  OE2        2.4380    0.5330    0.8520 O.co2 199  GLU199     -0.2457
    124  N         13.1780    1.9820    5.6880 N.3   287  GLY287     -0.1210
    125  CA        11.9310    2.6320    5.3340 C.3   287  GLY287      0.1956
    126  C         11.1870    1.9000    4.2340 C.2   287  GLY287      0.2612
    127  O         11.7810    1.1390    3.4700 O.2   287  GLY287     -0.2717
    128  N          9.8830    2.1360    4.1500 N.am  288  GLY288     -0.1942
    129  CA         9.0410    1.4390    3.1950 C.3   288  GLY288      0.2014
    130  C          9.3370    1.7610    1.7430 C.2   288  GLY288      0.2639
    131  O          9.1530    0.9190    0.8660 O.2   288  GLY288     -0.2714
    132  N          9.8000    2.9790    1.4830 N.am  289  THR289     -0.1950
    133  CA        10.0480    3.4240    0.1130 C.3   289  THR289      0.1897
    134  C         11.3510    2.8360   -0.4560 C.2   289  THR289      0.2313
    135  O         11.6540    2.9860   -1.6400 O.2   289  THR289     -0.2863
    136  CB        10.0290    4.9730    0.0220 C.3   289  THR289      0.1794
    137  OG1        8.8600    5.4700    0.6860 O.3   289  THR289     -0.2208
    138  CG2       10.0070    5.4480   -1.4240 C.3   289  THR289      0.0378
    139  N         11.7660   -0.3790   -0.5070 N.3   291  MET291     -0.1230
    140  CA        11.3780   -1.7780   -0.6690 C.3   291  MET291      0.1702
    141  C         11.2980   -2.2230   -2.1260 C.2   291  MET291      0.2592
    142  O         11.2130   -3.4200   -2.4040 O.2   291  MET291     -0.2718
    143  CB        10.0450   -2.0520    0.0330 C.3   291  MET291      0.0401
    144  CG        10.1500   -2.1400    1.5470 C.3   291  MET291      0.0596
    145  SD        11.1840   -3.5240    2.0630 S.3   291  MET291     -0.1393
    146  CE        10.2270   -4.9040    1.4430 C.3   291  MET291      0.0692
    147  N         11.3200   -1.2630   -3.0470 N.am  292  TYR292     -0.1976
    148  CA        11.2120   -1.5620   -4.4730 C.3   292  TYR292      0.1639
    149  C         12.2690   -2.5670   -4.9070 C.2   292  TYR292      0.2290
    150  O         13.4340   -2.4420   -4.5370 O.2   292  TYR292     -0.2864
    151  CB        11.3550   -0.2880   -5.3060 C.3   292  TYR292      0.0560
    152  CG        10.2630    0.7280   -5.0780 C.ar  292  TYR292     -0.0198
    153  CD1        9.0310    0.6050   -5.7080 C.ar  292  TYR292     -0.0009
    154  CD2       10.4650    1.8150   -4.2390 C.ar  292  TYR292     -0.0009
    155  CE1        8.0300    1.5320   -5.5030 C.ar  292  TYR292      0.0417
    156  CE2        9.4690    2.7480   -4.0300 C.ar  292  TYR292      0.0417
    157  CZ         8.2540    2.6000   -4.6640 C.ar  292  TYR292      0.1957
    158  OH         7.2580    3.5250   -4.4590 O.3   292  TYR292     -0.2866
    159  N         11.1200   -2.3960    6.3840 N.3   322  LYS322     -0.1245
    160  CA         9.9940   -1.5840    6.8370 C.3   322  LYS322      0.1561
    161  C          9.9450   -1.4270    8.3580 C.2   322  LYS322      0.2260
    162  O          9.3200   -0.4980    8.8710 O.2   322  LYS322     -0.2867
    163  CB         8.6770   -2.1810    6.3360 C.3   322  LYS322      0.0271
    164  CG         8.5540   -2.2220    4.8240 C.3   322  LYS322      0.0035
    165  CD         7.3330   -3.0150    4.3830 C.3   322  LYS322      0.0206
    166  CE         6.0440   -2.3810    4.8770 C.3   322  LYS322      0.1093
    167  NZ         4.8510   -3.1360    4.4070 N.3   322  LYS322     -0.1314
@<TRIPOS>BOND
     1    91    90    2
     2   106   107    1
     3   107   110    1
     4   107   108    1
     5   109   108    2
     6   153   155   ar
     7   153   152   ar
     8    90    89    1
     9   110   111    1
    10   108   115   am
    11   111   112    1
    12   155   157   ar
    13   151   152    1
    14   151   148    1
    15   152   154   ar
    16   149   150    2
    17   149   148    1
    18    89    88    1
    19    89    92    1
    20   157   158    1
    21   157   156   ar
    22   112   113    1
    23   148   147    1
    24   115   116    1
    25   154   156   ar
    26   117   118    2
    27   117   116    1
    28    95    96    1
    29    94    92    1
    30   116   119    1
    31    92    93    1
    32   113   114    1
    33    96    97    1
    34    96    99    1
    35   147   141   am
    36    97    98    2
    37   142   141    2
    38   119   120    1
    39   141   140    1
    40    87    86    2
    41    99   100    1
    42   135   134    2
    43   138   136    1
    44   120   121    1
    45    86    85    1
    46   100   101    1
    47   140   139    1
    48   140   143    1
    49    85    84    1
    50   134   133    1
    51   101   102    1
    52   136   133    1
    53   136   137    1
    54   143   144    1
    55   121   122   ar
    56   121   123   ar
    57   133   132    1
    58   102   103    2
    59   131   130    2
    60   146   145    1
    61   132   130   am
    62   144   145    1
    63   130   129    1
    64   103   105    1
    65   103   104    1
    66    68    67    2
    67    64    63    2
    68    71    70   ar
    69   129   128    1
    70    67    66    1
    71    67    73   am
    72   127   126    2
    73    63    65   am
    74    63    62    1
    75    66    65    1
    76    66    69    1
    77    70    72   ar
    78    70    69    1
    79    76    75    2
    80    61    62    1
    81    79    78    1
    82    79    80    2
    83    75    74    1
    84    75    77   am
    85   128   126   am
    86    74    73    1
    87   126   125    1
    88    78    77    1
    89    78    81    1
    90   165   164    1
    91   165   166    1
    92   167   166    1
    93    56    55    2
    94    55    54    1
    95   164   163    1
    96    53    54    1
    97   125   124    1
    98    83    81    1
    99    81    82    1
   100    54    57    1
   101   163   160    1
   102   159   160    1
   103   160   161    1
   104    57    58    1
   105    59    58   ar
   106    28    29    1
   107    28    27    1
   108    20    19    1
   109    20    21    1
   110    29    30    1
   111    58    60   ar
   112    17    18    1
   113    17    14    1
   114    19    15   am
   115   161   162    2
   116    21    22    2
   117    21    23   am
   118    16    15    2
   119    15    14    1
   120    40    41    1
   121    27    24    1
   122    14    13    1
   123    23    24    1
   124    13    11   am
   125    24    25    1
   126    41    42    1
   127    39    38    1
   128    11    10    1
   129    11    12    2
   130    25    26    2
   131    38    37    1
   132    37    36    1
   133    42    43    2
   134    10     9    1
   135    51    50    2
   136    36    35    1
   137    48    49    1
   138    48    45    1
   139     8     6   ar
   140    46    47    2
   141    46    45    1
   142    50    49    1
   143    50    52   am
   144    35    32    1
   145    45    44    1
   146     6     7   ar
   147     6     5    1
   148    31    32    1
   149    32    33    1
   150     4     3    2
   151     5     2    1
   152     3     2    1
   153    33    34    2
   154     2     1    1
