@<TRIPOS>MOLECULE
tmp/4cbyA00.pdb
 162 159 0 0 0
SMALL
GASTEIGER

@<TRIPOS>ATOM
      1  N         33.2090    0.9370   38.3660 N.3    24  PRO24      -0.2102
      2  CA        32.2910    2.0010   38.7470 C.3    24  PRO24       0.1504
      3  C         31.2310    1.5820   39.7400 C.2    24  PRO24       0.2575
      4  O         30.8330    2.3920   40.5750 O.2    24  PRO24      -0.2718
      5  CB        31.6180    2.3830   37.4290 C.3    24  PRO24       0.0282
      6  CG        32.5260    1.9050   36.3510 C.3    24  PRO24       0.0208
      7  CD        33.1860    0.6830   36.9100 C.3    24  PRO24       0.0893
      8  N         30.7800    0.3350   39.6570 N.am   25  GLU25      -0.1980
      9  CA        29.7770   -0.1730   40.5770 C.3    25  GLU25       0.1602
     10  C         30.5010   -0.6980   41.8290 C.2    25  GLU25       0.2287
     11  O         30.7160   -1.8990   42.0060 O.2    25  GLU25      -0.2864
     12  CB        28.8520   -1.1770   39.8460 C.3    25  GLU25       0.0415
     13  CG        28.3250   -2.4190   40.5670 C.3    25  GLU25       0.1163
     14  CD        27.7890   -2.2130   41.9760 C.2    25  GLU25       0.3649
     15  OE1       27.4480   -1.0760   42.3780 O.co2  25  GLU25      -0.2457
     16  OE2       27.7030   -3.2390   42.6880 O.co2  25  GLU25      -0.2457
     17  N         29.3660    3.1310   47.0890 N.3    29  ARG29      -0.1245
     18  CA        28.0690    3.6540   46.6510 C.3    29  ARG29       0.1563
     19  C         27.0160    3.5470   47.7500 C.2    29  ARG29       0.2260
     20  O         26.3720    4.5380   48.0840 O.2    29  ARG29      -0.2867
     21  CB        27.6060    2.9310   45.3880 C.3    29  ARG29       0.0307
     22  CG        28.4720    3.2350   44.1670 C.3    29  ARG29       0.0489
     23  CD        27.8300    2.8740   42.8150 C.3    29  ARG29       0.2205
     24  NE        26.9010    1.7530   42.9170 N.pl3  29  ARG29      -0.0865
     25  CZ        25.6240    1.7800   42.5490 C.cat  29  ARG29       0.5346
     26  NH1       25.0870    2.8570   41.9970 N.pl3  29  ARG29       0.1354
     27  NH2       24.8730    0.7030   42.7160 N.pl3  29  ARG29       0.1354
     28  N         33.1480   -6.8040   30.5550 N.3   107  ASP107     -0.1239
     29  CA        32.9110   -5.7180   31.5080 C.3   107  ASP107      0.1674
     30  C         32.6990   -6.2130   32.9430 C.2   107  ASP107      0.2266
     31  O         33.1930   -5.5980   33.8890 O.2   107  ASP107     -0.2867
     32  CB        31.7030   -4.8780   31.0670 C.3   107  ASP107      0.1410
     33  CG        31.9150   -4.0910   29.8300 C.2   107  ASP107      0.3668
     34  OD1       33.0940   -3.8300   29.4400 O.co2 107  ASP107     -0.2456
     35  OD2       30.8880   -3.6280   29.2300 O.co2 107  ASP107     -0.2456
     36  N         23.2750   -4.0340   41.3690 N.3   148  PRO148     -0.2116
     37  CA        22.0150   -3.7160   40.7120 C.3   148  PRO148      0.1372
     38  C         21.4220   -4.9020   39.9420 C.2   148  PRO148      0.2244
     39  O         22.0780   -5.9360   39.7770 O.2   148  PRO148     -0.2868
     40  CB        22.4040   -2.5850   39.7650 C.3   148  PRO148      0.0268
     41  CG        23.8190   -2.9030   39.3940 C.3   148  PRO148      0.0207
     42  CD        24.4300   -3.4690   40.6390 C.3   148  PRO148      0.0892
     43  N         18.4600   -4.5470   37.0940 N.3   150  HIS150     -0.1226
     44  CA        17.5330   -4.4480   35.9630 C.3   150  HIS150      0.1752
     45  C         18.0410   -4.8530   34.5810 C.2   150  HIS150      0.2596
     46  O         17.2720   -4.8690   33.6120 O.2   150  HIS150     -0.2718
     47  CB        16.8490   -3.0780   35.9660 C.3   150  HIS150      0.0759
     48  CG        17.7280   -1.9270   35.5330 C.ar  150  HIS150      0.0818
     49  ND1       17.2390   -0.8720   34.8530 N.ar  150  HIS150     -0.2268
     50  CD2       19.0920   -1.6980   35.6850 C.ar  150  HIS150      0.1154
     51  CE1       18.2400   -0.0090   34.5850 C.ar  150  HIS150      0.1986
     52  NE2       19.3720   -0.5160   35.0910 N.ar  150  HIS150     -0.2212
     53  N         19.3230   -5.1780   34.4560 N.am  151  HIS151     -0.1975
     54  CA        19.8790   -5.6400   33.1830 C.3   151  HIS151      0.1656
     55  C         20.0240   -7.1310   33.1220 C.2   151  HIS151      0.2291
     56  O         20.2970   -7.6820   32.0460 O.2   151  HIS151     -0.2864
     57  CB        21.2560   -5.0450   32.9760 C.3   151  HIS151      0.0771
     58  CG        21.2480   -3.5610   32.7700 C.ar  151  HIS151      0.0820
     59  ND1       20.6400   -2.9860   31.7260 N.ar  151  HIS151     -0.2267
     60  CD2       21.8450   -2.5400   33.4900 C.ar  151  HIS151      0.1154
     61  CE1       20.8240   -1.6510   31.7830 C.ar  151  HIS151      0.1986
     62  NE2       21.5590   -1.3800   32.8670 N.ar  151  HIS151     -0.2212
     63  N         25.8080   -5.5030   32.4430 N.3   159  GLY159     -0.1210
     64  CA        25.7040   -4.1820   33.0660 C.3   159  GLY159      0.1956
     65  C         25.8970   -4.2340   34.5750 C.2   159  GLY159      0.2612
     66  O         25.2230   -3.5350   35.3160 O.2   159  GLY159     -0.2717
     67  N         26.8110   -5.0940   35.0120 N.am  160  PHE160     -0.1962
     68  CA        27.1370   -5.2710   36.4250 C.3   160  PHE160      0.1771
     69  C         25.9860   -5.8410   37.2460 C.2   160  PHE160      0.2619
     70  O         26.0100   -5.7810   38.4750 O.2   160  PHE160     -0.2715
     71  CB        27.6640   -3.9640   37.0480 C.3   160  PHE160      0.0574
     72  CG        28.7100   -3.2510   36.2140 C.ar  160  PHE160     -0.0200
     73  CD1       29.6430   -3.9590   35.4710 C.ar  160  PHE160     -0.0042
     74  CD2       28.7750   -1.8700   36.1980 C.ar  160  PHE160     -0.0042
     75  CE1       30.5960   -3.2980   34.7090 C.ar  160  PHE160     -0.0003
     76  CE2       29.7330   -1.2060   35.4500 C.ar  160  PHE160     -0.0003
     77  CZ        30.6390   -1.9210   34.6980 C.ar  160  PHE160     -0.0000
     78  N         25.0090   -6.4280   36.5580 N.am  161  CYS161     -0.1968
     79  CA        23.8690   -7.0670   37.2030 C.3   161  CYS161      0.1712
     80  C         23.9470   -8.5760   37.0460 C.2   161  CYS161      0.2296
     81  O         24.3770   -9.0770   36.0030 O.2   161  CYS161     -0.2864
     82  CB        22.5840   -6.5840   36.5750 C.3   161  CYS161      0.0983
     83  SG        22.3260   -4.8080   36.6890 S.3   161  CYS161     -0.0798
     84  N         15.9380    4.8870   36.2520 N.3   188  ASP188     -0.1239
     85  CA        17.3720    4.8340   35.9410 C.3   188  ASP188      0.1674
     86  C         17.5360    5.2860   34.5000 C.2   188  ASP188      0.2266
     87  O         16.6940    4.9750   33.6460 O.2   188  ASP188     -0.2867
     88  CB        17.9230    3.4110   36.1060 C.3   188  ASP188      0.1410
     89  CG        19.4350    3.3030   35.8180 C.2   188  ASP188      0.3668
     90  OD1       19.8450    3.3230   34.6360 O.co2 188  ASP188     -0.2456
     91  OD2       20.2130    3.1500   36.7790 O.co2 188  ASP188     -0.2456
     92  N         19.3600    4.2610   32.2110 N.3   190  HIS190     -0.1241
     93  CA        19.4810    3.1350   31.2630 C.3   190  HIS190      0.1621
     94  C         18.2350    2.2830   31.2310 C.2   190  HIS190      0.2264
     95  O         17.5430    2.1350   32.2520 O.2   190  HIS190     -0.2867
     96  CB        20.6880    2.2530   31.5980 C.3   190  HIS190      0.0745
     97  CG        21.9920    3.0000   31.6640 C.ar  190  HIS190      0.0817
     98  ND1       22.4680    3.5010   32.8090 N.ar  190  HIS190     -0.2268
     99  CD2       22.9150    3.3330   30.6760 C.ar  190  HIS190      0.1154
    100  CE1       23.6270    4.1220   32.5910 C.ar  190  HIS190      0.1986
    101  NE2       23.9090    4.0260   31.2820 N.ar  190  HIS190     -0.2212
    102  N         23.7100    2.5150   25.8320 N.3   219  PHE219     -0.1241
    103  CA        23.6390    1.2420   26.5260 C.3   219  PHE219      0.1605
    104  C         22.2730    1.1070   27.1970 C.2   219  PHE219      0.2264
    105  O         21.7590    2.0770   27.7580 O.2   219  PHE219     -0.2867
    106  CB        24.7650    1.1300   27.5560 C.3   219  PHE219      0.0534
    107  CG        24.7800   -0.1640   28.2920 C.ar  219  PHE219     -0.0203
    108  CD1       25.3700   -1.2820   27.7360 C.ar  219  PHE219     -0.0042
    109  CD2       24.1790   -0.2710   29.5420 C.ar  219  PHE219     -0.0042
    110  CE1       25.3650   -2.4930   28.4140 C.ar  219  PHE219     -0.0003
    111  CE2       24.1710   -1.4740   30.2280 C.ar  219  PHE219     -0.0003
    112  CZ        24.7760   -2.5830   29.6730 C.ar  219  PHE219     -0.0000
    113  N         21.4430    7.7430   37.9110 N.3   282  ASP282     -0.1239
    114  CA        22.4350    8.1770   36.9200 C.3   282  ASP282      0.1674
    115  C         21.9550    9.2640   35.9670 C.2   282  ASP282      0.2266
    116  O         22.7560    9.7750   35.1920 O.2   282  ASP282     -0.2867
    117  CB        23.0410    7.0120   36.1270 C.3   282  ASP282      0.1410
    118  CG        22.0700    5.8970   35.8570 C.2   282  ASP282      0.3668
    119  OD1       20.8300    6.0750   35.9850 O.co2 282  ASP282     -0.2456
    120  OD2       22.5910    4.8130   35.5360 O.co2 282  ASP282     -0.2456
    121  N         29.2750    8.7940   28.5480 N.3   290  PRO290     -0.2102
    122  CA        29.1480    7.3280   28.4840 C.3   290  PRO290      0.1504
    123  C         28.1430    6.7660   29.4920 C.2   290  PRO290      0.2575
    124  O         27.3100    5.9280   29.1450 O.2   290  PRO290     -0.2718
    125  CB        30.5570    6.8390   28.8110 C.3   290  PRO290      0.0282
    126  CG        31.4510    8.0190   28.5590 C.3   290  PRO290      0.0208
    127  CD        30.6330    9.2120   28.9270 C.3   290  PRO290      0.0893
    128  N         28.2070    7.2580   30.7250 N.am  291  LEU291     -0.1980
    129  CA        27.4220    6.7150   31.8260 C.3   291  LEU291      0.1596
    130  C         26.0300    7.3540   31.8990 C.2   291  LEU291      0.2287
    131  O         25.0740    6.7080   32.3140 O.2   291  LEU291     -0.2864
    132  CB        28.1880    6.9400   33.1420 C.3   291  LEU291      0.0297
    133  CG        28.1240    6.0070   34.3660 C.3   291  LEU291      0.0022
    134  CD1       28.8520    4.6830   34.1300 C.3   291  LEU291      0.0001
    135  CD2       28.7320    6.7260   35.5690 C.3   291  LEU291      0.0001
    136  N         19.2760    1.0040   41.7320 N.3   321  GLU321     -0.1231
    137  CA        19.8630    0.3900   40.5500 C.3   321  GLU321      0.1699
    138  C         21.1840    1.1340   40.2850 C.2   321  GLU321      0.2593
    139  O         22.1150    0.9880   41.0790 O.2   321  GLU321     -0.2718
    140  CB        18.9050    0.4390   39.3610 C.3   321  GLU321      0.0402
    141  CG        17.6030   -0.3470   39.5420 C.3   321  GLU321      0.1161
    142  CD        17.7390   -1.8610   39.3850 C.2   321  GLU321      0.3649
    143  OE1       18.8480   -2.3520   39.1050 O.co2 321  GLU321     -0.2457
    144  OE2       16.7340   -2.5720   39.5610 O.co2 321  GLU321     -0.2457
    145  N         21.2620    1.9430   39.2230 N.am  322  GLY322     -0.1942
    146  CA        22.4750    2.6940   38.8880 C.3   322  GLY322      0.2014
    147  C         22.6440    4.0080   39.6470 C.2   322  GLY322      0.2639
    148  O         21.8920    4.3020   40.5900 O.2   322  GLY322     -0.2714
    149  N         23.6470    4.7880   39.2280 N.am  323  GLY323     -0.1939
    150  CA        24.0080    6.0450   39.8880 C.3   323  GLY323      0.2014
    151  C         25.3700    5.9680   40.5510 C.2   323  GLY323      0.2638
    152  O         25.5530    5.1970   41.4880 O.2   323  GLY323     -0.2714
    153  N         26.3300    6.7600   40.0570 N.am  324  HIS324     -0.1973
    154  CA        27.7630    6.6060   40.3920 C.3   324  HIS324      0.1656
    155  C         28.2770    7.7040   41.2620 C.2   324  HIS324      0.2291
    156  O         28.9100    7.4550   42.2910 O.2   324  HIS324     -0.2864
    157  CB        28.5730    6.5520   39.0940 C.3   324  HIS324      0.0771
    158  CG        30.0650    6.5800   39.2860 C.ar  324  HIS324      0.0820
    159  ND1       30.8060    5.4650   39.3820 N.ar  324  HIS324     -0.2267
    160  CD2       30.9470    7.6430   39.3680 C.ar  324  HIS324      0.1154
    161  CE1       32.0960    5.8010   39.5310 C.ar  324  HIS324      0.1986
    162  NE2       32.1780    7.1290   39.5320 N.ar  324  HIS324     -0.2212
@<TRIPOS>BOND
     1   102   103    1
     2   103   104    1
     3   103   106    1
     4   104   105    2
     5   106   107    1
     6   108   107   ar
     7   108   110   ar
     8   107   109   ar
     9   110   112   ar
    10   122   121    1
    11   122   125    1
    12   122   123    1
    13   121   127    1
    14   126   125    1
    15   126   127    1
    16   124   123    2
    17    35    33   ar
    18    34    33   ar
    19   123   128   am
    20   109   111   ar
    21   112   111   ar
    22    33    32    1
    23    28    29    1
    24    99   101   ar
    25    99    97   ar
    26   128   129    1
    27    32    29    1
    28    94    93    1
    29    94    95    2
    30    93    96    1
    31    93    92    1
    32   101   100   ar
    33    29    30    1
    34    96    97    1
    35    97    98   ar
    36    59    61   ar
    37    59    58   ar
    38    61    62   ar
    39   129   130    1
    40   129   132    1
    41   130   131    2
    42    56    55    2
    43    63    64    1
    44   100    98   ar
    45    58    57    1
    46    58    60   ar
    47    62    60   ar
    48    30    31    2
    49    57    54    1
    50    64    65    1
    51    55    54    1
    52   132   133    1
    53    54    53    1
    54    46    45    2
    55    87    86    2
    56   134   133    1
    57   133   135    1
    58    53    45   am
    59    86    85    1
    60    65    67   am
    61    65    66    2
    62    45    44    1
    63    51    49   ar
    64    51    52   ar
    65    90    89   ar
    66    77    75   ar
    67    77    76   ar
    68    75    73   ar
    69    49    48   ar
    70    67    68    1
    71    52    50   ar
    72   116   115    2
    73    76    74   ar
    74    73    72   ar
    75    48    50   ar
    76    48    47    1
    77   120   118   ar
    78    89    88    1
    79    89    91   ar
    80   118   119   ar
    81   118   117    1
    82    85    88    1
    83    85    84    1
    84    44    47    1
    85    44    43    1
    86   115   114    1
    87    81    80    2
    88   117   114    1
    89    74    72   ar
    90    72    71    1
    91     6     7    1
    92     6     5    1
    93    68    71    1
    94    68    69    1
    95    78    79    1
    96    78    69   am
    97    82    83    1
    98    82    79    1
    99     7     1    1
   100   114   113    1
   101    80    79    1
   102    69    70    2
   103     5     2    1
   104     1     2    1
   105     2     3    1
   106   146   145    1
   107   146   147    1
   108   157   158    1
   109   157   154    1
   110   143   142   ar
   111   145   138   am
   112   149   147   am
   113   149   150    1
   114   158   160   ar
   115   158   159   ar
   116   140   141    1
   117   140   137    1
   118   160   162   ar
   119   159   161   ar
   120   142   141    1
   121   142   144   ar
   122    41    40    1
   123    41    42    1
   124   161   162   ar
   125   147   148    2
   126     8     3   am
   127     8     9    1
   128     3     4    2
   129    40    37    1
   130    39    38    2
   131    12    13    1
   132    12     9    1
   133   150   151    1
   134    38    37    1
   135   153   154    1
   136   153   151   am
   137   138   137    1
   138   138   139    2
   139   154   155    1
   140   137   136    1
   141   151   152    2
   142    13    14    1
   143     9    10    1
   144    42    36    1
   145    37    36    1
   146   155   156    2
   147    10    11    2
   148    14    15   ar
   149    14    16   ar
   150    26    25    1
   151    25    27    1
   152    25    24    2
   153    23    24    1
   154    23    22    1
   155    22    21    1
   156    21    18    1
   157    18    17    1
   158    18    19    1
   159    19    20    2
