@<TRIPOS>MOLECULE
tmp/4cc5A00.pdb
 118 112 0 0 0
SMALL
GASTEIGER

@<TRIPOS>ATOM
      1  N         22.7410   17.6040    4.8360 N.3    79  LEU79      -0.1245
      2  CA        23.8460   17.8280    3.9230 C.3    79  LEU79       0.1561
      3  C         25.0070   16.9040    4.1710 C.2    79  LEU79       0.2260
      4  O         25.2670   16.5110    5.2940 O.2    79  LEU79      -0.2867
      5  CB        24.3730   19.2520    4.0850 C.3    79  LEU79       0.0270
      6  CG        23.3450   20.3050    3.7270 C.3    79  LEU79       0.0019
      7  CD1       23.9840   21.6720    3.8220 C.3    79  LEU79       0.0001
      8  CD2       22.8070   20.0080    2.3330 C.3    79  LEU79       0.0001
      9  N         29.0590   16.8710    3.8510 N.3    81  LEU81      -0.1245
     10  CA        30.2360   17.7690    3.7040 C.3    81  LEU81       0.1561
     11  C         31.4040   17.1070    3.0010 C.2    81  LEU81       0.2260
     12  O         31.6890   15.9250    3.2240 O.2    81  LEU81      -0.2867
     13  CB        30.7700   18.2210    5.0620 C.3    81  LEU81       0.0270
     14  CG        29.7980   18.9710    5.9730 C.3    81  LEU81       0.0019
     15  CD1       30.4630   19.2100    7.3170 C.3    81  LEU81       0.0001
     16  CD2       29.3470   20.2800    5.3350 C.3    81  LEU81       0.0001
     17  N         33.6910   25.4310   13.9170 N.3   109  GLU109     -0.1231
     18  CA        33.0910   24.5970   14.9270 C.3   109  GLU109      0.1699
     19  C         33.7380   23.2420   15.0230 C.2   109  GLU109      0.2592
     20  O         34.3400   22.7460   14.0930 O.2   109  GLU109     -0.2718
     21  CB        31.5990   24.3590   14.6240 C.3   109  GLU109      0.0402
     22  CG        30.7900   25.6110   14.4050 C.3   109  GLU109      0.1161
     23  CD        29.4310   25.2970   13.8310 C.2   109  GLU109      0.3649
     24  OE1       28.6690   24.5320   14.4800 O.co2 109  GLU109     -0.2457
     25  OE2       29.1390   25.8230   12.7270 O.co2 109  GLU109     -0.2457
     26  N         33.5880   22.6490   16.1920 N.am  110  LEU110     -0.1966
     27  CA        34.0070   21.2880   16.4190 C.3   110  LEU110      0.1728
     28  C         33.0310   20.3160   15.7800 C.2   110  LEU110      0.2616
     29  O         31.8060   20.4690   15.8960 O.2   110  LEU110     -0.2715
     30  CB        34.0960   21.0460   17.9300 C.3   110  LEU110      0.0311
     31  CG        34.9380   22.0690   18.6980 C.3   110  LEU110      0.0022
     32  CD1       34.9400   21.7270   20.1930 C.3   110  LEU110      0.0001
     33  CD2       36.3670   22.1740   18.1580 C.3   110  LEU110      0.0001
     34  N         33.5750   19.3070   15.1000 N.am  111  LYS111     -0.1963
     35  CA        32.7810   18.2610   14.5270 C.3   111  LYS111      0.1728
     36  C         32.7130   17.1410   15.5270 C.2   111  LYS111      0.2616
     37  O         33.6860   16.4050   15.7350 O.2   111  LYS111     -0.2715
     38  CB        33.4170   17.7380   13.2370 C.3   111  LYS111      0.0311
     39  CG        32.4370   16.9430   12.3940 C.3   111  LYS111      0.0038
     40  CD        33.0630   16.5190   11.0830 C.3   111  LYS111      0.0206
     41  CE        32.0470   15.9400   10.1150 C.3   111  LYS111      0.1093
     42  NZ        31.6430   14.5540   10.4960 N.3   111  LYS111     -0.1314
     43  N         31.5630   17.0090   16.1440 N.am  112  ILE112     -0.1977
     44  CA        31.3570   16.0480   17.2040 C.3   112  ILE112      0.1596
     45  C         31.2700   14.6290   16.6260 C.2   112  ILE112      0.2287
     46  O         30.5360   14.3860   15.6740 O.2   112  ILE112     -0.2864
     47  CB        30.0320   16.3570   17.9650 C.3   112  ILE112      0.0276
     48  CG1       29.9250   17.8330   18.4060 C.3   112  ILE112      0.0022
     49  CG2       29.8850   15.4400   19.1660 C.3   112  ILE112      0.0022
     50  CD1       31.0770   18.3110   19.2730 C.3   112  ILE112      0.0001
     51  N         20.2650   10.1430   10.8870 N.3   132  ARG132     -0.1245
     52  CA        20.5140   10.7640    9.5740 C.3   132  ARG132      0.1563
     53  C         20.2260    9.7590    8.4520 C.2   132  ARG132      0.2260
     54  O         19.6770   10.1070    7.3980 O.2   132  ARG132     -0.2867
     55  CB        21.9480   11.2960    9.5230 C.3   132  ARG132      0.0307
     56  CG        22.3200   11.8300    8.1720 C.3   132  ARG132      0.0489
     57  CD        23.6970   12.4590    8.0610 C.3   132  ARG132      0.2205
     58  NE        23.8490   12.5530    6.6290 N.pl3 132  ARG132     -0.0865
     59  CZ        24.0580   13.6420    5.9200 C.cat 132  ARG132      0.5346
     60  NH1       24.1600   14.8390    6.5040 N.pl3 132  ARG132      0.1354
     61  NH2       24.1680   13.5070    4.5940 N.pl3 132  ARG132      0.1354
     62  N         24.2970   16.4530   16.5710 N.3   166  GLU166     -0.1245
     63  CA        25.0000   15.2220   16.8480 C.3   166  GLU166      0.1567
     64  C         24.6790   14.7840   18.2480 C.2   166  GLU166      0.2260
     65  O         24.9260   15.5310   19.1930 O.2   166  GLU166     -0.2867
     66  CB        26.4930   15.4360   16.7380 C.3   166  GLU166      0.0388
     67  CG        26.9870   15.7250   15.3290 C.3   166  GLU166      0.1160
     68  CD        27.1810   14.4700   14.5300 C.2   166  GLU166      0.3649
     69  OE1       27.7090   13.4750   15.0860 O.co2 166  GLU166     -0.2457
     70  OE2       26.8050   14.4800   13.3470 O.co2 166  GLU166     -0.2457
     71  N         23.6360   22.0660   15.5300 N.3   218  TYR218     -0.1227
     72  CA        24.4930   22.9100   14.6870 C.3   218  TYR218      0.1736
     73  C         23.7730   23.6530   13.5660 C.2   218  TYR218      0.2596
     74  O         24.3370   24.5890   13.0180 O.2   218  TYR218     -0.2718
     75  CB        25.6630   22.1210   14.1030 C.3   218  TYR218      0.0548
     76  CG        25.2880   20.9460   13.2370 C.ar  218  TYR218     -0.0200
     77  CD1       24.8320   21.1210   11.9190 C.ar  218  TYR218     -0.0009
     78  CD2       25.3910   19.6470   13.7390 C.ar  218  TYR218     -0.0009
     79  CE1       24.4930   20.0410   11.1350 C.ar  218  TYR218      0.0417
     80  CE2       25.0540   18.5570   12.9650 C.ar  218  TYR218      0.0417
     81  CZ        24.6050   18.7530   11.6640 C.ar  218  TYR218      0.1957
     82  OH        24.2700   17.6710   10.8920 O.3   218  TYR218     -0.2866
     83  N         22.5490   23.2480   13.2210 N.am  219  SER219     -0.1952
     84  CA        21.7800   23.9600   12.2040 C.3   219  SER219      0.1924
     85  C         20.2990   23.6490   12.2290 C.2   219  SER219      0.2314
     86  O         19.8150   22.9340   13.1070 O.2   219  SER219     -0.2863
     87  CB        22.2900   23.6490   10.8040 C.3   219  SER219      0.2116
     88  OG        22.0890   24.7880   10.0250 O.3   219  SER219     -0.2180
     89  N         34.4200   21.7700   11.5110 N.3   280  VAL280     -0.1245
     90  CA        33.6010   22.1830   10.3740 C.3   280  VAL280      0.1561
     91  C         33.7560   23.6850   10.1980 C.2   280  VAL280      0.2260
     92  O         33.6760   24.4540   11.1710 O.2   280  VAL280     -0.2867
     93  CB        32.1270   21.7630   10.5530 C.3   280  VAL280      0.0252
     94  CG1       31.2910   22.2140    9.3540 C.3   280  VAL280      0.0019
     95  CG2       32.0580   20.2520   10.7300 C.3   280  VAL280      0.0019
     96  N         32.3630   26.9710    7.9040 N.3   282  LYS282     -0.1245
     97  CA        31.2740   27.4180    7.0350 C.3   282  LYS282      0.1561
     98  C         31.4250   28.8790    6.7400 C.2   282  LYS282      0.2260
     99  O         31.8000   29.6320    7.5870 O.2   282  LYS282     -0.2867
    100  CB        29.9020   27.1980    7.6820 C.3   282  LYS282      0.0271
    101  CG        29.5740   25.7480    7.9190 C.3   282  LYS282      0.0035
    102  CD        28.3340   25.5710    8.7590 C.3   282  LYS282      0.0206
    103  CE        28.1920   24.1120    9.1330 C.3   282  LYS282      0.1093
    104  NZ        26.8250   23.8180    9.6400 N.3   282  LYS282     -0.1314
    105  N         30.1170   25.9250    0.3410 N.3   301  TRP301     -0.1241
    106  CA        30.3450   26.9360    1.3720 C.3   301  TRP301      0.1605
    107  C         30.7230   26.3630    2.7370 C.2   301  TRP301      0.2264
    108  O         30.7980   27.0930    3.7350 O.2   301  TRP301     -0.2867
    109  CB        29.1150   27.8290    1.4890 C.3   301  TRP301      0.0550
    110  CG        27.8150   27.1020    1.5720 C.ar  301  TRP301      0.0003
    111  CD1       26.9480   26.8650    0.5360 C.ar  301  TRP301      0.0946
    112  CD2       27.2250   26.5170    2.7340 C.ar  301  TRP301      0.0152
    113  NE1       25.8630   26.1750    0.9780 N.ar  301  TRP301     -0.2442
    114  CE2       25.9960   25.9430    2.3230 C.ar  301  TRP301      0.0810
    115  CE3       27.6060   26.4200    4.0760 C.ar  301  TRP301      0.0012
    116  CZ2       25.1640   25.2930    3.1890 C.ar  301  TRP301      0.0191
    117  CZ3       26.7730   25.7670    4.9540 C.ar  301  TRP301      0.0001
    118  CH2       25.5530   25.2060    4.5040 C.ar  301  TRP301      0.0015
@<TRIPOS>BOND
     1   105   106    1
     2   111   113   ar
     3   111   110   ar
     4   113   114   ar
     5   106   109    1
     6   106   107    1
     7   109   110    1
     8   110   112   ar
     9   114   112   ar
    10   114   116   ar
    11     8     6    1
    12   112   115   ar
    13   107   108    2
    14    11    12    2
    15    11    10    1
    16   116   118   ar
    17    10     9    1
    18    10    13    1
    19     6     7    1
    20     6     5    1
    21     2     5    1
    22     2     3    1
    23     2     1    1
    24   115   117   ar
    25     3     4    2
    26   118   117   ar
    27    61    59    1
    28    13    14    1
    29    16    14    1
    30    59    60    1
    31    59    58    2
    32    14    15    1
    33    58    57    1
    34    98    97    1
    35    98    99    2
    36    97   100    1
    37    97    96    1
    38    54    53    2
    39   100   101    1
    40   101   102    1
    41    57    56    1
    42    56    55    1
    43    53    52    1
    44   102   103    1
    45   103   104    1
    46    94    93    1
    47    55    52    1
    48    52    51    1
    49    88    87    1
    50    41    42    1
    51    41    40    1
    52    91    90    1
    53    91    92    2
    54    90    93    1
    55    90    89    1
    56    93    95    1
    57    87    84    1
    58    82    81    1
    59    40    39    1
    60    79    81   ar
    61    79    77   ar
    62    81    80   ar
    63    77    76   ar
    64    84    85    1
    65    84    83    1
    66    85    86    2
    67    39    38    1
    68    25    23   ar
    69    80    78   ar
    70    74    73    2
    71    83    73   am
    72    38    35    1
    73    76    78   ar
    74    76    75    1
    75    70    68   ar
    76    73    72    1
    77    23    22    1
    78    23    24   ar
    79    17    18    1
    80    20    19    2
    81    75    72    1
    82    22    21    1
    83    35    34    1
    84    35    36    1
    85    68    69   ar
    86    68    67    1
    87    21    18    1
    88    72    71    1
    89    18    19    1
    90    19    26   am
    91    34    28   am
    92    67    66    1
    93    36    37    2
    94    36    43   am
    95    46    45    2
    96    28    29    2
    97    28    27    1
    98    43    44    1
    99    26    27    1
   100    27    30    1
   101    62    63    1
   102    45    44    1
   103    66    63    1
   104    63    64    1
   105    44    47    1
   106    30    31    1
   107    47    48    1
   108    47    49    1
   109    33    31    1
   110    64    65    2
   111    48    50    1
   112    31    32    1
