@<TRIPOS>MOLECULE
tmp/4cc6A00.pdb
 141 135 0 0 0
SMALL
GASTEIGER

@<TRIPOS>ATOM
      1  N         22.3600   17.8420    4.7590 N.3    79  LEU79      -0.1231
      2  CA        23.5750   18.1290    3.9840 C.3    79  LEU79       0.1693
      3  C         24.7860   17.2900    4.4360 C.2    79  LEU79       0.2593
      4  O         24.9560   17.0810    5.6320 O.2    79  LEU79      -0.2718
      5  CB        23.9150   19.6210    4.1890 C.3    79  LEU79       0.0284
      6  CG        23.0010   20.6290    3.5020 C.3    79  LEU79       0.0019
      7  CD1       23.2430   22.0340    4.0190 C.3    79  LEU79       0.0001
      8  CD2       23.1690   20.5580    1.9980 C.3    79  LEU79       0.0001
      9  N         25.6060   16.8150    3.4840 N.am   80  SER80      -0.1938
     10  CA        26.8410   16.0870    3.7660 C.3    80  SER80       0.2055
     11  C         28.0530   17.0020    3.5170 C.2    80  SER80       0.2642
     12  O         28.0190   17.8120    2.5860 O.2    80  SER80      -0.2714
     13  CB        26.9490   14.8470    2.8890 C.3    80  SER80       0.2130
     14  OG        28.0350   14.0430    3.3230 O.3    80  SER80      -0.2179
     15  N         29.0980   16.8730    4.3540 N.am   81  LEU81      -0.1977
     16  CA        30.3550   17.6390    4.2830 C.3    81  LEU81       0.1596
     17  C         31.4430   17.0660    3.3740 C.2    81  LEU81       0.2287
     18  O         31.7930   15.8830    3.4710 O.2    81  LEU81      -0.2864
     19  CB        30.9690   17.8240    5.6840 C.3    81  LEU81       0.0297
     20  CG        30.4370   18.9740    6.5300 C.3    81  LEU81       0.0022
     21  CD1       30.8150   18.7720    8.0070 C.3    81  LEU81       0.0001
     22  CD2       30.9090   20.3470    5.9860 C.3    81  LEU81       0.0001
     23  N         33.8570   25.7230   14.1110 N.3   109  GLU109     -0.1231
     24  CA        33.2820   24.9030   15.1980 C.3   109  GLU109      0.1699
     25  C         34.0840   23.6110   15.3120 C.2   109  GLU109      0.2592
     26  O         34.6210   23.1400   14.3160 O.2   109  GLU109     -0.2718
     27  CB        31.8520   24.4840   14.8710 C.3   109  GLU109      0.0402
     28  CG        30.8200   25.5870   14.7380 C.3   109  GLU109      0.1161
     29  CD        29.5420   25.0250   14.1490 C.2   109  GLU109      0.3649
     30  OE1       29.4720   24.8930   12.9070 O.co2 109  GLU109     -0.2457
     31  OE2       28.6520   24.6230   14.9300 O.co2 109  GLU109     -0.2457
     32  N         34.0850   23.0090   16.4890 N.am  110  LEU110     -0.1966
     33  CA        34.5960   21.6630   16.7470 C.3   110  LEU110      0.1728
     34  C         33.7110   20.6560   16.0530 C.2   110  LEU110      0.2616
     35  O         32.4880   20.7930   16.1310 O.2   110  LEU110     -0.2715
     36  CB        34.5390   21.3990   18.2740 C.3   110  LEU110      0.0311
     37  CG        35.4800   22.2330   19.1590 C.3   110  LEU110      0.0022
     38  CD1       35.3470   21.8340   20.5820 C.3   110  LEU110      0.0001
     39  CD2       36.8980   22.0600   18.7470 C.3   110  LEU110      0.0001
     40  N         34.2890   19.6160   15.4170 N.am  111  LYS111     -0.1963
     41  CA        33.4290   18.6420   14.7310 C.3   111  LYS111      0.1728
     42  C         33.1440   17.4840   15.6580 C.2   111  LYS111      0.2616
     43  O         33.9710   16.6220   15.9040 O.2   111  LYS111     -0.2715
     44  CB        33.9840   18.2020   13.3690 C.3   111  LYS111      0.0311
     45  CG        33.1680   17.1310   12.6600 C.3   111  LYS111      0.0038
     46  CD        33.8220   16.7790   11.3050 C.3   111  LYS111      0.0206
     47  CE        32.8360   16.1470   10.3570 C.3   111  LYS111      0.1093
     48  NZ        32.7640   14.6930   10.5480 N.3   111  LYS111     -0.1314
     49  N         31.9780   17.5000   16.1860 N.am  112  ILE112     -0.1977
     50  CA        31.4880   16.5120   17.1240 C.3   112  ILE112      0.1596
     51  C         31.4030   15.0960   16.5030 C.2   112  ILE112      0.2287
     52  O         30.6350   14.8700   15.5630 O.2   112  ILE112     -0.2864
     53  CB        30.1010   16.9660   17.6750 C.3   112  ILE112      0.0276
     54  CG1       30.1060   18.4780   18.1080 C.3   112  ILE112      0.0022
     55  CG2       29.7130   16.0290   18.8370 C.3   112  ILE112      0.0022
     56  CD1       31.1980   18.8750   19.2490 C.3   112  ILE112      0.0001
     57  N         24.7600   11.9940   14.0250 N.3   116  ALA116     -0.1245
     58  CA        23.9280   13.0310   13.3790 C.3   116  ALA116      0.1562
     59  C         22.4290   12.6850   13.4080 C.2   116  ALA116      0.2260
     60  O         22.0170   11.5790   13.0640 O.2   116  ALA116     -0.2867
     61  CB        24.3950   13.2690   11.9410 C.3   116  ALA116      0.0290
     62  N         20.3310   10.3170   10.8520 N.3   132  ARG132     -0.1245
     63  CA        20.6450   10.9120    9.5460 C.3   132  ARG132      0.1563
     64  C         20.4090    9.9790    8.3740 C.2   132  ARG132      0.2260
     65  O         20.0880   10.4680    7.2890 O.2   132  ARG132     -0.2867
     66  CB        22.0730   11.4520    9.5250 C.3   132  ARG132      0.0307
     67  CG        22.4020   12.1400    8.2130 C.3   132  ARG132      0.0489
     68  CD        23.8630   12.4450    8.0710 C.3   132  ARG132      0.2205
     69  NE        24.2140   12.4650    6.6590 N.pl3 132  ARG132     -0.0865
     70  CZ        24.1640   13.5540    5.9080 C.cat 132  ARG132      0.5346
     71  NH1       23.7960   14.7110    6.4350 N.pl3 132  ARG132      0.1354
     72  NH2       24.4920   13.4970    4.6270 N.pl3 132  ARG132      0.1354
     73  N         24.3370   16.7510   16.6150 N.3   166  GLU166     -0.1245
     74  CA        25.2380   15.6190   16.8240 C.3   166  GLU166      0.1567
     75  C         25.0040   15.0660   18.2290 C.2   166  GLU166      0.2260
     76  O         25.3000   15.7260   19.2200 O.2   166  GLU166     -0.2867
     77  CB        26.7030   16.0440   16.6250 C.3   166  GLU166      0.0388
     78  CG        27.1530   16.1580   15.1710 C.3   166  GLU166      0.1160
     79  CD        27.3550   14.8590   14.4010 C.2   166  GLU166      0.3649
     80  OE1       27.5570   13.8060   15.0470 O.co2 166  GLU166     -0.2457
     81  OE2       27.3570   14.8970   13.1490 O.co2 166  GLU166     -0.2457
     82  N         23.7990   21.9630   15.4430 N.3   218  TYR218     -0.1227
     83  CA        24.6960   22.6730   14.5090 C.3   218  TYR218      0.1736
     84  C         23.9570   23.4610   13.4170 C.2   218  TYR218      0.2596
     85  O         24.4840   24.4440   12.9130 O.2   218  TYR218     -0.2718
     86  CB        25.7270   21.7150   13.9190 C.3   218  TYR218      0.0548
     87  CG        25.1880   20.5940   13.0550 C.ar  218  TYR218     -0.0200
     88  CD1       25.0020   20.7690   11.6860 C.ar  218  TYR218     -0.0009
     89  CD2       25.0060   19.3170   13.5740 C.ar  218  TYR218     -0.0009
     90  CE1       24.5730   19.7150   10.8720 C.ar  218  TYR218      0.0417
     91  CE2       24.5830   18.2590   12.7720 C.ar  218  TYR218      0.0417
     92  CZ        24.4120   18.4520   11.4170 C.ar  218  TYR218      0.1957
     93  OH        24.0490   17.3800   10.6450 O.3   218  TYR218     -0.2866
     94  N         22.7120   23.0750   13.1030 N.am  219  SER219     -0.1952
     95  CA        22.0090   23.6770   11.9690 C.3   219  SER219      0.1924
     96  C         20.5410   23.5130   12.1540 C.2   219  SER219      0.2314
     97  O         20.1030   22.8350   13.0910 O.2   219  SER219     -0.2863
     98  CB        22.4600   23.0630   10.6370 C.3   219  SER219      0.2116
     99  OG        22.3030   23.9870    9.5620 O.3   219  SER219     -0.2180
    100  N         34.7750   21.9710   11.7400 N.3   280  VAL280     -0.1245
    101  CA        33.9130   22.3560   10.6140 C.3   280  VAL280      0.1561
    102  C         34.0020   23.8510   10.3810 C.2   280  VAL280      0.2260
    103  O         33.8710   24.6340   11.3220 O.2   280  VAL280     -0.2867
    104  CB        32.4490   21.8310   10.6820 C.3   280  VAL280      0.0252
    105  CG1       31.6950   22.1590    9.3680 C.3   280  VAL280      0.0019
    106  CG2       32.4300   20.3260   10.9340 C.3   280  VAL280      0.0019
    107  N         32.6620   27.0940    8.1160 N.3   282  LYS282     -0.1245
    108  CA        31.5820   27.5950    7.2700 C.3   282  LYS282      0.1561
    109  C         31.7550   29.0640    6.9660 C.2   282  LYS282      0.2260
    110  O         32.2630   29.8050    7.8120 O.2   282  LYS282     -0.2867
    111  CB        30.2180   27.3780    7.9500 C.3   282  LYS282      0.0271
    112  CG        29.8900   25.9350    8.1480 C.3   282  LYS282      0.0035
    113  CD        28.6260   25.8060    8.9390 C.3   282  LYS282      0.0206
    114  CE        28.3240   24.3490    9.1500 C.3   282  LYS282      0.1093
    115  NZ        27.0070   24.1350    9.7980 N.3   282  LYS282     -0.1314
    116  N         27.7560   21.3280    0.2420 N.3   299  PRO299     -0.2116
    117  CA        27.9040   22.7960    0.2040 C.3   299  PRO299      0.1372
    118  C         29.2870   23.1870   -0.2940 C.2   299  PRO299      0.2244
    119  O         30.2630   22.4860   -0.0290 O.2   299  PRO299     -0.2868
    120  CB        27.7380   23.2150    1.6800 C.3   299  PRO299      0.0268
    121  CG        27.0810   22.1050    2.3270 C.3   299  PRO299      0.0207
    122  CD        27.5060   20.8620    1.6210 C.3   299  PRO299      0.0892
    123  N         30.0970   26.2930    0.5100 N.3   301  TRP301     -0.1227
    124  CA        30.2780   27.2690    1.5770 C.3   301  TRP301      0.1737
    125  C         30.7450   26.6800    2.9440 C.2   301  TRP301      0.2595
    126  O         30.7880   27.4030    3.9440 O.2   301  TRP301     -0.2718
    127  CB        28.9890   28.0800    1.7460 C.3   301  TRP301      0.0564
    128  CG        27.7200   27.2740    1.8890 C.ar  301  TRP301      0.0003
    129  CD1       26.8220   26.9760    0.9000 C.ar  301  TRP301      0.0946
    130  CD2       27.1650   26.7490    3.1020 C.ar  301  TRP301      0.0152
    131  NE1       25.7720   26.2500    1.4150 N.ar  301  TRP301     -0.2442
    132  CE2       25.9350   26.1260    2.7670 C.ar  301  TRP301      0.0810
    133  CE3       27.5700   26.7660    4.4520 C.ar  301  TRP301      0.0012
    134  CZ2       25.1170   25.5150    3.7290 C.ar  301  TRP301      0.0191
    135  CZ3       26.7630   26.1540    5.3980 C.ar  301  TRP301      0.0001
    136  CH2       25.5580   25.5320    5.0370 C.ar  301  TRP301      0.0015
    137  N         31.0990   25.3880    2.9720 N.am  302  ALA302     -0.1980
    138  CA        31.4250   24.6440    4.1980 C.3   302  ALA302      0.1597
    139  C         32.3980   23.5460    3.8810 C.2   302  ALA302      0.2287
    140  O         32.3870   23.0150    2.7550 O.2   302  ALA302     -0.2864
    141  CB        30.1710   24.0450    4.8000 C.3   302  ALA302      0.0319
@<TRIPOS>BOND
     1   118   119    2
     2   118   117    1
     3   117   116    1
     4   117   120    1
     5   116   122    1
     6   123   124    1
     7   129   131   ar
     8   129   128   ar
     9   131   132   ar
    10   124   127    1
    11   124   125    1
    12   122   121    1
    13   120   121    1
    14   127   128    1
    15   128   130   ar
    16     8     6    1
    17    12    11    2
    18   140   139    2
    19   132   130   ar
    20   132   134   ar
    21    13    14    1
    22    13    10    1
    23   125   137   am
    24   125   126    2
    25   137   138    1
    26   130   133   ar
    27    17    18    2
    28    17    16    1
    29     9    10    1
    30     9     3   am
    31     6     7    1
    32     6     5    1
    33    11    10    1
    34    11    15   am
    35   134   136   ar
    36   139   138    1
    37     2     5    1
    38     2     3    1
    39     2     1    1
    40   138   141    1
    41    16    15    1
    42    16    19    1
    43     3     4    2
    44   133   135   ar
    45    72    70    1
    46   136   135   ar
    47    19    20    1
    48    70    71    1
    49    70    69    2
    50    22    20    1
    51    20    21    1
    52    69    68    1
    53   109   108    1
    54   109   110    2
    55   108   111    1
    56   108   107    1
    57    65    64    2
    58   111   112    1
    59    68    67    1
    60   112   113    1
    61    67    66    1
    62    64    63    1
    63   113   114    1
    64   114   115    1
    65   105   104    1
    66    66    63    1
    67    63    62    1
    68    99    98    1
    69    47    48    1
    70    47    46    1
    71   102   101    1
    72   102   103    2
    73   101   104    1
    74   101   100    1
    75    98    95    1
    76    93    92    1
    77   104   106    1
    78    90    92   ar
    79    90    88   ar
    80    46    45    1
    81    92    91   ar
    82    88    87   ar
    83    61    58    1
    84    95    96    1
    85    95    94    1
    86    96    97    2
    87    45    44    1
    88    91    89   ar
    89    30    29   ar
    90    85    84    2
    91    87    89   ar
    92    87    86    1
    93    60    59    2
    94    94    84   am
    95    81    79   ar
    96    44    41    1
    97    58    59    1
    98    58    57    1
    99    84    83    1
   100    86    83    1
   101    23    24    1
   102    29    28    1
   103    29    31   ar
   104    26    25    2
   105    79    80   ar
   106    79    78    1
   107    83    82    1
   108    41    40    1
   109    41    42    1
   110    28    27    1
   111    27    24    1
   112    78    77    1
   113    24    25    1
   114    25    32   am
   115    40    34   am
   116    52    51    2
   117    42    43    2
   118    42    49   am
   119    34    35    2
   120    34    33    1
   121    49    50    1
   122    32    33    1
   123    51    50    1
   124    73    74    1
   125    77    74    1
   126    33    36    1
   127    74    75    1
   128    50    53    1
   129    53    54    1
   130    53    55    1
   131    54    56    1
   132    75    76    2
   133    36    37    1
   134    39    37    1
   135    37    38    1
