@<TRIPOS>MOLECULE
tmp/4cc9A00.pdb
 84 81 0 0 0
SMALL
GASTEIGER

@<TRIPOS>ATOM
      1  N          4.6880  -40.7270   38.1470 N.3     6  SER6       -0.1217
      2  CA         3.2940  -40.6610   38.5590 C.3     6  SER6        0.1889
      3  C          2.9190  -39.2240   38.9340 C.2     6  SER6        0.2288
      4  O          1.8060  -38.9720   39.4110 O.2     6  SER6       -0.2866
      5  CB         3.0640  -41.5730   39.7640 C.3     6  SER6        0.2089
      6  OG         3.8110  -41.1220   40.8820 O.3     6  SER6       -0.2183
      7  N          2.8090  -35.2120   37.5200 N.3     8  PHE8       -0.1241
      8  CA         2.9330  -34.2890   36.3970 C.3     8  PHE8        0.1605
      9  C          2.2540  -32.9620   36.7340 C.2     8  PHE8        0.2264
     10  O          1.2000  -32.9350   37.3750 O.2     8  PHE8       -0.2867
     11  CB         2.3360  -34.9010   35.1130 C.3     8  PHE8        0.0534
     12  CG         2.9840  -36.2090   34.6970 C.ar    8  PHE8       -0.0203
     13  CD1        2.5960  -37.4250   35.2860 C.ar    8  PHE8       -0.0042
     14  CD2        3.9780  -36.2250   33.7140 C.ar    8  PHE8       -0.0042
     15  CE1        3.2100  -38.6290   34.9090 C.ar    8  PHE8       -0.0003
     16  CE2        4.5990  -37.4260   33.3280 C.ar    8  PHE8       -0.0003
     17  CZ         4.2130  -38.6290   33.9230 C.ar    8  PHE8       -0.0000
     18  N          1.3290  -28.9910   35.1240 N.3    10  PRO10      -0.2116
     19  CA         1.2720  -28.1330   33.9240 C.3    10  PRO10       0.1372
     20  C          2.0270  -26.8300   34.1700 C.2    10  PRO10       0.2244
     21  O          1.8850  -26.2720   35.2590 O.2    10  PRO10      -0.2868
     22  CB        -0.2350  -27.8600   33.7540 C.3    10  PRO10       0.0268
     23  CG        -0.8140  -28.0230   35.1370 C.3    10  PRO10       0.0207
     24  CD         0.0180  -29.1160   35.7870 C.3    10  PRO10       0.0892
     25  N         -2.1340  -43.3240   36.1330 N.3   262  THR262     -0.1203
     26  CA        -3.1280  -42.9190   35.1460 C.3   262  THR262      0.1994
     27  C         -3.4020  -41.4500   35.4060 C.2   262  THR262      0.2618
     28  O         -3.7470  -41.0700   36.5250 O.2   262  THR262     -0.2717
     29  CB        -4.4370  -43.7030   35.3130 C.3   262  THR262      0.1784
     30  OG1       -4.1640  -45.1010   35.2140 O.3   262  THR262     -0.2211
     31  CG2       -5.4240  -43.3350   34.2260 C.3   262  THR262      0.0376
     32  N         -3.2370  -40.6150   34.3920 N.am  263  ILE263     -0.1965
     33  CA        -3.3250  -39.1780   34.6140 C.3   263  ILE263      0.1727
     34  C         -4.4440  -38.5720   33.7870 C.2   263  ILE263      0.2616
     35  O         -4.3630  -38.5250   32.5650 O.2   263  ILE263     -0.2715
     36  CB        -1.9680  -38.4800   34.3610 C.3   263  ILE263      0.0290
     37  CG1       -1.0380  -38.7370   35.5460 C.3   263  ILE263      0.0022
     38  CG2       -2.1420  -36.9770   34.2260 C.3   263  ILE263      0.0023
     39  CD1       -0.2210  -39.9670   35.4040 C.3   263  ILE263      0.0001
     40  N         -5.5060  -38.1400   34.4610 N.am  264  ASP264     -0.1957
     41  CA        -6.6690  -37.5930   33.7720 C.3   264  ASP264      0.1840
     42  C         -6.4670  -36.1020   33.5070 C.2   264  ASP264      0.2622
     43  O         -6.1980  -35.3180   34.4190 O.2   264  ASP264     -0.2715
     44  CB        -7.9410  -37.8290   34.5880 C.3   264  ASP264      0.1450
     45  CG        -9.2140  -37.7160   33.7470 C.2   264  ASP264      0.3671
     46  OD1       -9.1810  -37.1210   32.6400 O.co2 264  ASP264     -0.2456
     47  OD2      -10.2650  -38.2230   34.2020 O.co2 264  ASP264     -0.2456
     48  N         -6.6240  -35.7250   32.2480 N.am  265  VAL265     -0.1963
     49  CA        -6.2840  -34.3950   31.7700 C.3   265  VAL265      0.1727
     50  C         -7.5580  -33.5830   31.4410 C.2   265  VAL265      0.2616
     51  O         -7.5040  -32.3660   31.2130 O.2   265  VAL265     -0.2715
     52  CB        -5.2850  -34.5570   30.5810 C.3   265  VAL265      0.0290
     53  CG1       -5.7180  -33.8240   29.3020 C.3   265  VAL265      0.0023
     54  CG2       -3.8890  -34.1830   31.0200 C.3   265  VAL265      0.0023
     55  N         -8.7060  -34.2630   31.4620 N.am  266  LYS266     -0.1977
     56  CA        -9.9990  -33.6410   31.1520 C.3   266  LYS266      0.1596
     57  C        -10.0600  -32.9320   29.7950 C.2   266  LYS266      0.2287
     58  O        -10.7170  -31.8880   29.6650 O.2   266  LYS266     -0.2864
     59  CB       -10.4280  -32.6720   32.2490 C.3   266  LYS266      0.0298
     60  CG       -10.8730  -33.3580   33.5310 C.3   266  LYS266      0.0038
     61  CD        -9.7590  -33.3520   34.5430 C.3   266  LYS266      0.0206
     62  CE       -10.2820  -33.5080   35.9580 C.3   266  LYS266      0.1093
     63  NZ        -9.1670  -33.2820   36.9330 N.3   266  LYS266     -0.1314
     64  N          4.1000  -30.1440   30.4040 N.3   302  TYR302     -0.1241
     65  CA         4.1300  -30.5960   31.8060 C.3   302  TYR302      0.1605
     66  C          5.5320  -30.8210   32.3370 C.2   302  TYR302      0.2264
     67  O          6.4180  -31.2960   31.6160 O.2   302  TYR302     -0.2867
     68  CB         3.3640  -31.9120   31.9840 C.3   302  TYR302      0.0534
     69  CG         1.8980  -31.8090   31.6980 C.ar  302  TYR302     -0.0201
     70  CD1        1.4270  -31.8310   30.3880 C.ar  302  TYR302     -0.0009
     71  CD2        0.9780  -31.6990   32.7300 C.ar  302  TYR302     -0.0009
     72  CE1        0.0760  -31.7320   30.1130 C.ar  302  TYR302      0.0417
     73  CE2       -0.3780  -31.6140   32.4680 C.ar  302  TYR302      0.0417
     74  CZ        -0.8190  -31.6270   31.1560 C.ar  302  TYR302      0.1957
     75  OH        -2.1640  -31.5250   30.8900 O.3   302  TYR302     -0.2866
     76  N          4.5820  -32.3770   41.4270 N.3   307  GLN307     -0.1245
     77  CA         3.1210  -32.3570   41.5190 C.3   307  GLN307      0.1566
     78  C          2.5900  -30.9820   41.9230 C.2   307  GLN307      0.2260
     79  O          3.3500  -30.0180   42.0140 O.2   307  GLN307     -0.2867
     80  CB         2.6140  -33.4320   42.4870 C.3   307  GLN307      0.0367
     81  CG         1.0900  -33.3290   42.6750 C.3   307  GLN307      0.0905
     82  CD         0.4100  -33.9110   41.4790 C.2   307  GLN307      0.2608
     83  OE1        0.6620  -35.0830   41.1520 O.2   307  GLN307     -0.2717
     84  NE2       -0.4150  -33.0850   40.8080 N.am  307  GLN307     -0.0878
@<TRIPOS>BOND
     1    53    52    1
     2    58    57    2
     3    57    56    1
     4    72    70   ar
     5    72    74   ar
     6    70    69   ar
     7    64    65    1
     8    52    54    1
     9    52    49    1
    10    75    74    1
    11    56    55    1
    12    56    59    1
    13    74    73   ar
    14    51    50    2
    15    50    55   am
    16    50    49    1
    17    67    66    2
    18    69    68    1
    19    69    71   ar
    20    49    48    1
    21    65    68    1
    22    65    66    1
    23    48    42   am
    24    59    60    1
    25    73    71   ar
    26    35    34    2
    27    46    45   ar
    28    16    14   ar
    29    16    17   ar
    30    42    41    1
    31    42    43    2
    32    60    61    1
    33    14    12   ar
    34    45    47   ar
    35    45    44    1
    36    22    19    1
    37    22    23    1
    38    41    40    1
    39    41    44    1
    40    34    40   am
    41    34    33    1
    42    17    15   ar
    43    19    20    1
    44    19    18    1
    45    20    21    2
    46    38    36    1
    47    31    29    1
    48    36    33    1
    49    36    37    1
    50    32    33    1
    51    32    27   am
    52    61    62    1
    53    12    11    1
    54    12    13   ar
    55    15    13   ar
    56    11     8    1
    57    18    24    1
    58    23    24    1
    59    26    29    1
    60    26    27    1
    61    26    25    1
    62    30    29    1
    63    39    37    1
    64    27    28    2
    65    62    63    1
    66     8     9    1
    67     8     7    1
    68     9    10    2
    69     1     2    1
    70     2     3    1
    71     2     5    1
    72     3     4    2
    73     5     6    1
    74    84    82   am
    75    83    82    2
    76    76    77    1
    77    82    81    1
    78    77    78    1
    79    77    80    1
    80    78    79    2
    81    80    81    1
