@<TRIPOS>MOLECULE
tmp/4ccbA00.pdb
 152 142 0 0 0
SMALL
GASTEIGER

@<TRIPOS>ATOM
      1  N         28.5790   46.4100    0.9840 N.3    30  LEU30      -0.1231
      2  CA        28.9230   47.3230    2.0680 C.3    30  LEU30       0.1693
      3  C         30.3840   47.7280    1.9460 C.2    30  LEU30       0.2593
      4  O         30.8790   48.5450    2.7190 O.2    30  LEU30      -0.2718
      5  CB        28.6920   46.6530    3.4250 C.3    30  LEU30       0.0284
      6  CG        27.2560   46.2500    3.7600 C.3    30  LEU30       0.0019
      7  CD1       27.2350   45.5400    5.1010 C.3    30  LEU30       0.0001
      8  CD2       26.3660   47.4830    3.7900 C.3    30  LEU30       0.0001
      9  N         31.0670   47.1460    0.9680 N.am   31  GLY31      -0.1942
     10  CA        32.4870   47.3850    0.8070 C.3    31  GLY31       0.2014
     11  C         33.2870   46.1420    1.1420 C.2    31  GLY31       0.2639
     12  O         32.7380   45.1650    1.6520 O.2    31  GLY31      -0.2714
     13  N         34.5830   46.1700    0.8490 N.am   32  HIS32      -0.1959
     14  CA        35.4470   45.0380    1.1560 C.3    32  HIS32       0.1787
     15  C         36.7030   45.4730    1.9000 C.2    32  HIS32       0.2620
     16  O         37.1470   46.6150    1.7790 O.2    32  HIS32      -0.2715
     17  CB        35.8200   44.2870   -0.1300 C.3    32  HIS32       0.0785
     18  CG        36.7250   45.0510   -1.0460 C.ar   32  HIS32       0.0821
     19  ND1       36.2860   46.0990   -1.8260 N.ar   32  HIS32      -0.2267
     20  CD2       38.0410   44.9000   -1.3250 C.ar   32  HIS32       0.1154
     21  CE1       37.2930   46.5600   -2.5470 C.ar   32  HIS32       0.1986
     22  NE2       38.3690   45.8500   -2.2610 N.ar   32  HIS32      -0.2212
     23  N         37.2660   44.5560    2.6790 N.am   33  GLY33      -0.1954
     24  CA        38.4230   44.8850    3.4910 C.3    33  GLY33       0.1869
     25  C         39.5690   43.9050    3.3460 C.2    33  GLY33       0.2309
     26  O         39.9320   43.2160    4.2970 O.2    33  GLY33      -0.2863
     27  N         31.9190   42.3830    1.3950 N.3    38  VAL38      -0.1245
     28  CA        30.9250   42.1710    2.4300 C.3    38  VAL38       0.1561
     29  C         29.6060   42.7530    1.9470 C.2    38  VAL38       0.2260
     30  O         29.5690   43.8650    1.4160 O.2    38  VAL38      -0.2867
     31  CB        31.3390   42.8670    3.7440 C.3    38  VAL38       0.0252
     32  CG1       30.2690   42.6650    4.8040 C.3    38  VAL38       0.0019
     33  CG2       32.6780   42.3160    4.2180 C.3    38  VAL38       0.0019
     34  N         25.2670   43.3980    2.7420 N.3    40  GLU40      -0.1245
     35  CA        24.1250   43.3280    3.6380 C.3    40  GLU40       0.1567
     36  C         23.2320   42.2100    3.1240 C.2    40  GLU40       0.2260
     37  O         23.0450   42.0600    1.9170 O.2    40  GLU40      -0.2867
     38  CB        23.3520   44.6480    3.6410 C.3    40  GLU40       0.0388
     39  CG        22.0610   44.5850    4.4450 C.3    40  GLU40       0.1160
     40  CD        21.2110   45.8290    4.2880 C.2    40  GLU40       0.3649
     41  OE1       21.6810   46.7900    3.6450 O.co2  40  GLU40      -0.2457
     42  OE2       20.0740   45.8470    4.8080 O.co2  40  GLU40      -0.2457
     43  N         25.1910   40.9280    8.0610 N.3    49  ALA49      -0.1245
     44  CA        26.2920   41.2920    7.1880 C.3    49  ALA49       0.1562
     45  C         26.9670   40.0050    6.7410 C.2    49  ALA49       0.2260
     46  O         27.2400   39.1200    7.5530 O.2    49  ALA49      -0.2867
     47  CB        27.2710   42.1770    7.9220 C.3    49  ALA49       0.0290
     48  N         30.0730   38.1880    5.1140 N.3    51  LYS51      -0.1245
     49  CA        31.4710   38.2130    4.7340 C.3    51  LYS51       0.1561
     50  C         31.7100   37.0330    3.7960 C.2    51  LYS51       0.2260
     51  O         31.3630   35.8940    4.1110 O.2    51  LYS51      -0.2867
     52  CB        32.3380   38.0970    5.9900 C.3    51  LYS51       0.0271
     53  CG        33.7760   38.4890    5.8000 C.3    51  LYS51       0.0035
     54  CD        34.4340   38.7740    7.1430 C.3    51  LYS51       0.0206
     55  CE        35.7670   39.4820    6.9530 C.3    51  LYS51       0.1093
     56  NZ        36.4100   39.8170    8.2540 N.3    51  LYS51      -0.1314
     57  N         30.6730   41.7780   18.1670 N.3    81  VAL81      -0.1245
     58  CA        29.6820   41.4680   17.1460 C.3    81  VAL81       0.1561
     59  C         29.3470   39.9760   17.1340 C.2    81  VAL81       0.2260
     60  O         30.2350   39.1240   17.2350 O.2    81  VAL81      -0.2867
     61  CB        30.1850   41.8990   15.7490 C.3    81  VAL81       0.0252
     62  CG1       29.1350   41.6070   14.7020 C.3    81  VAL81       0.0019
     63  CG2       30.5020   43.3980   15.7540 C.3    81  VAL81       0.0019
     64  N         27.3090   37.7180   10.0060 N.3    97  LEU97      -0.1231
     65  CA        27.4380   38.5190   11.2240 C.3    97  LEU97       0.1693
     66  C         26.1960   39.3630   11.5070 C.2    97  LEU97       0.2592
     67  O         25.4650   39.7400   10.5960 O.2    97  LEU97      -0.2718
     68  CB        28.6520   39.4490   11.1100 C.3    97  LEU97       0.0284
     69  CG        29.9840   38.7810   10.7450 C.3    97  LEU97       0.0019
     70  CD1       31.0290   39.8400   10.4660 C.3    97  LEU97       0.0001
     71  CD2       30.4330   37.8750   11.8860 C.3    97  LEU97       0.0001
     72  N         25.9780   39.6580   12.7830 N.am   98  GLU98      -0.1966
     73  CA        25.0630   40.7110   13.2120 C.3    98  GLU98       0.1733
     74  C         25.2440   41.9690   12.3480 C.2    98  GLU98       0.2616
     75  O         26.3570   42.4780   12.2110 O.2    98  GLU98      -0.2715
     76  CB        25.3600   41.0300   14.6830 C.3    98  GLU98       0.0429
     77  CG        24.5790   42.1690   15.2970 C.3    98  GLU98       0.1163
     78  CD        25.0030   42.4390   16.7340 C.2    98  GLU98       0.3649
     79  OE1       26.0660   41.9320   17.1580 O.co2  98  GLU98      -0.2457
     80  OE2       24.2720   43.1560   17.4460 O.co2  98  GLU98      -0.2457
     81  N         24.1560   42.4700   11.7680 N.am   99  LEU99      -0.1963
     82  CA        24.2270   43.6780   10.9470 C.3    99  LEU99       0.1728
     83  C         24.2530   44.8930   11.8570 C.2    99  LEU99       0.2616
     84  O         23.3080   45.1470   12.5960 O.2    99  LEU99      -0.2715
     85  CB        23.0220   43.7730   10.0010 C.3    99  LEU99       0.0311
     86  CG        23.0170   44.9710    9.0400 C.3    99  LEU99       0.0022
     87  CD1       24.1130   44.8020    8.0050 C.3    99  LEU99       0.0001
     88  CD2       21.6580   45.0930    8.3530 C.3    99  LEU99       0.0001
     89  N         25.3490   45.6400   11.8110 N.am  100  MET100     -0.1963
     90  CA        25.4880   46.8220   12.6430 C.3   100  MET100      0.1736
     91  C         25.1790   48.0490   11.7900 C.2   100  MET100      0.2616
     92  O         26.0270   48.5240   11.0420 O.2   100  MET100     -0.2715
     93  CB        26.9130   46.8880   13.1980 C.3   100  MET100      0.0427
     94  CG        27.2790   45.6660   14.0320 C.3   100  MET100      0.0599
     95  SD        26.4490   45.7090   15.6280 S.3   100  MET100     -0.1393
     96  CE        27.4320   46.9900   16.4580 C.3   100  MET100      0.0692
     97  N         23.9550   48.5550   11.9150 N.am  101  ALA101     -0.1977
     98  CA        23.4280   49.5360   10.9750 C.3   101  ALA101      0.1597
     99  C         24.1550   50.8700   11.0550 C.2   101  ALA101      0.2287
    100  O         24.0620   51.6880   10.1430 O.2   101  ALA101     -0.2864
    101  CB        21.9320   49.7370   11.2180 C.3   101  ALA101      0.0319
    102  N         27.2810   51.2250   10.9150 N.3   103  GLY103     -0.1210
    103  CA        28.5250   51.1560   10.1720 C.3   103  GLY103      0.1956
    104  C         29.7400   51.1980   11.0810 C.2   103  GLY103      0.2611
    105  O         29.6070   51.1100   12.3030 O.2   103  GLY103     -0.2717
    106  N         30.9250   51.3280   10.4890 N.am  104  ASP104     -0.1973
    107  CA        32.1650   51.3090   11.2560 C.3   104  ASP104      0.1709
    108  C         32.3760   52.6250   11.9960 C.2   104  ASP104      0.2293
    109  O         31.8600   53.6670   11.5940 O.2   104  ASP104     -0.2864
    110  CB        33.3620   51.0240   10.3400 C.3   104  ASP104      0.1436
    111  CG        33.8020   52.2420    9.5480 C.2   104  ASP104      0.3671
    112  OD1       33.1680   52.5410    8.5150 O.co2 104  ASP104     -0.2456
    113  OD2       34.7870   52.8990    9.9580 O.co2 104  ASP104     -0.2456
    114  N         38.6300   51.6180   12.9960 N.3   152  ARG152     -0.1231
    115  CA        38.1740   51.0050   11.7500 C.3   152  ARG152      0.1694
    116  C         37.6730   49.5830   11.9960 C.2   152  ARG152      0.2592
    117  O         36.9850   49.0030   11.1540 O.2   152  ARG152     -0.2718
    118  CB        39.3120   50.9800   10.7280 C.3   152  ARG152      0.0321
    119  CG        40.4530   50.0440   11.1010 C.3   152  ARG152      0.0489
    120  CD        41.6750   50.2990   10.2340 C.3   152  ARG152      0.2205
    121  NE        42.4990   49.1050   10.0790 N.pl3 152  ARG152     -0.0865
    122  CZ        43.5660   48.8190   10.8210 C.cat 152  ARG152      0.5346
    123  NH1       43.9570   49.6440   11.7880 N.pl3 152  ARG152      0.1354
    124  NH2       44.2460   47.7020   10.5890 N.pl3 152  ARG152      0.1354
    125  N         38.0240   49.0220   13.1520 N.am  153  ASN153     -0.1974
    126  CA        37.6340   47.6560   13.4800 C.3   153  ASN153      0.1688
    127  C         36.4640   47.6000   14.4600 C.2   153  ASN153      0.2292
    128  O         36.1150   46.5260   14.9540 O.2   153  ASN153     -0.2864
    129  CB        38.8310   46.8820   14.0500 C.3   153  ASN153      0.1181
    130  CG        39.8890   46.5950   13.0000 C.2   153  ASN153      0.2629
    131  OD1       39.5750   46.4350   11.8190 O.2   153  ASN153     -0.2716
    132  ND2       41.1490   46.5300   13.4240 N.am  153  ASN153     -0.0877
    133  N         32.2740   48.7220   15.2700 N.3   155  LEU155     -0.1245
    134  CA        30.9980   48.9400   14.5950 C.3   155  LEU155      0.1561
    135  C         29.9700   49.5250   15.5600 C.2   155  LEU155      0.2260
    136  O         30.1110   49.4070   16.7810 O.2   155  LEU155     -0.2867
    137  CB        30.4730   47.6150   14.0240 C.3   155  LEU155      0.0270
    138  CG        31.2920   46.9410   12.9210 C.3   155  LEU155      0.0019
    139  CD1       30.8130   45.4940   12.7250 C.3   155  LEU155      0.0001
    140  CD2       31.1490   47.7260   11.6160 C.3   155  LEU155      0.0001
    141  N         34.3560   44.5500   15.9020 N.3   168  GLY168     -0.1210
    142  CA        33.7250   43.8590   14.7900 C.3   168  GLY168      0.1956
    143  C         34.6420   43.0720   13.8760 C.2   168  GLY168      0.2611
    144  O         34.1620   42.3360   13.0150 O.2   168  GLY168     -0.2717
    145  N         35.9520   43.2250   14.0440 N.am  169  ASP169     -0.1973
    146  CA        36.9190   42.5100   13.2090 C.3   169  ASP169      0.1709
    147  C         38.0280   41.8790   14.0480 C.2   169  ASP169      0.2293
    148  O         38.5250   42.4870   14.9970 O.2   169  ASP169     -0.2864
    149  CB        37.5520   43.4560   12.1870 C.3   169  ASP169      0.1436
    150  CG        38.5950   42.7630   11.3230 C.2   169  ASP169      0.3671
    151  OD1       39.7740   42.6920   11.7340 O.co2 169  ASP169     -0.2456
    152  OD2       38.2350   42.2840   10.2310 O.co2 169  ASP169     -0.2456
@<TRIPOS>BOND
     1    21    22   ar
     2    21    19   ar
     3    22    20   ar
     4    19    18   ar
     5    20    18   ar
     6    18    17    1
     7    17    14    1
     8    10     9    1
     9    10    11    1
    10    13    11   am
    11    13    14    1
    12     9     3   am
    13     1     2    1
    14    11    12    2
    15    14    15    1
    16    27    28    1
    17    30    29    2
    18    16    15    2
    19    15    23   am
    20    37    36    2
    21     3     2    1
    22     3     4    2
    23    29    28    1
    24     2     5    1
    25    28    31    1
    26    23    24    1
    27    34    35    1
    28    36    35    1
    29    25    24    1
    30    25    26    2
    31     5     6    1
    32    35    38    1
    33    38    39    1
    34    41    40   ar
    35    31    33    1
    36    31    32    1
    37     6     8    1
    38     6     7    1
    39    50    51    2
    40    50    49    1
    41    40    39    1
    42    40    42   ar
    43    49    48    1
    44    49    52    1
    45    53    52    1
    46    53    54    1
    47    45    44    1
    48    45    46    2
    49    55    54    1
    50    55    56    1
    51    44    47    1
    52    44    43    1
    53    87    86    1
    54    88    86    1
    55   112   111   ar
    56    86    85    1
    57   111   113   ar
    58   111   110    1
    59    85    82    1
    60    64    65    1
    61   121   120    1
    62   121   122    2
    63   100    99    2
    64   103   102    1
    65   103   104    1
    66   152   150   ar
    67   120   119    1
    68   110   107    1
    69    70    69    1
    70   106   104   am
    71   106   107    1
    72   124   122    1
    73    67    66    2
    74   118   119    1
    75   118   115    1
    76    69    68    1
    77    69    71    1
    78   122   123    1
    79    82    81    1
    80    82    83    1
    81    98    99    1
    82    98   101    1
    83    98    97    1
    84    92    91    2
    85   104   105    2
    86    68    65    1
    87   117   116    2
    88    65    66    1
    89   107   108    1
    90   150   151   ar
    91   150   149    1
    92    66    72   am
    93   109   108    2
    94   140   138    1
    95   115   116    1
    96   115   114    1
    97    81    74   am
    98    91    97   am
    99    91    90    1
   100    89    83   am
   101    89    90    1
   102   131   130    2
   103    83    84    2
   104   116   125   am
   105   149   146    1
   106    75    74    2
   107    74    73    1
   108    90    93    1
   109   139   138    1
   110    72    73    1
   111   138   137    1
   112   130   132   am
   113   130   129    1
   114   144   143    2
   115   125   126    1
   116    93    94    1
   117   146   145    1
   118   146   147    1
   119    73    76    1
   120   126   129    1
   121   126   127    1
   122   143   145   am
   123   143   142    1
   124   137   134    1
   125    94    95    1
   126   147   148    2
   127   127   128    2
   128   134   133    1
   129   134   135    1
   130    76    77    1
   131    62    61    1
   132   142   141    1
   133    77    78    1
   134   135   136    2
   135    95    96    1
   136    61    63    1
   137    61    58    1
   138    78    79   ar
   139    78    80   ar
   140    59    58    1
   141    59    60    2
   142    58    57    1
