@<TRIPOS>MOLECULE
tmp/4cccA00.pdb
 139 135 0 0 0
SMALL
GASTEIGER

@<TRIPOS>ATOM
      1  N         77.3000   92.9320   25.8020 N.3    24  GLY24      -0.1225
      2  CA        77.2210   91.7430   24.9760 C.3    24  GLY24       0.1811
      3  C         78.5460   91.0000   24.8460 C.2    24  GLY24       0.2280
      4  O         78.9850   90.7690   23.7190 O.2    24  GLY24      -0.2866
      5  N         78.0500   86.9840   26.1610 N.3    69  THR69      -0.1218
      6  CA        79.1930   86.6190   25.2750 C.3    69  THR69       0.1862
      7  C         80.4890   86.3810   26.0670 C.2    69  THR69       0.2287
      8  O         81.1660   85.3640   25.8700 O.2    69  THR69      -0.2866
      9  CB        79.4260   87.5510   24.0480 C.3    69  THR69       0.1770
     10  OG1       78.3590   87.3730   23.0980 O.3    69  THR69      -0.2211
     11  CG2       80.7450   87.2050   23.3500 C.3    69  THR69       0.0375
     12  N         70.0980   92.1600   25.5240 N.3   111  TRP111     -0.1241
     13  CA        70.5400   90.8780   24.9850 C.3   111  TRP111      0.1605
     14  C         69.7190   89.7730   25.6560 C.2   111  TRP111      0.2264
     15  O         69.1880   88.8850   24.9900 O.2   111  TRP111     -0.2867
     16  CB        72.0280   90.6630   25.3270 C.3   111  TRP111      0.0550
     17  CG        73.0710   91.0480   24.2820 C.ar  111  TRP111      0.0003
     18  CD1       73.8910   90.1940   23.5980 C.ar  111  TRP111      0.0946
     19  CD2       73.4450   92.3800   23.8620 C.ar  111  TRP111      0.0152
     20  NE1       74.7270   90.9090   22.7570 N.ar  111  TRP111     -0.2442
     21  CE2       74.4670   92.2460   22.8980 C.ar  111  TRP111      0.0810
     22  CE3       73.0030   93.6700   24.2050 C.ar  111  TRP111      0.0012
     23  CZ2       75.0620   93.3550   22.2750 C.ar  111  TRP111      0.0191
     24  CZ3       73.5720   94.7610   23.5760 C.ar  111  TRP111      0.0001
     25  CH2       74.5990   94.6000   22.6280 C.ar  111  TRP111      0.0015
     26  N         68.5580   92.0780   20.9030 N.3   157  ASN157     -0.1225
     27  CA        69.7890   91.8770   20.1510 C.3   157  ASN157      0.1785
     28  C         69.9050   90.5480   19.4250 C.2   157  ASN157      0.2597
     29  O         69.8490   89.5000   20.0570 O.2   157  ASN157     -0.2718
     30  CB        71.0070   91.9960   21.0500 C.3   157  ASN157      0.1169
     31  CG        72.2980   91.9120   20.2550 C.2   157  ASN157      0.2627
     32  OD1       72.5930   92.8040   19.4510 O.2   157  ASN157     -0.2716
     33  ND2       73.0460   90.8260   20.4340 N.am  157  ASN157     -0.0877
     34  N         70.0910   90.6010   18.1080 N.am  158  GLU158     -0.1965
     35  CA        70.2960   89.3990   17.2880 C.3   158  GLU158      0.1733
     36  C         69.1820   88.3670   17.4290 C.2   158  GLU158      0.2616
     37  O         69.4050   87.1870   17.1710 O.2   158  GLU158     -0.2715
     38  CB        71.6440   88.7400   17.6230 C.3   158  GLU158      0.0429
     39  CG        72.8940   89.5260   17.1830 C.3   158  GLU158      0.1163
     40  CD        73.2750   89.2380   15.7390 C.2   158  GLU158      0.3649
     41  OE1       72.8110   88.2010   15.2140 O.co2 158  GLU158     -0.2457
     42  OE2       74.0420   90.0340   15.1350 O.co2 158  GLU158     -0.2457
     43  N         67.9810   88.8010   17.8140 N.am  159  ARG159     -0.1977
     44  CA        66.8620   87.8820   18.0600 C.3   159  ARG159      0.1597
     45  C         65.6090   88.4480   17.4180 C.2   159  ARG159      0.2287
     46  O         65.6220   89.6000   16.9830 O.2   159  ARG159     -0.2864
     47  CB        66.6510   87.6980   19.5700 C.3   159  ARG159      0.0334
     48  CG        67.7650   86.9650   20.2760 C.3   159  ARG159      0.0492
     49  CD        67.7880   85.4760   19.9350 C.3   159  ARG159      0.2205
     50  NE        68.9440   84.8530   20.5810 N.pl3 159  ARG159     -0.0865
     51  CZ        70.1890   84.8820   20.1060 C.cat 159  ARG159      0.5346
     52  NH1       70.4660   85.4890   18.9630 N.pl3 159  ARG159      0.1354
     53  NH2       71.1680   84.2870   20.7770 N.pl3 159  ARG159      0.1354
     54  N         76.8700   93.4140   11.0960 N.3   214  TYR214     -0.1241
     55  CA        77.8820   92.8100   10.2150 C.3   214  TYR214      0.1605
     56  C         77.4210   92.7080    8.7640 C.2   214  TYR214      0.2264
     57  O         77.4070   91.6160    8.1880 O.2   214  TYR214     -0.2867
     58  CB        78.2790   91.4310   10.7620 C.3   214  TYR214      0.0534
     59  CG        78.7460   91.5410   12.1950 C.ar  214  TYR214     -0.0201
     60  CD1       80.0650   91.8550   12.4810 C.ar  214  TYR214     -0.0009
     61  CD2       77.8630   91.3890   13.2480 C.ar  214  TYR214     -0.0009
     62  CE1       80.5020   91.9840   13.7780 C.ar  214  TYR214      0.0417
     63  CE2       78.2910   91.5230   14.5730 C.ar  214  TYR214      0.0417
     64  CZ        79.6170   91.8230   14.8200 C.ar  214  TYR214      0.1957
     65  OH        80.0880   91.9700   16.1060 O.3   214  TYR214     -0.2866
     66  N         76.1280   97.0840   14.7260 N.3   234  GLU234     -0.1245
     67  CA        77.1810   96.2760   15.3310 C.3   234  GLU234      0.1567
     68  C         78.0770   95.7050   14.2420 C.2   234  GLU234      0.2260
     69  O         77.6100   94.9950   13.3450 O.2   234  GLU234     -0.2867
     70  CB        76.6310   95.1400   16.1980 C.3   234  GLU234      0.0388
     71  CG        77.7070   94.5990   17.1460 C.3   234  GLU234      0.1160
     72  CD        77.2970   93.3470   17.8860 C.2   234  GLU234      0.3649
     73  OE1       76.2620   93.3710   18.5780 O.co2 234  GLU234     -0.2457
     74  OE2       78.0210   92.3350   17.7840 O.co2 234  GLU234     -0.2457
     75  N         84.2800   93.4140   15.6910 N.3   237  SER237     -0.1217
     76  CA        84.4760   92.1220   16.3730 C.3   237  SER237      0.1889
     77  C         85.7600   91.3960   15.9140 C.2   237  SER237      0.2288
     78  O         85.8110   90.1610   15.8600 O.2   237  SER237     -0.2866
     79  CB        83.2450   91.2210   16.1860 C.3   237  SER237      0.2089
     80  OG        83.3980   89.9840   16.8620 O.3   237  SER237     -0.2183
     81  N         81.6710   96.4650   17.9390 N.3   267  TRP267     -0.1241
     82  CA        81.7720   95.5950   19.1070 C.3   267  TRP267      0.1605
     83  C         83.2200   95.1280   19.1500 C.2   267  TRP267      0.2264
     84  O         83.6570   94.4640   18.2080 O.2   267  TRP267     -0.2867
     85  CB        80.8840   94.3740   18.9730 C.3   267  TRP267      0.0550
     86  CG        80.8310   93.5720   20.2530 C.ar  267  TRP267      0.0003
     87  CD1       80.0030   93.7850   21.3130 C.ar  267  TRP267      0.0946
     88  CD2       81.6490   92.4420   20.6050 C.ar  267  TRP267      0.0152
     89  NE1       80.2430   92.8550   22.3010 N.ar  267  TRP267     -0.2442
     90  CE2       81.2530   92.0250   21.8910 C.ar  267  TRP267      0.0810
     91  CE3       82.6760   91.7460   19.9500 C.ar  267  TRP267      0.0012
     92  CZ2       81.8530   90.9330   22.5450 C.ar  267  TRP267      0.0191
     93  CZ3       83.2770   90.6740   20.6020 C.ar  267  TRP267      0.0001
     94  CH2       82.8590   90.2760   21.8870 C.ar  267  TRP267      0.0015
     95  N         86.2310   85.4950   21.6850 N.3   279  TYR279     -0.1241
     96  CA        86.5690   86.7180   20.9580 C.3   279  TYR279      0.1605
     97  C         87.5230   87.6290   21.7420 C.2   279  TYR279      0.2264
     98  O         87.4000   88.8580   21.7020 O.2   279  TYR279     -0.2867
     99  CB        85.3000   87.4840   20.5400 C.3   279  TYR279      0.0534
    100  CG        84.3400   86.6980   19.6680 C.ar  279  TYR279     -0.0201
    101  CD1       84.5070   86.6560   18.2870 C.ar  279  TYR279     -0.0009
    102  CD2       83.2590   86.0120   20.2210 C.ar  279  TYR279     -0.0009
    103  CE1       83.6320   85.9550   17.4820 C.ar  279  TYR279      0.0417
    104  CE2       82.3730   85.3030   19.4190 C.ar  279  TYR279      0.0417
    105  CZ        82.5730   85.2780   18.0470 C.ar  279  TYR279      0.1957
    106  OH        81.7140   84.5800   17.2230 O.3   279  TYR279     -0.2866
    107  N         83.7510   88.7050    9.8280 N.3   356  ARG356     -0.1245
    108  CA        82.3500   88.5410    9.4090 C.3   356  ARG356      0.1563
    109  C         81.8600   89.7390    8.5800 C.2   356  ARG356      0.2260
    110  O         81.6740   90.8300    9.1160 O.2   356  ARG356     -0.2867
    111  CB        81.4610   88.3540   10.6500 C.3   356  ARG356      0.0307
    112  CG        80.0160   87.9930   10.3360 C.3   356  ARG356      0.0489
    113  CD        79.1630   87.8260   11.5990 C.3   356  ARG356      0.2205
    114  NE        79.7390   86.9030   12.5740 N.pl3 356  ARG356     -0.0865
    115  CZ        80.2260   87.2760   13.7560 C.cat 356  ARG356      0.5346
    116  NH1       80.2080   88.5530   14.1110 N.pl3 356  ARG356      0.1354
    117  NH2       80.7290   86.3770   14.5930 N.pl3 356  ARG356      0.1354
    118  N         70.0050   84.5440   26.2060 N.3   496  TRP496     -0.1241
    119  CA        70.3870   84.9280   24.8620 C.3   496  TRP496      0.1605
    120  C         71.3130   83.8220   24.3700 C.2   496  TRP496      0.2264
    121  O         71.1940   83.3320   23.2520 O.2   496  TRP496     -0.2867
    122  CB        71.1640   86.2560   24.8960 C.3   496  TRP496      0.0550
    123  CG        71.6120   86.7270   23.5350 C.ar  496  TRP496      0.0003
    124  CD1       70.8470   87.3740   22.5990 C.ar  496  TRP496      0.0946
    125  CD2       72.9220   86.5890   22.9560 C.ar  496  TRP496      0.0152
    126  NE1       71.6010   87.6460   21.4880 N.ar  496  TRP496     -0.2442
    127  CE2       72.8750   87.1730   21.6730 C.ar  496  TRP496      0.0810
    128  CE3       74.1220   86.0320   23.3990 C.ar  496  TRP496      0.0012
    129  CZ2       73.9940   87.2180   20.8230 C.ar  496  TRP496      0.0191
    130  CZ3       75.2410   86.0710   22.5430 C.ar  496  TRP496      0.0001
    131  CH2       75.1660   86.6620   21.2820 C.ar  496  TRP496      0.0015
    132  N         80.1270   82.4250   25.8980 N.3   542  ILE542     -0.1245
    133  CA        79.0900   81.6690   25.2090 C.3   542  ILE542      0.1561
    134  C         79.3680   80.1670   25.2500 C.2   542  ILE542      0.2260
    135  O         78.4730   79.3770   25.0060 O.2   542  ILE542     -0.2867
    136  CB        78.8830   82.1180   23.7630 C.3   542  ILE542      0.0252
    137  CG1       80.2170   82.4750   23.1160 C.3   542  ILE542      0.0019
    138  CG2       77.9220   83.3060   23.6900 C.3   542  ILE542      0.0019
    139  CD1       80.0650   82.8490   21.6780 C.3   542  ILE542      0.0001
@<TRIPOS>BOND
     1    57    56    2
     2   109   110    2
     3   109   108    1
     4    56    55    1
     5   108   107    1
     6   108   111    1
     7    55    58    1
     8    55    54    1
     9   112   111    1
    10   112   113    1
    11    58    59    1
    12   113   114    1
    13    59    60   ar
    14    59    61   ar
    15    60    62   ar
    16   114   115    2
    17    61    63   ar
    18    69    68    2
    19   115   116    1
    20   115   117    1
    21    62    64   ar
    22    68    67    1
    23    63    64   ar
    24    66    67    1
    25    64    65    1
    26    42    40   ar
    27    41    40   ar
    28    67    70    1
    29    75    76    1
    30    40    39    1
    31    78    77    2
    32    77    76    1
    33    79    76    1
    34    79    80    1
    35    70    71    1
    36    46    45    2
    37    71    72    1
    38    37    36    2
    39    39    38    1
    40   106   105    1
    41    35    36    1
    42    35    38    1
    43    35    34    1
    44    45    44    1
    45    36    43   am
    46   103   105   ar
    47   103   101   ar
    48    74    72   ar
    49    43    44    1
    50    72    73   ar
    51    81    82    1
    52   105   104   ar
    53    44    47    1
    54    34    28   am
    55    84    83    2
    56   101   100   ar
    57    52    51    1
    58    85    82    1
    59    85    86    1
    60    82    83    1
    61   104   102   ar
    62    28    29    2
    63    28    27    1
    64    32    31    2
    65    47    48    1
    66   100   102   ar
    67   100    99    1
    68    49    48    1
    69    49    50    1
    70    91    93   ar
    71    91    88   ar
    72    51    50    2
    73    51    53    1
    74    27    26    1
    75    27    30    1
    76    86    88   ar
    77    86    87   ar
    78    31    33   am
    79    31    30    1
    80    99    96    1
    81    93    94   ar
    82    88    90   ar
    83   129   131   ar
    84   129   127   ar
    85    96    95    1
    86    96    97    1
    87   131   130   ar
    88    87    89   ar
    89   126   127   ar
    90   126   124   ar
    91   127   125   ar
    92   139   137    1
    93    98    97    2
    94    94    92   ar
    95    90    89   ar
    96    90    92   ar
    97    23    25   ar
    98    23    21   ar
    99   130   128   ar
   100   124   123   ar
   101    25    24   ar
   102    20    21   ar
   103    20    18   ar
   104    21    19   ar
   105   125   128   ar
   106   125   123   ar
   107    10     9    1
   108   137   136    1
   109   121   120    2
   110    11     9    1
   111   123   122    1
   112    24    22   ar
   113    18    17   ar
   114   138   136    1
   115     4     3    2
   116   136   133    1
   117    19    22   ar
   118    19    17   ar
   119     9     6    1
   120    17    16    1
   121   120   119    1
   122     3     2    1
   123   119   122    1
   124   119   118    1
   125     2     1    1
   126    13    16    1
   127    13    12    1
   128    13    14    1
   129    15    14    2
   130   135   134    2
   131   133   134    1
   132   133   132    1
   133     6     7    1
   134     6     5    1
   135     8     7    2
