@<TRIPOS>MOLECULE
tmp/4ccdA00.pdb
 136 132 0 0 0
SMALL
GASTEIGER

@<TRIPOS>ATOM
      1  N         77.2540   92.7090   25.9420 N.3    24  GLY24      -0.1225
      2  CA        77.2090   91.4790   25.1760 C.3    24  GLY24       0.1811
      3  C         78.5420   90.7430   25.0900 C.2    24  GLY24       0.2280
      4  O         79.0740   90.5620   23.9910 O.2    24  GLY24      -0.2866
      5  N         77.9370   86.8160   26.1100 N.3    69  THR69      -0.1218
      6  CA        79.0770   86.4380   25.2250 C.3    69  THR69       0.1862
      7  C         80.3910   86.2090   25.9960 C.2    69  THR69       0.2287
      8  O         81.1040   85.2290   25.7440 O.2    69  THR69      -0.2866
      9  CB        79.2960   87.3470   23.9770 C.3    69  THR69       0.1770
     10  OG1       78.1830   87.2020   23.0730 O.3    69  THR69      -0.2211
     11  CG2       80.5800   86.9340   23.2350 C.3    69  THR69       0.0375
     12  N         70.0180   92.0080   25.5280 N.3   111  TRP111     -0.1241
     13  CA        70.3550   90.6990   24.9430 C.3   111  TRP111      0.1605
     14  C         69.5220   89.6030   25.6350 C.2   111  TRP111      0.2264
     15  O         68.9290   88.7450   24.9810 O.2   111  TRP111     -0.2867
     16  CB        71.8260   90.3720   25.2100 C.3   111  TRP111      0.0550
     17  CG        72.9210   90.7850   24.2250 C.ar  111  TRP111      0.0003
     18  CD1       73.7930   89.9370   23.5900 C.ar  111  TRP111      0.0946
     19  CD2       73.3420   92.1250   23.8600 C.ar  111  TRP111      0.0152
     20  NE1       74.7030   90.6570   22.8430 N.ar  111  TRP111     -0.2442
     21  CE2       74.4460   91.9950   22.9860 C.ar  111  TRP111      0.0810
     22  CE3       72.8860   93.4110   24.1820 C.ar  111  TRP111      0.0012
     23  CZ2       75.1050   93.1130   22.4250 C.ar  111  TRP111      0.0191
     24  CZ3       73.5270   94.5100   23.6300 C.ar  111  TRP111      0.0001
     25  CH2       74.6270   94.3580   22.7570 C.ar  111  TRP111      0.0015
     26  N         68.4870   91.8790   20.9660 N.3   157  ASN157     -0.1225
     27  CA        69.7000   91.6630   20.1560 C.3   157  ASN157      0.1785
     28  C         69.7690   90.3540   19.3780 C.2   157  ASN157      0.2597
     29  O         69.7800   89.2780   19.9760 O.2   157  ASN157     -0.2718
     30  CB        70.9600   91.7430   21.0180 C.3   157  ASN157      0.1169
     31  CG        72.2210   91.6570   20.1830 C.2   157  ASN157      0.2627
     32  OD1       72.4710   92.5260   19.3480 O.2   157  ASN157     -0.2716
     33  ND2       73.0020   90.5990   20.3780 N.am  157  ASN157     -0.0877
     34  N         69.8270   90.4460   18.0450 N.am  158  GLU158     -0.1979
     35  CA        69.9470   89.2700   17.1690 C.3   158  GLU158      0.1602
     36  C         68.8860   88.1970   17.3940 C.2   158  GLU158      0.2287
     37  O         69.1430   87.0070   17.1870 O.2   158  GLU158     -0.2864
     38  CB        71.3720   88.6820   17.2410 C.3   158  GLU158      0.0415
     39  CG        72.4220   89.7310   16.8160 C.3   158  GLU158      0.1163
     40  CD        73.8480   89.2050   16.6920 C.2   158  GLU158      0.3649
     41  OE1       74.1680   88.1300   17.2620 O.co2 158  GLU158     -0.2457
     42  OE2       74.6580   89.8890   16.0200 O.co2 158  GLU158     -0.2457
     43  N         76.7450   93.0430   11.0150 N.3   214  TYR214     -0.1241
     44  CA        77.7320   92.4450   10.1110 C.3   214  TYR214      0.1605
     45  C         77.2810   92.4180    8.6520 C.2   214  TYR214      0.2264
     46  O         77.2490   91.3530    8.0240 O.2   214  TYR214     -0.2867
     47  CB        78.1160   91.0450   10.6090 C.3   214  TYR214      0.0534
     48  CG        78.6210   91.0950   12.0440 C.ar  214  TYR214     -0.0201
     49  CD1       79.8950   91.5610   12.3340 C.ar  214  TYR214     -0.0009
     50  CD2       77.8060   90.7040   13.1040 C.ar  214  TYR214     -0.0009
     51  CE1       80.3540   91.6280   13.6510 C.ar  214  TYR214      0.0417
     52  CE2       78.2590   90.7630   14.4250 C.ar  214  TYR214      0.0417
     53  CZ        79.5270   91.2310   14.6850 C.ar  214  TYR214      0.1957
     54  OH        79.9830   91.2950   15.9890 O.3   214  TYR214     -0.2866
     55  N         76.0790   96.6780   14.7540 N.3   234  GLU234     -0.1245
     56  CA        77.0940   95.7890   15.3390 C.3   234  GLU234      0.1567
     57  C         78.0150   95.3190   14.2210 C.2   234  GLU234      0.2260
     58  O         77.5600   94.6600   13.2900 O.2   234  GLU234     -0.2867
     59  CB        76.4820   94.5640   16.0600 C.3   234  GLU234      0.0388
     60  CG        77.5210   93.8010   16.9260 C.3   234  GLU234      0.1160
     61  CD        76.9760   92.5790   17.6470 C.2   234  GLU234      0.3649
     62  OE1       75.7610   92.5400   17.9620 O.co2 234  GLU234     -0.2457
     63  OE2       77.7730   91.6370   17.9090 O.co2 234  GLU234     -0.2457
     64  N         84.3480   93.1900   15.6780 N.3   237  SER237     -0.1217
     65  CA        84.4520   91.8860   16.3500 C.3   237  SER237      0.1889
     66  C         85.6920   91.0780   15.9100 C.2   237  SER237      0.2288
     67  O         85.6640   89.8460   15.8730 O.2   237  SER237     -0.2866
     68  CB        83.1610   91.0770   16.1250 C.3   237  SER237      0.2089
     69  OG        83.1390   89.8650   16.8710 O.3   237  SER237     -0.2183
     70  N         81.5470   96.2270   17.8900 N.3   267  TRP267     -0.1241
     71  CA        81.6280   95.3640   19.0720 C.3   267  TRP267      0.1605
     72  C         83.0770   94.8860   19.1260 C.2   267  TRP267      0.2264
     73  O         83.5310   94.2470   18.1740 O.2   267  TRP267     -0.2867
     74  CB        80.6830   94.1620   18.9590 C.3   267  TRP267      0.0550
     75  CG        80.6680   93.3620   20.2390 C.ar  267  TRP267      0.0003
     76  CD1       79.9220   93.6110   21.3450 C.ar  267  TRP267      0.0946
     77  CD2       81.4740   92.2150   20.5440 C.ar  267  TRP267      0.0152
     78  NE1       80.1910   92.6760   22.3220 N.ar  267  TRP267     -0.2442
     79  CE2       81.1500   91.8130   21.8550 C.ar  267  TRP267      0.0810
     80  CE3       82.4290   91.4800   19.8260 C.ar  267  TRP267      0.0012
     81  CZ2       81.7530   90.7040   22.4710 C.ar  267  TRP267      0.0191
     82  CZ3       83.0310   90.3920   20.4360 C.ar  267  TRP267      0.0001
     83  CH2       82.6940   90.0130   21.7480 C.ar  267  TRP267      0.0015
     84  N         86.1710   85.4190   21.6010 N.3   279  TYR279     -0.1241
     85  CA        86.5260   86.6470   20.8910 C.3   279  TYR279      0.1605
     86  C         87.4970   87.5380   21.6740 C.2   279  TYR279      0.2264
     87  O         87.4160   88.7700   21.6030 O.2   279  TYR279     -0.2867
     88  CB        85.2710   87.4400   20.4720 C.3   279  TYR279      0.0534
     89  CG        84.2560   86.6470   19.6710 C.ar  279  TYR279     -0.0201
     90  CD1       84.4380   86.4190   18.3110 C.ar  279  TYR279     -0.0009
     91  CD2       83.1110   86.1370   20.2700 C.ar  279  TYR279     -0.0009
     92  CE1       83.5110   85.7000   17.5720 C.ar  279  TYR279      0.0417
     93  CE2       82.1650   85.4100   19.5300 C.ar  279  TYR279      0.0417
     94  CZ        82.3790   85.2010   18.1830 C.ar  279  TYR279      0.1957
     95  OH        81.4690   84.4880   17.4340 O.3   279  TYR279     -0.2866
     96  N         86.0720   89.1460   10.6990 N.3   355  ILE355     -0.1231
     97  CA        85.6640   87.7650   10.8780 C.3   355  ILE355      0.1692
     98  C         84.3380   87.4710   10.1690 C.2   355  ILE355      0.2591
     99  O         84.0790   86.3280    9.8030 O.2   355  ILE355     -0.2718
    100  CB        85.5790   87.3690   12.3580 C.3   355  ILE355      0.0266
    101  CG1       84.5700   88.2480   13.0910 C.3   355  ILE355      0.0019
    102  CG2       86.9500   87.4780   13.0030 C.3   355  ILE355      0.0020
    103  CD1       84.0090   87.5970   14.3460 C.3   355  ILE355      0.0001
    104  N         83.5120   88.5020    9.9740 N.am  356  ARG356     -0.1980
    105  CA        82.1840   88.3570    9.3530 C.3   356  ARG356      0.1597
    106  C         81.8390   89.5640    8.4760 C.2   356  ARG356      0.2287
    107  O         81.7360   90.6830    8.9710 O.2   356  ARG356     -0.2864
    108  CB        81.0920   88.1970   10.4240 C.3   356  ARG356      0.0334
    109  CG        81.2570   87.0120   11.3620 C.3   356  ARG356      0.0492
    110  CD        80.1320   86.9320   12.3960 C.3   356  ARG356      0.2205
    111  NE        78.8310   87.1290   11.7580 N.pl3 356  ARG356     -0.0865
    112  CZ        77.6600   87.1170   12.3900 C.cat 356  ARG356      0.5346
    113  NH1       77.6040   86.9070   13.6990 N.pl3 356  ARG356      0.1354
    114  NH2       76.5360   87.3050   11.7040 N.pl3 356  ARG356      0.1354
    115  N         69.8690   84.4060   26.1400 N.3   496  TRP496     -0.1241
    116  CA        70.3030   84.7980   24.8070 C.3   496  TRP496      0.1605
    117  C         71.2620   83.7090   24.3350 C.2   496  TRP496      0.2264
    118  O         71.1020   83.1500   23.2600 O.2   496  TRP496     -0.2867
    119  CB        71.0400   86.1590   24.8630 C.3   496  TRP496      0.0550
    120  CG        71.5030   86.6390   23.4930 C.ar  496  TRP496      0.0003
    121  CD1       70.7350   87.2460   22.5330 C.ar  496  TRP496      0.0946
    122  CD2       72.8260   86.5460   22.9480 C.ar  496  TRP496      0.0152
    123  NE1       71.5050   87.5300   21.4190 N.ar  496  TRP496     -0.2442
    124  CE2       72.7920   87.1160   21.6520 C.ar  496  TRP496      0.0810
    125  CE3       74.0390   86.0470   23.4330 C.ar  496  TRP496      0.0012
    126  CZ2       73.9300   87.1870   20.8300 C.ar  496  TRP496      0.0191
    127  CZ3       75.1670   86.1180   22.6310 C.ar  496  TRP496      0.0001
    128  CH2       75.1090   86.6870   21.3350 C.ar  496  TRP496      0.0015
    129  N         80.0990   82.4920   25.8400 N.3   542  ILE542     -0.1245
    130  CA        79.0710   81.8720   25.0350 C.3   542  ILE542      0.1561
    131  C         79.2040   80.3410   25.0630 C.2   542  ILE542      0.2260
    132  O         78.2280   79.6280   24.8520 O.2   542  ILE542     -0.2867
    133  CB        79.0660   82.4770   23.6150 C.3   542  ILE542      0.0252
    134  CG1       77.6850   82.3600   22.9840 C.3   542  ILE542      0.0019
    135  CG2       80.1540   81.8680   22.7450 C.3   542  ILE542      0.0019
    136  CD1       77.5400   83.1880   21.7320 C.3   542  ILE542      0.0001
@<TRIPOS>BOND
     1    46    45    2
     2   106   107    2
     3   106   105    1
     4    45    44    1
     5   105   104    1
     6   105   108    1
     7    99    98    2
     8   104    98   am
     9    44    47    1
    10    44    43    1
    11    98    97    1
    12   108   109    1
    13    47    48    1
    14    96    97    1
    15    97   100    1
    16   109   110    1
    17   114   112    1
    18   111   112    2
    19   111   110    1
    20    48    49   ar
    21    48    50   ar
    22    49    51   ar
    23   100   102    1
    24   100   101    1
    25   112   113    1
    26   101   103    1
    27    50    52   ar
    28    58    57    2
    29    51    53   ar
    30    57    56    1
    31    52    53   ar
    32    53    54    1
    33    55    56    1
    34    56    59    1
    35    64    65    1
    36    67    66    2
    37    66    65    1
    38    42    40   ar
    39    59    60    1
    40    68    65    1
    41    68    69    1
    42    40    39    1
    43    40    41   ar
    44    39    38    1
    45    60    61    1
    46    35    38    1
    47    35    36    1
    48    35    34    1
    49    37    36    2
    50    95    94    1
    51    92    94   ar
    52    92    90   ar
    53    61    63   ar
    54    61    62   ar
    55    70    71    1
    56    34    28   am
    57    73    72    2
    58    94    93   ar
    59    90    89   ar
    60    74    71    1
    61    74    75    1
    62    71    72    1
    63    32    31    2
    64    28    29    2
    65    28    27    1
    66    93    91   ar
    67    89    91   ar
    68    89    88    1
    69    80    82   ar
    70    80    77   ar
    71    27    26    1
    72    27    30    1
    73    31    33   am
    74    31    30    1
    75    75    77   ar
    76    75    76   ar
    77    82    83   ar
    78    88    85    1
    79    77    79   ar
    80   126   128   ar
    81   126   124   ar
    82    85    84    1
    83    85    86    1
    84   128   127   ar
    85    76    78   ar
    86   123   124   ar
    87   123   121   ar
    88    87    86    2
    89   124   122   ar
    90   136   134    1
    91    83    81   ar
    92    79    78   ar
    93    79    81   ar
    94    23    25   ar
    95    23    21   ar
    96   121   120   ar
    97   127   125   ar
    98   135   133    1
    99    25    24   ar
   100    20    21   ar
   101    20    18   ar
   102   122   125   ar
   103   122   120   ar
   104   134   133    1
   105    21    19   ar
   106    10     9    1
   107    11     9    1
   108   118   117    2
   109   120   119    1
   110    18    17   ar
   111   133   130    1
   112    24    22   ar
   113    19    22   ar
   114    19    17   ar
   115     9     6    1
   116     4     3    2
   117    17    16    1
   118   117   116    1
   119   116   119    1
   120   116   115    1
   121   132   131    2
   122    13    16    1
   123    13    12    1
   124    13    14    1
   125    15    14    2
   126   130   131    1
   127   130   129    1
   128     3     2    1
   129     2     1    1
   130     6     7    1
   131     6     5    1
   132     8     7    2
