@<TRIPOS>MOLECULE
tmp/4ccuA00.pdb
 167 156 0 0 0
SMALL
GASTEIGER

@<TRIPOS>ATOM
      1  N         28.7810   46.3640    0.8150 N.3    30  LEU30      -0.1231
      2  CA        29.1250   47.3010    1.8770 C.3    30  LEU30       0.1693
      3  C         30.5660   47.7670    1.7140 C.2    30  LEU30       0.2593
      4  O         30.9130   48.8830    2.0960 O.2    30  LEU30      -0.2718
      5  CB        28.9440   46.6430    3.2500 C.3    30  LEU30       0.0284
      6  CG        27.5610   46.7360    3.9020 C.3    30  LEU30       0.0019
      7  CD1       26.4930   46.2900    2.9230 C.3    30  LEU30       0.0001
      8  CD2       27.5290   45.8770    5.1590 C.3    30  LEU30       0.0001
      9  N         31.3990   46.9040    1.1420 N.am   31  GLY31      -0.1942
     10  CA        32.7880   47.2580    0.9120 C.3    31  GLY31       0.2014
     11  C         33.6800   46.0400    0.7740 C.2    31  GLY31       0.2638
     12  O         33.4240   45.0010    1.3840 O.2    31  GLY31      -0.2714
     13  N         34.7300   46.1650   -0.0320 N.am   32  HIS32      -0.1973
     14  CA        35.6700   45.0700   -0.2430 C.3    32  HIS32       0.1656
     15  C         37.0680   45.4360    0.2350 C.2    32  HIS32       0.2291
     16  O         37.3730   45.3150    1.4210 O.2    32  HIS32      -0.2864
     17  CB        35.7120   44.6790   -1.7250 C.3    32  HIS32       0.0771
     18  CG        35.7840   45.8460   -2.6620 C.ar   32  HIS32       0.0820
     19  ND1       34.7240   46.7040   -2.8670 N.ar   32  HIS32      -0.2267
     20  CD2       36.7810   46.2820   -3.4700 C.ar   32  HIS32       0.1154
     21  CE1       35.0630   47.6160   -3.7610 C.ar   32  HIS32       0.1986
     22  NE2       36.3060   47.3830   -4.1430 N.ar   32  HIS32      -0.2212
     23  N         32.0840   42.2870    1.3820 N.3    35  VAL35      -0.1245
     24  CA        31.0790   42.1470    2.4180 C.3    35  VAL35       0.1561
     25  C         29.7700   42.7130    1.8900 C.2    35  VAL35       0.2260
     26  O         29.7500   43.7870    1.2810 O.2    35  VAL35      -0.2867
     27  CB        31.4820   42.9180    3.6920 C.3    35  VAL35       0.0252
     28  CG1       30.4390   42.7140    4.7700 C.3    35  VAL35       0.0019
     29  CG2       32.8520   42.4550    4.1730 C.3    35  VAL35       0.0019
     30  N         25.3900   43.3940    2.6550 N.3    37  GLU37      -0.1245
     31  CA        24.2460   43.3520    3.5510 C.3    37  GLU37       0.1567
     32  C         23.3350   42.2380    3.0580 C.2    37  GLU37       0.2260
     33  O         23.1050   42.1040    1.8560 O.2    37  GLU37      -0.2867
     34  CB        23.4830   44.6790    3.5320 C.3    37  GLU37       0.0388
     35  CG        22.2210   44.6470    4.3790 C.3    37  GLU37       0.1160
     36  CD        21.3890   45.9110    4.2670 C.2    37  GLU37       0.3649
     37  OE1       21.9500   46.9710    3.9130 O.co2  37  GLU37      -0.2457
     38  OE2       20.1700   45.8410    4.5380 O.co2  37  GLU37      -0.2457
     39  N         25.2310   40.9510    8.0230 N.3    45  ALA45      -0.1245
     40  CA        26.3580   41.3110    7.1820 C.3    45  ALA45       0.1562
     41  C         27.0180   40.0200    6.7180 C.2    45  ALA45       0.2260
     42  O         27.2900   39.1240    7.5230 O.2    45  ALA45      -0.2867
     43  CB        27.3440   42.1580    7.9640 C.3    45  ALA45       0.0290
     44  N         30.1190   38.2210    5.1110 N.3    47  LYS47      -0.1245
     45  CA        31.5330   38.2520    4.7760 C.3    47  LYS47       0.1561
     46  C         31.8010   37.0560    3.8660 C.2    47  LYS47       0.2260
     47  O         31.4650   35.9200    4.2080 O.2    47  LYS47      -0.2867
     48  CB        32.3540   38.1590    6.0650 C.3    47  LYS47       0.0271
     49  CG        33.8360   38.3290    5.8930 C.3    47  LYS47       0.0035
     50  CD        34.5190   38.4470    7.2460 C.3    47  LYS47       0.0206
     51  CE        35.8710   39.1200    7.1020 C.3    47  LYS47       0.1093
     52  NZ        35.7550   40.3260    6.2370 N.3    47  LYS47      -0.1314
     53  N         30.6630   41.7480   18.1930 N.3    77  VAL77      -0.1245
     54  CA        29.6480   41.4780   17.1810 C.3    77  VAL77       0.1561
     55  C         29.2900   39.9920   17.1710 C.2    77  VAL77       0.2260
     56  O         30.1630   39.1340   17.3100 O.2    77  VAL77      -0.2867
     57  CB        30.1450   41.8990   15.7770 C.3    77  VAL77       0.0252
     58  CG1       31.3320   41.0370   15.3570 C.3    77  VAL77       0.0019
     59  CG2       29.0150   41.7970   14.7720 C.3    77  VAL77       0.0019
     60  N         27.3620   37.7270    9.9820 N.3    93  LEU93      -0.1231
     61  CA        27.4790   38.5250   11.2010 C.3    93  LEU93       0.1693
     62  C         26.2320   39.3750   11.4750 C.2    93  LEU93       0.2592
     63  O         25.5010   39.7530   10.5580 O.2    93  LEU93      -0.2718
     64  CB        28.7070   39.4440   11.1090 C.3    93  LEU93       0.0284
     65  CG        30.0570   38.7960   10.7640 C.3    93  LEU93       0.0019
     66  CD1       31.1140   39.8750   10.6020 C.3    93  LEU93       0.0001
     67  CD2       30.4660   37.8210   11.8650 C.3    93  LEU93       0.0001
     68  N         26.0100   39.6780   12.7480 N.am   94  GLU94      -0.1966
     69  CA        25.0600   40.7060   13.1660 C.3    94  GLU94       0.1733
     70  C         25.2670   41.9840   12.3330 C.2    94  GLU94       0.2616
     71  O         26.3820   42.5010   12.2470 O.2    94  GLU94      -0.2715
     72  CB        25.2980   40.9910   14.6540 C.3    94  GLU94       0.0429
     73  CG        24.5010   42.1200   15.2590 C.3    94  GLU94       0.1163
     74  CD        24.9410   42.4310   16.6890 C.2    94  GLU94       0.3649
     75  OE1       26.0040   41.9340   17.1270 O.co2  94  GLU94      -0.2457
     76  OE2       24.2220   43.1780   17.3820 O.co2  94  GLU94      -0.2457
     77  N         24.2000   42.4880   11.7160 N.am   95  LEU95      -0.1963
     78  CA        24.3130   43.6820   10.8830 C.3    95  LEU95       0.1728
     79  C         24.2610   44.9170   11.7660 C.2    95  LEU95       0.2616
     80  O         23.2470   45.1980   12.3960 O.2    95  LEU95      -0.2715
     81  CB        23.1790   43.7540    9.8530 C.3    95  LEU95       0.0311
     82  CG        23.2250   44.9890    8.9390 C.3    95  LEU95       0.0022
     83  CD1       24.3280   44.8180    7.9040 C.3    95  LEU95       0.0001
     84  CD2       21.8770   45.1870    8.2500 C.3    95  LEU95       0.0001
     85  N         25.3660   45.6480   11.8140 N.am   96  MET96      -0.1963
     86  CA        25.4570   46.8280   12.6570 C.3    96  MET96       0.1736
     87  C         25.1260   48.0550   11.8240 C.2    96  MET96       0.2616
     88  O         25.9660   48.5580   11.0850 O.2    96  MET96      -0.2715
     89  CB        26.8670   46.9310   13.2360 C.3    96  MET96       0.0427
     90  CG        27.2580   45.7120   14.0700 C.3    96  MET96       0.0599
     91  SD        26.5030   45.7450   15.7140 S.3    96  MET96      -0.1393
     92  CE        24.7620   45.5720   15.3500 C.3    96  MET96       0.0692
     93  N         23.8930   48.5290   11.9500 N.am   97  ALA97      -0.1963
     94  CA        23.3610   49.5240   11.0270 C.3    97  ALA97       0.1728
     95  C         24.0940   50.8570   11.1380 C.2    97  ALA97       0.2617
     96  O         24.0210   51.6900   10.2340 O.2    97  ALA97      -0.2715
     97  CB        21.8660   49.7200   11.2800 C.3    97  ALA97       0.0334
     98  N         24.7970   51.0600   12.2480 N.am   98  GLY98      -0.1940
     99  CA        25.5490   52.2910   12.4220 C.3    98  GLY98       0.2014
    100  C         26.8510   52.3270   11.6410 C.2    98  GLY98       0.2639
    101  O         27.5100   53.3680   11.5690 O.2    98  GLY98      -0.2714
    102  N         27.2340   51.1980   11.0500 N.am   99  GLY99      -0.1939
    103  CA        28.4690   51.1670   10.2900 C.3    99  GLY99       0.2014
    104  C         29.6970   51.1750   11.1850 C.2    99  GLY99       0.2638
    105  O         29.5890   51.0050   12.3980 O.2    99  GLY99      -0.2714
    106  N         30.8710   51.3660   10.5910 N.am  100  ASP100     -0.1971
    107  CA        32.1100   51.3170   11.3560 C.3   100  ASP100      0.1709
    108  C         32.3270   52.6330   12.0960 C.2   100  ASP100      0.2293
    109  O         31.7980   53.6740   11.7000 O.2   100  ASP100     -0.2864
    110  CB        33.3020   51.0220   10.4350 C.3   100  ASP100      0.1436
    111  CG        33.6900   52.2130    9.5820 C.2   100  ASP100      0.3671
    112  OD1       32.9350   52.5400    8.6430 O.co2 100  ASP100     -0.2456
    113  OD2       34.7500   52.8210    9.8510 O.co2 100  ASP100     -0.2456
    114  N         34.2320   55.7780   10.1710 N.3   103  SER103     -0.1217
    115  CA        33.3570   56.4830    9.2320 C.3   103  SER103      0.1889
    116  C         32.3040   57.2890    9.9790 C.2   103  SER103      0.2288
    117  O         32.0060   58.4260    9.6130 O.2   103  SER103     -0.2866
    118  CB        32.6520   55.4940    8.3000 C.3   103  SER103      0.2089
    119  OG        33.5840   54.8050    7.4910 O.3   103  SER103     -0.2183
    120  N         31.7660   61.2110    9.5720 N.3   107  GLU107     -0.1245
    121  CA        30.5110   61.6950    9.0010 C.3   107  GLU107      0.1567
    122  C         29.6320   62.4440    9.9980 C.2   107  GLU107      0.2260
    123  O         28.7240   63.1730    9.6020 O.2   107  GLU107     -0.2867
    124  CB        29.7130   60.5280    8.4140 C.3   107  GLU107      0.0388
    125  CG        30.4110   59.8060    7.2730 C.3   107  GLU107      0.1160
    126  CD        29.5820   58.6610    6.7180 C.2   107  GLU107      0.3649
    127  OE1       28.4300   58.4880    7.1720 O.co2 107  GLU107     -0.2457
    128  OE2       30.0810   57.9330    5.8300 O.co2 107  GLU107     -0.2457
    129  N         38.7340   51.5520   13.0240 N.3   150  ARG150     -0.1231
    130  CA        38.2850   50.9140   11.7820 C.3   150  ARG150      0.1694
    131  C         37.7310   49.5170   12.0680 C.2   150  ARG150      0.2592
    132  O         37.0180   48.9360   11.2430 O.2   150  ARG150     -0.2718
    133  CB        39.4480   50.8110   10.7820 C.3   150  ARG150      0.0321
    134  CG        40.5510   49.8550   11.2300 C.3   150  ARG150      0.0489
    135  CD        41.7580   49.8410   10.2880 C.3   150  ARG150      0.2205
    136  NE        42.8960   49.1730   10.9250 N.pl3 150  ARG150     -0.0865
    137  CZ        43.8110   49.7980   11.6650 C.cat 150  ARG150      0.5346
    138  NH1       43.7290   51.1080   11.8540 N.pl3 150  ARG150      0.1354
    139  NH2       44.7930   49.1150   12.2400 N.pl3 150  ARG150      0.1354
    140  N         38.0640   48.9760   13.2390 N.am  151  ASN151     -0.1974
    141  CA        37.6590   47.6160   13.5810 C.3   151  ASN151      0.1688
    142  C         36.4750   47.5550   14.5450 C.2   151  ASN151      0.2292
    143  O         36.1110   46.4800   15.0230 O.2   151  ASN151     -0.2864
    144  CB        38.8520   46.8440   14.1520 C.3   151  ASN151      0.1181
    145  CG        39.8870   46.5210   13.0920 C.2   151  ASN151      0.2629
    146  OD1       39.5510   46.3680   11.9180 O.2   151  ASN151     -0.2716
    147  ND2       41.1480   46.4190   13.4970 N.am  151  ASN151     -0.0877
    148  N         32.2910   48.7100   15.3290 N.3   153  LEU153     -0.1245
    149  CA        31.0090   48.9190   14.6570 C.3   153  LEU153      0.1561
    150  C         29.9770   49.5050   15.6190 C.2   153  LEU153      0.2260
    151  O         30.1130   49.3910   16.8400 O.2   153  LEU153     -0.2867
    152  CB        30.4880   47.5850   14.1060 C.3   153  LEU153      0.0270
    153  CG        31.3120   46.9050   13.0090 C.3   153  LEU153      0.0019
    154  CD1       30.8350   45.4710   12.8160 C.3   153  LEU153      0.0001
    155  CD2       31.1890   47.6860   11.7080 C.3   153  LEU153      0.0001
    156  N         34.3450   44.4780   15.9460 N.3   166  GLY166     -0.1210
    157  CA        33.7000   43.7820   14.8480 C.3   166  GLY166      0.1956
    158  C         34.6290   42.9920   13.9510 C.2   166  GLY166      0.2611
    159  O         34.1700   42.2310   13.0990 O.2   166  GLY166     -0.2717
    160  N         35.9330   43.1680   14.1230 N.am  167  ASP167     -0.1973
    161  CA        36.8990   42.4780   13.2720 C.3   167  ASP167      0.1709
    162  C         38.0000   41.8250   14.0980 C.2   167  ASP167      0.2293
    163  O         38.4900   42.4120   15.0640 O.2   167  ASP167     -0.2864
    164  CB        37.5290   43.4530   12.2780 C.3   167  ASP167      0.1436
    165  CG        38.5500   42.7810   11.3740 C.2   167  ASP167      0.3671
    166  OD1       39.7330   42.6720   11.7650 O.co2 167  ASP167     -0.2456
    167  OD2       38.1670   42.3570   10.2670 O.co2 167  ASP167     -0.2456
@<TRIPOS>BOND
     1    22    21   ar
     2    22    20   ar
     3    21    19   ar
     4    20    18   ar
     5    19    18   ar
     6    18    17    1
     7    17    14    1
     8    14    13    1
     9    14    15    1
    10    13    11   am
    11    15    16    2
    12    11    10    1
    13    11    12    2
    14     1     2    1
    15    10     9    1
    16     9     3   am
    17    26    25    2
    18    23    24    1
    19     3     2    1
    20     3     4    2
    21    33    32    2
    22     2     5    1
    23    25    24    1
    24    24    27    1
    25    30    31    1
    26     7     6    1
    27    32    31    1
    28     5     6    1
    29    34    31    1
    30    34    35    1
    31    27    29    1
    32    27    28    1
    33    46    47    2
    34    46    45    1
    35     6     8    1
    36    37    36   ar
    37    36    35    1
    38    36    38   ar
    39    45    44    1
    40    45    48    1
    41   128   126   ar
    42    49    48    1
    43    49    50    1
    44    52    51    1
    45   126   127   ar
    46   126   125    1
    47    41    40    1
    48    41    42    2
    49    51    50    1
    50    40    43    1
    51    40    39    1
    52   125   124    1
    53   119   118    1
    54    83    82    1
    55    84    82    1
    56   118   115    1
    57   124   121    1
    58   112   111   ar
    59    82    81    1
    60   121   120    1
    61   121   122    1
    62   115   116    1
    63   115   114    1
    64   111   113   ar
    65   111   110    1
    66   123   122    2
    67   117   116    2
    68    81    78    1
    69    60    61    1
    70    96    95    2
    71   167   165   ar
    72   135   136    1
    73   135   134    1
    74   103   102    1
    75   103   104    1
    76   110   107    1
    77    63    62    2
    78   106   104   am
    79   106   107    1
    80    66    65    1
    81    65    64    1
    82    65    67    1
    83   133   134    1
    84   133   130    1
    85    78    77    1
    86    78    79    1
    87   136   137    2
    88    94    95    1
    89    94    97    1
    90    94    93    1
    91   102   100   am
    92    88    87    2
    93    64    61    1
    94    95    98   am
    95   104   105    2
    96    61    62    1
    97   132   131    2
    98   107   108    1
    99   165   166   ar
   100   165   164    1
   101    62    68   am
   102   101   100    2
   103   100    99    1
   104   137   138    1
   105   137   139    1
   106   109   108    2
   107   155   153    1
   108    77    70   am
   109    79    85   am
   110    79    80    2
   111   130   131    1
   112   130   129    1
   113    85    86    1
   114    87    93   am
   115    87    86    1
   116   146   145    2
   117   131   140   am
   118    71    70    2
   119    98    99    1
   120   164   161    1
   121    70    69    1
   122    86    89    1
   123    68    69    1
   124   154   153    1
   125   153   152    1
   126   145   147   am
   127   145   144    1
   128   159   158    2
   129    69    72    1
   130    89    90    1
   131   140   141    1
   132   161   162    1
   133   161   160    1
   134   141   144    1
   135   141   142    1
   136   158   160   am
   137   158   157    1
   138    90    91    1
   139   162   163    2
   140   152   149    1
   141   142   143    2
   142    72    73    1
   143   149   148    1
   144   149   150    1
   145    59    57    1
   146   157   156    1
   147    73    74    1
   148    92    91    1
   149    58    57    1
   150   150   151    2
   151    57    54    1
   152    74    75   ar
   153    74    76   ar
   154    55    54    1
   155    55    56    2
   156    54    53    1
