@<TRIPOS>MOLECULE
tmp/4ccvA00.pdb
 85 80 0 0 0
SMALL
GASTEIGER

@<TRIPOS>ATOM
      1  N        -27.7300   32.4550  -38.9290 N.3    31  ALA31      -0.1231
      2  CA       -26.4550   32.9970  -38.4020 C.3    31  ALA31       0.1694
      3  C        -25.7560   31.9640  -37.5140 C.2    31  ALA31       0.2592
      4  O        -24.5440   32.0210  -37.2880 O.2    31  ALA31      -0.2718
      5  CB       -26.6960   34.3060  -37.6420 C.3    31  ALA31       0.0304
      6  N        -26.5510   31.0030  -37.0410 N.am   32  TYR32      -0.1976
      7  CA       -26.0720   29.8830  -36.2590 C.3    32  TYR32       0.1639
      8  C        -25.6680   28.6210  -37.0050 C.2    32  TYR32       0.2290
      9  O        -25.3370   27.6400  -36.3510 O.2    32  TYR32      -0.2864
     10  CB       -27.1280   29.5050  -35.2180 C.3    32  TYR32       0.0560
     11  CG       -27.2930   30.5070  -34.0880 C.ar   32  TYR32      -0.0198
     12  CD1      -28.0550   31.6490  -34.2300 C.ar   32  TYR32      -0.0009
     13  CD2      -26.7170   30.2590  -32.8620 C.ar   32  TYR32      -0.0009
     14  CE1      -28.2190   32.5390  -33.1580 C.ar   32  TYR32       0.0417
     15  CE2      -26.8380   31.1290  -31.8080 C.ar   32  TYR32       0.0417
     16  CZ       -27.5980   32.2590  -31.9530 C.ar   32  TYR32       0.1957
     17  OH       -27.6960   33.0580  -30.8440 O.3    32  TYR32      -0.2866
     18  N        -22.9480   27.4640  -38.2970 N.3    34  SER34      -0.1202
     19  CA       -21.6540   26.8650  -37.9950 C.3    34  SER34       0.2020
     20  C        -21.5120   26.4270  -36.5250 C.2    34  SER34       0.2618
     21  O        -20.4310   26.0160  -36.0980 O.2    34  SER34      -0.2717
     22  CB       -20.5270   27.8790  -38.2850 C.3    34  SER34       0.2103
     23  OG       -20.5460   28.8780  -37.2590 O.3    34  SER34      -0.2182
     24  N        -22.5560   26.5450  -35.7140 N.am   35  PHE35      -0.1975
     25  CA       -22.3860   26.4310  -34.2700 C.3    35  PHE35       0.1639
     26  C        -22.2830   24.9500  -33.8000 C.2    35  PHE35       0.2290
     27  O        -22.8550   24.0540  -34.4190 O.2    35  PHE35      -0.2864
     28  CB       -23.5180   27.1660  -33.5240 C.3    35  PHE35       0.0560
     29  CG       -23.2910   28.6450  -33.3090 C.ar   35  PHE35      -0.0200
     30  CD1      -23.1460   29.5240  -34.3660 C.ar   35  PHE35      -0.0042
     31  CD2      -23.2740   29.1600  -32.0310 C.ar   35  PHE35      -0.0042
     32  CE1      -22.9510   30.8860  -34.1620 C.ar   35  PHE35      -0.0003
     33  CE2      -23.1180   30.5230  -31.7990 C.ar   35  PHE35      -0.0003
     34  CZ       -22.9350   31.3900  -32.8620 C.ar   35  PHE35      -0.0000
     35  N        -19.1850   29.4540  -32.0320 N.3    62  ASN62      -0.1240
     36  CA       -19.4240   29.8490  -33.4060 C.3    62  ASN62       0.1653
     37  C        -18.2350   29.4180  -34.2290 C.2    62  ASN62       0.2266
     38  O        -17.2140   30.1460  -34.2890 O.2    62  ASN62      -0.2867
     39  CB       -19.5690   31.3760  -33.4730 C.3    62  ASN62       0.1155
     40  CG       -19.9090   31.8620  -34.8500 C.2    62  ASN62       0.2627
     41  OD1      -19.6550   31.1840  -35.8350 O.2    62  ASN62      -0.2716
     42  ND2      -20.4760   33.0530  -34.9350 N.am   62  ASN62      -0.0877
     43  N        -17.4900   29.3190  -37.2830 N.3    64  SER64      -0.1202
     44  CA       -16.9760   30.0980  -38.4060 C.3    64  SER64       0.2020
     45  C        -15.9170   31.1140  -37.8920 C.2    64  SER64       0.2618
     46  O        -14.9770   31.5020  -38.6380 O.2    64  SER64      -0.2717
     47  CB       -18.0770   30.7530  -39.2110 C.3    64  SER64       0.2103
     48  OG       -18.5450   31.9040  -38.5870 O.3    64  SER64      -0.2182
     49  N        -16.0480   31.5020  -36.6230 N.am   65  ARG65      -0.1979
     50  CA       -15.0210   32.3350  -35.9860 C.3    65  ARG65       0.1597
     51  C        -13.7350   31.5950  -35.5970 C.2    65  ARG65       0.2287
     52  O        -12.8250   32.2220  -35.1260 O.2    65  ARG65      -0.2864
     53  CB       -15.5820   33.1140  -34.8240 C.3    65  ARG65       0.0334
     54  CG       -16.3730   34.3090  -35.3340 C.3    65  ARG65       0.0492
     55  CD       -17.3370   34.7630  -34.3060 C.3    65  ARG65       0.2205
     56  NE       -18.0460   35.9810  -34.6800 N.pl3  65  ARG65      -0.0865
     57  CZ       -17.8520   37.1730  -34.1280 C.cat  65  ARG65       0.5346
     58  NH1      -16.9060   37.3570  -33.2170 N.pl3  65  ARG65       0.1354
     59  NH2      -18.6070   38.1940  -34.5070 N.pl3  65  ARG65       0.1354
     60  N        -10.5470   35.1820  -36.6830 N.3    70  ARG70      -0.1245
     61  CA       -11.6780   36.0510  -36.3760 C.3    70  ARG70       0.1563
     62  C        -11.7810   36.3430  -34.8870 C.2    70  ARG70       0.2260
     63  O        -11.1900   35.6570  -34.0860 O.2    70  ARG70      -0.2867
     64  CB       -12.9690   35.4070  -36.8740 C.3    70  ARG70       0.0307
     65  CG       -13.1280   35.5790  -38.3620 C.3    70  ARG70       0.0489
     66  CD       -14.2180   34.6670  -38.9100 C.3    70  ARG70       0.2205
     67  NE       -14.4100   34.9980  -40.3100 N.pl3  70  ARG70      -0.0865
     68  CZ       -14.7800   34.1610  -41.2770 C.cat  70  ARG70       0.5346
     69  NH1      -14.9940   32.8900  -41.0190 N.pl3  70  ARG70       0.1354
     70  NH2      -14.8520   34.6080  -42.5430 N.pl3  70  ARG70       0.1354
     71  N        -25.5980   34.9540  -27.6440 N.3   102  VAL102     -0.1245
     72  CA       -24.2060   34.8900  -28.0610 C.3   102  VAL102      0.1561
     73  C        -23.4510   36.0640  -27.4160 C.2   102  VAL102      0.2260
     74  O        -24.0470   37.0900  -27.0860 O.2   102  VAL102     -0.2867
     75  CB       -24.1500   35.0040  -29.5740 C.3   102  VAL102      0.0252
     76  CG1      -22.7360   35.0840  -30.0750 C.3   102  VAL102      0.0019
     77  CG2      -24.8140   33.7970  -30.1750 C.3   102  VAL102      0.0019
     78  N        -19.9680   38.0190  -28.2270 N.3   104  ASN104     -0.1240
     79  CA       -18.8880   38.2600  -29.2150 C.3   104  ASN104      0.1653
     80  C        -17.7630   39.1310  -28.5960 C.2   104  ASN104      0.2266
     81  O        -18.0050   40.1640  -27.9840 O.2   104  ASN104     -0.2867
     82  CB       -19.4030   38.9390  -30.5000 C.3   104  ASN104      0.1155
     83  CG       -20.3460   38.0600  -31.2860 C.2   104  ASN104      0.2627
     84  OD1      -20.0740   36.8980  -31.5570 O.2   104  ASN104     -0.2716
     85  ND2      -21.4940   38.6300  -31.6520 N.am  104  ASN104     -0.0877
@<TRIPOS>BOND
     1    70    68    1
     2    68    69    1
     3    68    67    2
     4    67    66    1
     5    47    48    1
     6    47    44    1
     7     1     2    1
     8    66    65    1
     9    46    45    2
    10    44    45    1
    11    44    43    1
    12     2     5    1
    13     2     3    1
    14    65    64    1
    15    18    19    1
    16    22    19    1
    17    22    23    1
    18    19    20    1
    19    45    49   am
    20     3     4    2
    21     3     6   am
    22     6     7    1
    23     8     9    2
    24     8     7    1
    25    64    61    1
    26    60    61    1
    27    49    50    1
    28    20    21    2
    29    20    24   am
    30    61    62    1
    31     7    10    1
    32    50    51    1
    33    50    53    1
    34    41    40    2
    35    24    25    1
    36    51    52    2
    37    54    53    1
    38    54    55    1
    39    10    11    1
    40    42    40   am
    41    62    63    2
    42    40    39    1
    43    56    55    1
    44    56    57    2
    45    59    57    1
    46    27    26    2
    47    30    32   ar
    48    30    29   ar
    49    38    37    2
    50    25    26    1
    51    25    28    1
    52    12    11   ar
    53    12    14   ar
    54    37    36    1
    55    32    34   ar
    56    57    58    1
    57    11    13   ar
    58    28    29    1
    59    39    36    1
    60    36    35    1
    61    29    31   ar
    62    14    16   ar
    63    34    33   ar
    64    13    15   ar
    65    31    33   ar
    66    16    15   ar
    67    16    17    1
    68    85    83   am
    69    84    83    2
    70    83    82    1
    71    82    79    1
    72    77    75    1
    73    76    75    1
    74    75    72    1
    75    79    80    1
    76    79    78    1
    77    80    81    2
    78    72    71    1
    79    72    73    1
    80    73    74    2
