@<TRIPOS>MOLECULE
tmp/4ccwA00.pdb
 105 101 0 0 0
SMALL
GASTEIGER

@<TRIPOS>ATOM
      1  N         32.9860   13.8800   17.8000 N.3    55  GLY55      -0.1210
      2  CA        33.1280   13.0110   16.6160 C.3    55  GLY55       0.1956
      3  C         32.7070   11.5780   16.8890 C.2    55  GLY55       0.2612
      4  O         32.6380   11.1650   18.0450 O.2    55  GLY55      -0.2717
      5  N         32.4290   10.8170   15.8330 N.am   56  ALA56      -0.1965
      6  CA        31.9700    9.4260   15.9870 C.3    56  ALA56       0.1728
      7  C         32.9220    8.6040   16.8490 C.2    56  ALA56       0.2616
      8  O         34.1320    8.6740   16.6740 O.2    56  ALA56      -0.2715
      9  CB        31.7830    8.7420   14.6290 C.3    56  ALA56       0.0334
     10  N         32.3480    7.8520   17.7850 N.am   57  LEU57      -0.1963
     11  CA        33.0560    6.8410   18.5970 C.3    57  LEU57       0.1728
     12  C         33.9780    7.4180   19.6790 C.2    57  LEU57       0.2616
     13  O         34.5540    6.6570   20.4700 O.2    57  LEU57      -0.2715
     14  CB        33.8310    5.8480   17.7170 C.3    57  LEU57       0.0311
     15  CG        33.1160    5.1690   16.5450 C.3    57  LEU57       0.0022
     16  CD1       34.1050    4.2210   15.8880 C.3    57  LEU57       0.0001
     17  CD2       31.8490    4.4340   16.9740 C.3    57  LEU57       0.0001
     18  N         34.0830    8.7490   19.7220 N.am   58  PHE58      -0.1974
     19  CA        35.0500    9.4440   20.5760 C.3    58  PHE58       0.1639
     20  C         34.4760    9.9070   21.9230 C.2    58  PHE58       0.2290
     21  O         35.2220   10.0820   22.8780 O.2    58  PHE58      -0.2864
     22  CB        35.6430   10.6550   19.8270 C.3    58  PHE58       0.0560
     23  CG        36.8760   10.3460   19.0110 C.ar   58  PHE58      -0.0200
     24  CD1       37.1240    9.0650   18.5220 C.ar   58  PHE58      -0.0042
     25  CD2       37.8000   11.3570   18.7290 C.ar   58  PHE58      -0.0042
     26  CE1       38.2620    8.7990   17.7690 C.ar   58  PHE58      -0.0003
     27  CE2       38.9420   11.0920   17.9870 C.ar   58  PHE58      -0.0003
     28  CZ        39.1680    9.8160   17.4970 C.ar   58  PHE58      -0.0000
     29  N         33.0690   15.9750   13.0550 N.3   122  SER122     -0.1217
     30  CA        32.7430   14.6420   12.4800 C.3   122  SER122      0.1889
     31  C         31.2260   14.3830   12.5560 C.2   122  SER122      0.2288
     32  O         30.4430   15.2160   12.1180 O.2   122  SER122     -0.2866
     33  CB        33.5990   13.5350   13.1520 C.3   122  SER122      0.2089
     34  OG        32.9740   12.2420   13.1760 O.3   122  SER122     -0.2183
     35  N         37.0270    5.3220    4.2780 N.3   158  PHE158     -0.1241
     36  CA        36.4290    5.5460    5.5890 C.3   158  PHE158      0.1605
     37  C         35.6240    4.3260    6.0200 C.2   158  PHE158      0.2264
     38  O         35.7850    3.8410    7.1430 O.2   158  PHE158     -0.2867
     39  CB        35.5550    6.8010    5.6540 C.3   158  PHE158      0.0534
     40  CG        34.8480    6.9580    6.9750 C.ar  158  PHE158     -0.0203
     41  CD1       35.5350    7.4390    8.0970 C.ar  158  PHE158     -0.0042
     42  CD2       33.5100    6.5730    7.1180 C.ar  158  PHE158     -0.0042
     43  CE1       34.8800    7.5700    9.3190 C.ar  158  PHE158     -0.0003
     44  CE2       32.8560    6.6920    8.3410 C.ar  158  PHE158     -0.0003
     45  CZ        33.5440    7.1910    9.4390 C.ar  158  PHE158     -0.0000
     46  N         36.7490    2.1160    9.3060 N.3   162  ALA162     -0.1245
     47  CA        35.7670    2.0820   10.3750 C.3   162  ALA162      0.1562
     48  C         35.3630    0.6340   10.6620 C.2   162  ALA162      0.2260
     49  O         35.3510    0.2060   11.8170 O.2   162  ALA162     -0.2867
     50  CB        34.5530    2.9320   10.0280 C.3   162  ALA162      0.0290
     51  N         38.0100   -1.5760   12.5760 N.3   165  LEU165     -0.1245
     52  CA        38.3000   -1.3010   13.9940 C.3   165  LEU165      0.1561
     53  C         38.2470   -2.5300   14.9100 C.2   165  LEU165      0.2260
     54  O         39.1270   -2.7180   15.7560 O.2   165  LEU165     -0.2867
     55  CB        37.4040   -0.1760   14.5340 C.3   165  LEU165      0.0270
     56  CG        37.7770    1.2460   14.1180 C.3   165  LEU165      0.0019
     57  CD1       36.6210    2.1800   14.4190 C.3   165  LEU165      0.0001
     58  CD2       39.0340    1.6980   14.8500 C.3   165  LEU165      0.0001
     59  N         43.4090    2.4150   11.9910 N.3   174  PHE174     -0.1241
     60  CA        42.5060    3.5590   11.8700 C.3   174  PHE174      0.1605
     61  C         43.2120    4.8650   12.2540 C.2   174  PHE174      0.2264
     62  O         43.1990    5.8370   11.4930 O.2   174  PHE174     -0.2867
     63  CB        41.2680    3.3200   12.7390 C.3   174  PHE174      0.0534
     64  CG        40.2470    4.4280   12.6920 C.ar  174  PHE174     -0.0203
     65  CD1       39.2150    4.4000   11.7580 C.ar  174  PHE174     -0.0042
     66  CD2       40.2760    5.4550   13.6310 C.ar  174  PHE174     -0.0042
     67  CE1       38.2590    5.4040   11.7250 C.ar  174  PHE174     -0.0003
     68  CE2       39.3200    6.4570   13.6080 C.ar  174  PHE174     -0.0003
     69  CZ        38.3110    6.4310   12.6570 C.ar  174  PHE174     -0.0000
     70  N         44.1980    8.1100    9.9900 N.3   178  MET178     -0.1245
     71  CA        43.5020    9.3720   10.2200 C.3   178  MET178      0.1570
     72  C         44.4330   10.4770   10.7190 C.2   178  MET178      0.2261
     73  O         44.1750   11.6600   10.5150 O.2   178  MET178     -0.2867
     74  CB        42.3430    9.1560   11.2020 C.3   178  MET178      0.0387
     75  CG        41.4800   10.3770   11.4430 C.3   178  MET178      0.0595
     76  SD        39.9490    9.9660   12.2810 S.3   178  MET178     -0.1393
     77  CE        38.9830    9.4750   10.8600 C.3   178  MET178      0.0692
     78  N         38.9330    4.9760   23.7600 N.3   193  PHE193     -0.1241
     79  CA        38.5020    4.7360   22.3900 C.3   193  PHE193      0.1605
     80  C         38.5790    3.2320   22.0930 C.2   193  PHE193      0.2264
     81  O         37.6420    2.6560   21.5380 O.2   193  PHE193     -0.2867
     82  CB        39.3410    5.5670   21.4090 C.3   193  PHE193      0.0534
     83  CG        39.0720    5.2610   19.9650 C.ar  193  PHE193     -0.0203
     84  CD1       37.8430    5.5720   19.3860 C.ar  193  PHE193     -0.0042
     85  CD2       40.0590    4.6860   19.1670 C.ar  193  PHE193     -0.0042
     86  CE1       37.5920    5.2920   18.0530 C.ar  193  PHE193     -0.0003
     87  CE2       39.8160    4.4060   17.8330 C.ar  193  PHE193     -0.0003
     88  CZ        38.5810    4.7140   17.2680 C.ar  193  PHE193     -0.0000
     89  N         41.6440   15.3190   10.1070 N.3   266  HIS266     -0.1226
     90  CA        40.2750   15.1510   10.5570 C.3   266  HIS266      0.1752
     91  C         40.0330   15.6380   11.9700 C.2   266  HIS266      0.2595
     92  O         39.0840   16.3760   12.2250 O.2   266  HIS266     -0.2718
     93  CB        39.8830   13.6780   10.4210 C.3   266  HIS266      0.0759
     94  CG        38.4160   13.4140   10.6080 C.ar  266  HIS266      0.0818
     95  ND1       37.4640   13.9770    9.8310 N.ar  266  HIS266     -0.2268
     96  CD2       37.7450   12.6070   11.5280 C.ar  266  HIS266      0.1154
     97  CE1       36.2520   13.5500   10.2430 C.ar  266  HIS266      0.1986
     98  NE2       36.4310   12.7120   11.2720 N.ar  266  HIS266     -0.2212
     99  N         40.8600   15.2110   12.9090 N.am  267  VAL267     -0.1980
    100  CA        40.6000   15.5190   14.3140 C.3   267  VAL267      0.1595
    101  C         41.3250   16.8170   14.6720 C.2   267  VAL267      0.2287
    102  O         42.1770   16.8820   15.5790 O.2   267  VAL267     -0.2864
    103  CB        40.9670   14.3280   15.2310 C.3   267  VAL267      0.0276
    104  CG1       40.3110   14.4960   16.5980 C.3   267  VAL267      0.0022
    105  CG2       40.4910   13.0190   14.6020 C.3   267  VAL267      0.0022
@<TRIPOS>BOND
     1    35    36    1
     2    36    39    1
     3    36    37    1
     4    39    40    1
     5    37    38    2
     6    40    42   ar
     7    40    41   ar
     8    42    44   ar
     9    41    43   ar
    10    44    45   ar
    11    46    47    1
    12    43    45   ar
    13    95    97   ar
    14    95    94   ar
    15    70    71    1
    16    50    47    1
    17    89    90    1
    18    71    72    1
    19    71    74    1
    20    97    98   ar
    21    47    48    1
    22    93    90    1
    23    93    94    1
    24    73    72    2
    25    90    91    1
    26    94    96   ar
    27    48    49    2
    28    77    76    1
    29    74    75    1
    30    98    96   ar
    31    75    76    1
    32    62    61    2
    33    67    65   ar
    34    67    69   ar
    35    65    64   ar
    36    60    59    1
    37    60    61    1
    38    60    63    1
    39    91    92    2
    40    91    99   am
    41    32    31    2
    42    30    31    1
    43    30    29    1
    44    30    33    1
    45    51    52    1
    46    69    68   ar
    47    64    63    1
    48    64    66   ar
    49    99   100    1
    50    33    34    1
    51    68    66   ar
    52    52    55    1
    53    52    53    1
    54    56    57    1
    55    56    55    1
    56    56    58    1
    57   100   101    1
    58   100   103    1
    59   105   103    1
    60     9     6    1
    61   101   102    2
    62    53    54    2
    63   103   104    1
    64     5     6    1
    65     5     3   am
    66    16    15    1
    67     6     7    1
    68    15    17    1
    69    15    14    1
    70     2     3    1
    71     2     1    1
    72     8     7    2
    73     7    10   am
    74     3     4    2
    75    88    87   ar
    76    88    86   ar
    77    28    26   ar
    78    28    27   ar
    79    14    11    1
    80    26    24   ar
    81    10    11    1
    82    87    85   ar
    83    27    25   ar
    84    86    84   ar
    85    24    23   ar
    86    11    12    1
    87    25    23   ar
    88    23    22    1
    89    85    83   ar
    90    84    83   ar
    91    12    18   am
    92    12    13    2
    93    18    19    1
    94    22    19    1
    95    83    82    1
    96    19    20    1
    97    82    79    1
    98    81    80    2
    99    20    21    2
   100    80    79    1
   101    79    78    1
