@<TRIPOS>MOLECULE
tmp/4cczA00.pdb
 208 190 0 0 0
SMALL
GASTEIGER

@<TRIPOS>ATOM
      1  N        -28.6170   37.0910    0.2230 N.3   336  GLU336     -0.1231
      2  CA       -28.3730   38.4620   -0.2550 C.3   336  GLU336      0.1699
      3  C        -27.4750   38.5650   -1.4930 C.2   336  GLU336      0.2592
      4  O        -27.4310   39.6190   -2.1280 O.2   336  GLU336     -0.2718
      5  CB       -27.7640   39.3200    0.8700 C.3   336  GLU336      0.0402
      6  CG       -26.3200   38.9790    1.2410 C.3   336  GLU336      0.1161
      7  CD       -25.6980   39.9730    2.2120 C.2   336  GLU336      0.3649
      8  OE1      -26.4380   40.5590    3.0350 O.co2 336  GLU336     -0.2457
      9  OE2      -24.4620   40.1700    2.1560 O.co2 336  GLU336     -0.2457
     10  N        -26.7620   37.4910   -1.8320 N.am  337  ARG337     -0.1980
     11  CA       -25.6540   37.5890   -2.7960 C.3   337  ARG337      0.1597
     12  C        -26.0550   37.8370   -4.2600 C.2   337  ARG337      0.2287
     13  O        -25.2820   38.4420   -5.0000 O.2   337  ARG337     -0.2864
     14  CB       -24.7390   36.3620   -2.7200 C.3   337  ARG337      0.0334
     15  CG       -24.1230   36.1010   -1.3480 C.3   337  ARG337      0.0492
     16  CD       -22.7240   35.5130   -1.4930 C.3   337  ARG337      0.2205
     17  NE       -21.7860   36.5180   -2.0020 N.pl3 337  ARG337     -0.0865
     18  CZ       -20.7910   36.2940   -2.8640 C.cat 337  ARG337      0.5346
     19  NH1      -20.5630   35.0790   -3.3590 N.pl3 337  ARG337      0.1354
     20  NH2      -20.0160   37.3080   -3.2470 N.pl3 337  ARG337      0.1354
     21  N        -27.3550   39.9930   -6.0170 N.3   339  ASN339     -0.1240
     22  CA       -27.6990   41.4090   -6.0620 C.3   339  ASN339      0.1653
     23  C        -26.5620   42.1770   -6.7430 C.2   339  ASN339      0.2266
     24  O        -25.4370   42.2070   -6.2390 O.2   339  ASN339     -0.2867
     25  CB       -27.9340   41.9230   -4.6350 C.3   339  ASN339      0.1155
     26  CG       -28.2440   43.4130   -4.5710 C.2   339  ASN339      0.2627
     27  OD1      -27.8670   44.1890   -5.4500 O.2   339  ASN339     -0.2716
     28  ND2      -28.9180   43.8220   -3.5070 N.am  339  ASN339     -0.0877
     29  N        -25.8720   45.3380   -7.1400 N.3   341  ALA341     -0.1231
     30  CA       -25.2730   46.4550   -6.4090 C.3   341  ALA341      0.1694
     31  C        -24.4920   45.9930   -5.1740 C.2   341  ALA341      0.2593
     32  O        -23.4410   46.5550   -4.8570 O.2   341  ALA341     -0.2718
     33  CB       -26.3430   47.4600   -6.0130 C.3   341  ALA341      0.0304
     34  N        -25.0020   44.9720   -4.4880 N.am  342  GLY342     -0.1942
     35  CA       -24.4330   44.5260   -3.2160 C.3   342  GLY342      0.2014
     36  C        -23.4420   43.3750   -3.2850 C.2   342  GLY342      0.2640
     37  O        -22.9770   42.9000   -2.2460 O.2   342  GLY342     -0.2714
     38  N        -23.1160   42.9170   -4.4930 N.am  343  SER343     -0.1935
     39  CA       -22.1480   41.8330   -4.6690 C.3   343  SER343      0.2055
     40  C        -21.1850   42.1380   -5.8100 C.2   343  SER343      0.2643
     41  O        -21.6060   42.5470   -6.8920 O.2   343  SER343     -0.2714
     42  CB       -22.8670   40.5150   -4.9380 C.3   343  SER343      0.2130
     43  OG       -21.9470   39.4410   -4.9790 O.3   343  SER343     -0.2179
     44  N        -19.8940   41.9280   -5.5550 N.am  344  ARG344     -0.1963
     45  CA       -18.8450   42.2240   -6.5290 C.3   344  ARG344      0.1729
     46  C        -18.8200   41.1880   -7.6400 C.2   344  ARG344      0.2616
     47  O        -18.8530   41.5420   -8.8180 O.2   344  ARG344     -0.2715
     48  CB       -17.4730   42.2790   -5.8480 C.3   344  ARG344      0.0348
     49  CG       -17.3750   43.2200   -4.6460 C.3   344  ARG344      0.0492
     50  CD       -16.8810   44.6070   -5.0370 C.3   344  ARG344      0.2205
     51  NE       -17.8430   45.3320   -5.8620 N.pl3 344  ARG344     -0.0865
     52  CZ       -18.9310   45.9270   -5.3950 C.cat 344  ARG344      0.5346
     53  NH1      -19.2020   45.8940   -4.1000 N.pl3 344  ARG344      0.1354
     54  NH2      -19.7370   46.5830   -6.2160 N.pl3 344  ARG344      0.1354
     55  N        -18.7590   39.9130   -7.2620 N.am  345  LYS345     -0.1977
     56  CA       -18.7140   38.8190   -8.2370 C.3   345  LYS345      0.1596
     57  C        -19.9620   38.8130   -9.1040 C.2   345  LYS345      0.2287
     58  O        -19.8760   38.8920  -10.3290 O.2   345  LYS345     -0.2864
     59  CB       -18.5820   37.4660   -7.5350 C.3   345  LYS345      0.0298
     60  CG       -17.3460   37.4480   -6.6070 C.3   345  LYS345      0.0038
     61  CD       -17.1050   36.0270   -6.1060 C.3   345  LYS345      0.0206
     62  CE       -15.7250   35.9570   -5.4120 C.3   345  LYS345      0.1093
     63  NZ       -15.8080   36.8640   -4.2170 N.3   345  LYS345     -0.1314
     64  N        -32.9060   36.1620   -2.6760 N.3   374  ASP374     -0.1239
     65  CA       -33.1750   37.5230   -3.1460 C.3   374  ASP374      0.1674
     66  C        -32.5180   37.7030   -4.5070 C.2   374  ASP374      0.2266
     67  O        -31.3350   37.4150   -4.6590 O.2   374  ASP374     -0.2867
     68  CB       -32.6220   38.5610   -2.1650 C.3   374  ASP374      0.1410
     69  CG       -33.2350   39.9340   -2.3580 C.2   374  ASP374      0.3668
     70  OD1      -34.4370   40.0880   -2.0630 O.co2 374  ASP374     -0.2456
     71  OD2      -32.5180   40.8620   -2.7890 O.co2 374  ASP374     -0.2456
     72  N        -31.7990   40.5950   -7.4170 N.3   376  ASN376     -0.1240
     73  CA       -31.8030   42.0310   -7.6950 C.3   376  ASN376      0.1653
     74  C        -30.9340   42.3720   -8.9040 C.2   376  ASN376      0.2266
     75  O        -29.7170   42.1990   -8.8640 O.2   376  ASN376     -0.2867
     76  CB       -31.3220   42.8030   -6.4660 C.3   376  ASN376      0.1155
     77  CG       -31.5100   44.3000   -6.6040 C.2   376  ASN376      0.2627
     78  OD1      -31.2610   44.8730   -7.6620 O.2   376  ASN376     -0.2716
     79  ND2      -31.9350   44.9440   -5.5240 N.am  376  ASN376     -0.0877
     80  N        -36.4250   41.5480   -6.0250 N.3   409  ASP409     -0.1239
     81  CA       -35.9420   42.7890   -5.4300 C.3   409  ASP409      0.1674
     82  C        -35.7140   43.8570   -6.4970 C.2   409  ASP409      0.2266
     83  O        -34.8340   43.7150   -7.3480 O.2   409  ASP409     -0.2867
     84  CB       -34.6440   42.5200   -4.6590 C.3   409  ASP409      0.1410
     85  CG       -34.3130   43.6120   -3.6530 C.2   409  ASP409      0.3668
     86  OD1      -34.3280   44.8050   -4.0230 O.co2 409  ASP409     -0.2456
     87  OD2      -34.0270   43.2700   -2.4850 O.co2 409  ASP409     -0.2456
     88  N        -40.3780   42.6350   -3.2810 N.3   430  ASN430     -0.1240
     89  CA       -39.5180   43.5200   -2.5220 C.3   430  ASN430      0.1653
     90  C        -39.0740   44.6690   -3.4320 C.2   430  ASN430      0.2266
     91  O        -38.1540   44.4920   -4.2220 O.2   430  ASN430     -0.2867
     92  CB       -38.3170   42.7160   -2.0290 C.3   430  ASN430      0.1155
     93  CG       -37.4240   43.4970   -1.0930 C.2   430  ASN430      0.2627
     94  OD1      -37.7530   44.5980   -0.6640 O.2   430  ASN430     -0.2716
     95  ND2      -36.2860   42.9140   -0.7550 N.am  430  ASN430     -0.0877
     96  N        -43.1310   42.8840    0.5800 N.3   456  VAL456     -0.1245
     97  CA       -42.4100   43.6990    1.5540 C.3   456  VAL456      0.1561
     98  C        -42.8610   45.1510    1.4360 C.2   456  VAL456      0.2260
     99  O        -42.8480   45.7300    0.3470 O.2   456  VAL456     -0.2867
    100  CB       -40.8860   43.6250    1.3520 C.3   456  VAL456      0.0252
    101  CG1      -40.1700   44.5380    2.3380 C.3   456  VAL456      0.0019
    102  CG2      -40.3990   42.1960    1.5130 C.3   456  VAL456      0.0019
    103  N        -41.8590   48.7680    2.6020 N.3   458  MET458     -0.1245
    104  CA       -40.7650   49.5800    3.1160 C.3   458  MET458      0.1570
    105  C        -41.2950   50.6850    4.0320 C.2   458  MET458      0.2261
    106  O        -42.3940   51.1930    3.8230 O.2   458  MET458     -0.2867
    107  CB       -40.0080   50.2030    1.9380 C.3   458  MET458      0.0387
    108  CG       -38.5060   50.1720    2.0780 C.3   458  MET458      0.0595
    109  SD       -37.8920   48.4830    2.0360 S.3   458  MET458     -0.1393
    110  CE       -36.5220   48.6690    3.1760 C.3   458  MET458      0.0692
    111  N        -40.6650   46.2910    6.4810 N.3   497  ASP497     -0.1239
    112  CA       -39.2520   46.5410    6.6430 C.3   497  ASP497      0.1674
    113  C        -39.0550   47.9430    7.2060 C.2   497  ASP497      0.2266
    114  O        -38.9610   48.9130    6.4490 O.2   497  ASP497     -0.2867
    115  CB       -38.5210   46.3780    5.3090 C.3   497  ASP497      0.1410
    116  CG       -37.0070   46.3620    5.4680 C.2   497  ASP497      0.3668
    117  OD1      -36.4830   46.9730    6.4220 O.co2 497  ASP497     -0.2456
    118  OD2      -36.3310   45.7400    4.6260 O.co2 497  ASP497     -0.2456
    119  N        -36.4340   50.3530    8.2390 N.3   499  ASN499     -0.1225
    120  CA       -35.1800   50.3110    7.4970 C.3   499  ASN499      0.1785
    121  C        -33.9780   50.0950    8.4060 C.2   499  ASN499      0.2597
    122  O        -33.7570   50.8640    9.3380 O.2   499  ASN499     -0.2718
    123  CB       -35.0270   51.5900    6.6860 C.3   499  ASN499      0.1169
    124  CG       -36.2770   51.9170    5.8980 C.2   499  ASN499      0.2627
    125  OD1      -36.5690   51.2790    4.8890 O.2   499  ASN499     -0.2716
    126  ND2      -37.0310   52.9090    6.3630 N.am  499  ASN499     -0.0877
    127  N        -33.2250   49.0280    8.1470 N.am  500  ILE500     -0.1980
    128  CA       -31.9510   48.7910    8.8260 C.3   500  ILE500      0.1595
    129  C        -30.8860   49.6510    8.1530 C.2   500  ILE500      0.2287
    130  O        -30.4500   49.3580    7.0400 O.2   500  ILE500     -0.2864
    131  CB       -31.5300   47.3070    8.7690 C.3   500  ILE500      0.0276
    132  CG1      -32.5080   46.4560    9.5860 C.3   500  ILE500      0.0022
    133  CG2      -30.1040   47.1360    9.2780 C.3   500  ILE500      0.0022
    134  CD1      -32.1570   44.9830    9.6470 C.3   500  ILE500      0.0001
    135  N        -38.9850   42.0510    8.4110 N.3   534  SER534     -0.1217
    136  CA       -37.7490   41.7350    7.7060 C.3   534  SER534      0.1889
    137  C        -36.8100   42.9400    7.6830 C.2   534  SER534      0.2288
    138  O        -37.1890   44.0500    8.0540 O.2   534  SER534     -0.2866
    139  CB       -38.0600   41.3080    6.2710 C.3   534  SER534      0.2089
    140  OG       -36.8960   40.8280    5.6210 O.3   534  SER534     -0.2183
    141  N        -32.7290   44.2150    5.6340 N.3   536  GLY536     -0.1225
    142  CA       -31.4430   43.9480    4.9990 C.3   536  GLY536      0.1811
    143  C        -30.3490   44.1360    6.0240 C.2   536  GLY536      0.2280
    144  O        -29.9740   45.2680    6.3380 O.2   536  GLY536     -0.2866
    145  N        -26.9860   43.3270    6.3390 N.3   538  SER538     -0.1202
    146  CA       -25.6350   43.8030    6.0240 C.3   538  SER538      0.2020
    147  C        -25.5230   45.3250    5.8330 C.2   538  SER538      0.2618
    148  O        -24.4170   45.8570    5.7950 O.2   538  SER538     -0.2717
    149  CB       -25.0890   43.0800    4.7950 C.3   538  SER538      0.2103
    150  OG       -24.9890   41.6870    5.0320 O.3   538  SER538     -0.2182
    151  N        -26.6560   46.0180    5.7160 N.am  539  ASN539     -0.1974
    152  CA       -26.6700   47.4830    5.6840 C.3   539  ASN539      0.1688
    153  C        -26.1340   48.0890    6.9820 C.2   539  ASN539      0.2292
    154  O        -25.5470   49.1730    6.9760 O.2   539  ASN539     -0.2864
    155  CB       -28.0900   48.0070    5.4510 C.3   539  ASN539      0.1181
    156  CG       -28.6450   47.6230    4.0940 C.2   539  ASN539      0.2629
    157  OD1      -29.6680   46.9470    4.0010 O.2   539  ASN539     -0.2716
    158  ND2      -27.9800   48.0580    3.0360 N.am  539  ASN539     -0.0877
    159  N        -21.8930   48.6650    7.0160 N.3   542  PHE542     -0.1241
    160  CA       -21.0980   49.3310    5.9740 C.3   542  PHE542      0.1605
    161  C        -19.9630   50.1650    6.5730 C.2   542  PHE542      0.2264
    162  O        -18.9720   50.4370    5.8980 O.2   542  PHE542     -0.2867
    163  CB       -21.9580   50.2740    5.1200 C.3   542  PHE542      0.0534
    164  CG       -22.8660   49.5860    4.1350 C.ar  542  PHE542     -0.0203
    165  CD1      -22.4680   48.4470    3.4420 C.ar  542  PHE542     -0.0042
    166  CD2      -24.1140   50.1290    3.8530 C.ar  542  PHE542     -0.0042
    167  CE1      -23.3130   47.8460    2.5230 C.ar  542  PHE542     -0.0003
    168  CE2      -24.9580   49.5350    2.9330 C.ar  542  PHE542     -0.0003
    169  CZ       -24.5580   48.3920    2.2670 C.ar  542  PHE542     -0.0000
    170  N        -16.4180   48.0140    6.6990 N.3   545  ARG545     -0.1245
    171  CA       -16.0680   47.1560    5.5590 C.3   545  ARG545      0.1563
    172  C        -14.5970   46.7860    5.6790 C.2   545  ARG545      0.2260
    173  O        -13.8030   47.5670    6.1970 O.2   545  ARG545     -0.2867
    174  CB       -16.3070   47.8460    4.2120 C.3   545  ARG545      0.0307
    175  CG       -17.6230   48.5850    4.0970 C.3   545  ARG545      0.0489
    176  CD       -18.1100   48.6830    2.6610 C.3   545  ARG545      0.2205
    177  NE       -19.2890   49.5420    2.5490 N.pl3 545  ARG545     -0.0865
    178  CZ       -20.0030   49.7180    1.4400 C.cat 545  ARG545      0.5346
    179  NH1      -19.6820   49.0870    0.3140 N.pl3 545  ARG545      0.1354
    180  NH2      -21.0530   50.5290    1.4570 N.pl3 545  ARG545      0.1354
    181  N        -14.3870   41.9290    8.2180 N.3   548  GLU548     -0.1245
    182  CA       -15.5300   41.0190    8.0920 C.3   548  GLU548      0.1567
    183  C        -15.9200   40.3680    9.4200 C.2   548  GLU548      0.2260
    184  O        -17.1100   40.2360    9.7150 O.2   548  GLU548     -0.2867
    185  CB       -15.2540   39.9350    7.0410 C.3   548  GLU548      0.0388
    186  CG       -15.5370   40.3710    5.6090 C.3   548  GLU548      0.1160
    187  CD       -17.0200   40.5730    5.3250 C.2   548  GLU548      0.3649
    188  OE1      -17.8380   39.7010    5.6970 O.co2 548  GLU548     -0.2457
    189  OE2      -17.3720   41.6090    4.7200 O.co2 548  GLU548     -0.2457
    190  N        -18.1250   42.6740   11.1230 N.3   551  ARG551     -0.1245
    191  CA       -19.4140   42.7380   10.4300 C.3   551  ARG551      0.1563
    192  C        -20.2860   41.5470   10.7970 C.2   551  ARG551      0.2260
    193  O        -21.4440   41.7090   11.1770 O.2   551  ARG551     -0.2867
    194  CB       -19.2230   42.7860    8.9130 C.3   551  ARG551      0.0307
    195  CG       -18.5770   44.0710    8.4190 C.3   551  ARG551      0.0489
    196  CD       -18.7370   44.2670    6.9200 C.3   551  ARG551      0.2205
    197  NE       -20.1230   44.5310    6.5380 N.pl3 551  ARG551     -0.0865
    198  CZ       -20.5170   44.9170    5.3270 C.cat 551  ARG551      0.5346
    199  NH1      -19.6350   45.1020    4.3470 N.pl3 551  ARG551      0.1354
    200  NH2      -21.8070   45.1210    5.0940 N.pl3 551  ARG551      0.1354
    201  N        -32.6910   39.7280    4.9890 N.3   571  ILE571     -0.1245
    202  CA       -31.8480   39.5100    3.8260 C.3   571  ILE571      0.1561
    203  C        -30.4200   39.5160    4.3350 C.2   571  ILE571      0.2260
    204  O        -29.8800   40.5570    4.6920 O.2   571  ILE571     -0.2867
    205  CB       -32.0710   40.5720    2.7390 C.3   571  ILE571      0.0252
    206  CG1      -33.5440   40.5660    2.3240 C.3   571  ILE571      0.0019
    207  CG2      -31.1670   40.2990    1.5380 C.3   571  ILE571      0.0019
    208  CD1      -33.9330   41.6960    1.4050 C.3   571  ILE571      0.0001
@<TRIPOS>BOND
     1    58    57    2
     2    57    56    1
     3    74    75    2
     4    74    73    1
     5    47    46    2
     6    56    59    1
     7    56    55    1
     8    73    72    1
     9    73    76    1
    10    78    77    2
    11    46    55   am
    12    46    45    1
    13    59    60    1
    14    83    82    2
    15    29    30    1
    16    41    40    2
    17    23    24    2
    18    23    22    1
    19    60    61    1
    20    77    76    1
    21    77    79   am
    22    45    48    1
    23    45    44    1
    24    82    81    1
    25    30    33    1
    26    30    31    1
    27    54    52    1
    28    61    62    1
    29    22    21    1
    30    22    25    1
    31    80    81    1
    32    51    52    2
    33    51    50    1
    34    48    49    1
    35    40    44   am
    36    40    39    1
    37    27    26    2
    38    81    84    1
    39    62    63    1
    40    52    53    1
    41    31    32    2
    42    31    34   am
    43    50    49    1
    44    13    12    2
    45    43    42    1
    46    42    39    1
    47    39    38    1
    48    84    85    1
    49    67    66    2
    50    25    26    1
    51    26    28   am
    52    66    65    1
    53    38    36   am
    54    34    35    1
    55    12    11    1
    56    91    90    2
    57    86    85   ar
    58    85    87   ar
    59    90    89    1
    60    19    18    1
    61    36    35    1
    62    36    37    2
    63    88    89    1
    64    20    18    1
    65    65    64    1
    66    65    68    1
    67    18    17    2
    68    11    14    1
    69    11    10    1
    70    71    69   ar
    71    14    15    1
    72    89    92    1
    73    69    68    1
    74    69    70   ar
    75     4     3    2
    76    92    93    1
    77    17    16    1
    78    10     3   am
    79    16    15    1
    80     3     2    1
    81    93    95   am
    82    93    94    2
    83     2     1    1
    84     2     5    1
    85   179   178    1
    86    99    98    2
    87    96    97    1
    88     5     6    1
    89     6     7    1
    90   100   102    1
    91   100    97    1
    92   100   101    1
    93   208   206    1
    94    98    97    1
    95   178   180    1
    96   178   177    2
    97   207   205    1
    98   107   108    1
    99   107   104    1
   100   109   108    1
   101   109   110    1
   102     9     7   ar
   103     7     8   ar
   104   169   167   ar
   105   169   168   ar
   106   206   205    1
   107   167   165   ar
   108   177   176    1
   109   103   104    1
   110   176   175    1
   111   205   202    1
   112   168   166   ar
   113   158   156   am
   114   104   105    1
   115   165   164   ar
   116   106   105    2
   117   202   203    1
   118   202   201    1
   119   166   164   ar
   120   157   156    2
   121   156   155    1
   122   175   174    1
   123   164   163    1
   124   174   171    1
   125   203   204    2
   126   199   198    1
   127   118   116   ar
   128   189   187   ar
   129   149   150    1
   130   149   146    1
   131   125   124    2
   132   142   141    1
   133   142   143    1
   134   200   198    1
   135   163   160    1
   136   115   116    1
   137   115   112    1
   138   187   186    1
   139   187   188   ar
   140   198   197    2
   141   155   152    1
   142   116   117   ar
   143   171   172    1
   144   171   170    1
   145   186   185    1
   146   140   139    1
   147   172   173    2
   148   152   151    1
   149   152   153    1
   150   151   147   am
   151   148   147    2
   152   147   146    1
   153   124   126   am
   154   124   123    1
   155   162   161    2
   156   160   161    1
   157   160   159    1
   158   143   144    2
   159   146   145    1
   160   139   136    1
   161   114   113    2
   162   111   112    1
   163   197   196    1
   164   112   113    1
   165   123   120    1
   166   196   195    1
   167   154   153    2
   168   130   129    2
   169   185   182    1
   170   120   119    1
   171   120   121    1
   172   137   136    1
   173   137   138    2
   174   136   135    1
   175   182   181    1
   176   182   183    1
   177   127   121   am
   178   127   128    1
   179   129   128    1
   180   121   122    2
   181   195   194    1
   182   131   128    1
   183   131   133    1
   184   131   132    1
   185   194   191    1
   186   183   184    2
   187   132   134    1
   188   191   192    1
   189   191   190    1
   190   192   193    2
