@<TRIPOS>MOLECULE
tmp/4cd3A01.pdb
 124 116 0 0 0
SMALL
GASTEIGER

@<TRIPOS>ATOM
      1  N         -1.1390   -1.0930  -24.2680 N.3    15  HIS15      -0.1241
      2  CA        -1.7330   -0.1220  -25.1490 C.3    15  HIS15       0.1621
      3  C         -1.2730    1.3220  -24.8950 C.2    15  HIS15       0.2264
      4  O         -0.5100    1.6100  -23.9360 O.2    15  HIS15      -0.2867
      5  CB        -3.2500   -0.2120  -25.1340 C.3    15  HIS15       0.0745
      6  CG        -3.8330    0.3950  -23.9210 C.ar   15  HIS15       0.0817
      7  ND1       -4.6010    1.5470  -23.9610 N.ar   15  HIS15      -0.2268
      8  CD2       -3.7110    0.0520  -22.6140 C.ar   15  HIS15       0.1154
      9  CE1       -4.9240    1.8840  -22.7170 C.ar   15  HIS15       0.1986
     10  NE2       -4.4000    0.9920  -21.8810 N.ar   15  HIS15      -0.2212
     11  N         -2.5380    5.4470  -24.8290 N.3    17  SER17      -0.1217
     12  CA        -3.6290    6.3890  -24.6540 C.3    17  SER17       0.1889
     13  C         -3.1240    7.7820  -24.8970 C.2    17  SER17       0.2288
     14  O         -2.0220    8.1060  -24.4960 O.2    17  SER17      -0.2866
     15  CB        -4.1020    6.3370  -23.1970 C.3    17  SER17       0.2089
     16  OG        -4.9520    5.2450  -23.0660 O.3    17  SER17      -0.2183
     17  N         -3.9270   11.8230  -23.9780 N.3    19  PHE19      -0.1241
     18  CA        -4.7300   12.7170  -23.1360 C.3    19  PHE19       0.1605
     19  C         -4.3830   14.1510  -23.5470 C.2    19  PHE19       0.2264
     20  O         -3.2240   14.5430  -23.6930 O.2    19  PHE19      -0.2867
     21  CB        -4.4300   12.4970  -21.6440 C.3    19  PHE19       0.0534
     22  CG        -4.6870   11.0850  -21.1640 C.ar   19  PHE19      -0.0203
     23  CD1       -5.9690   10.6850  -20.7640 C.ar   19  PHE19      -0.0042
     24  CD2       -3.6450   10.1510  -21.1510 C.ar   19  PHE19      -0.0042
     25  CE1       -6.2020    9.3930  -20.3170 C.ar   19  PHE19      -0.0003
     26  CE2       -3.8690    8.8730  -20.6730 C.ar   19  PHE19      -0.0003
     27  CZ        -5.1550    8.4820  -20.2850 C.ar   19  PHE19      -0.0000
     28  N         -9.6110   12.5300  -24.6620 N.3    39  SER39      -0.1217
     29  CA        -8.6040   11.4890  -24.6630 C.3    39  SER39       0.1889
     30  C         -8.8950   10.6380  -25.8510 C.2    39  SER39       0.2288
     31  O         -9.9310   10.8160  -26.4760 O.2    39  SER39      -0.2866
     32  CB        -8.6610   10.6540  -23.3700 C.3    39  SER39       0.2089
     33  OG        -9.9890   10.1650  -23.2430 O.3    39  SER39      -0.2183
     34  N         -8.0540    6.4680  -27.3330 N.3    41  ASP41      -0.1239
     35  CA        -7.3820    5.2050  -27.1380 C.3    41  ASP41       0.1674
     36  C         -6.8960    4.6660  -28.4690 C.2    41  ASP41       0.2266
     37  O         -7.6550    4.5680  -29.3990 O.2    41  ASP41      -0.2867
     38  CB        -8.3300    4.2140  -26.4970 C.3    41  ASP41       0.1410
     39  CG        -8.4820    4.4870  -25.0400 C.2    41  ASP41       0.3668
     40  OD1       -7.4450    4.4750  -24.2930 O.co2  41  ASP41      -0.2456
     41  OD2       -9.6330    4.7620  -24.6480 O.co2  41  ASP41      -0.2456
     42  N         -1.6640   -0.1400  -11.1040 N.3   167  LEU167     -0.1231
     43  CA        -1.3630   -1.4460  -11.6700 C.3   167  LEU167      0.1693
     44  C         -1.3750   -1.3760  -13.2080 C.2   167  LEU167      0.2592
     45  O         -2.4540   -1.4230  -13.7930 O.2   167  LEU167     -0.2718
     46  CB        -2.3200   -2.5330  -11.1530 C.3   167  LEU167      0.0284
     47  CG        -2.1280   -4.0260  -11.6810 C.3   167  LEU167      0.0019
     48  CD1       -0.7000   -4.4640  -11.5000 C.3   167  LEU167      0.0001
     49  CD2       -3.1150   -5.0930  -11.0570 C.3   167  LEU167      0.0001
     50  N         -0.2080   -1.2210  -13.8470 N.am  168  GLY168     -0.1957
     51  CA        -0.1500   -1.2530  -15.3070 C.3   168  GLY168      0.1869
     52  C         -0.0240   -2.6800  -15.7890 C.2   168  GLY168      0.2309
     53  O         -0.1890   -3.6520  -15.0060 O.2   168  GLY168     -0.2863
     54  N         -0.1790   -6.4620  -14.4710 N.3   210  ARG210     -0.1245
     55  CA        -1.3270   -7.4100  -14.7080 C.3   210  ARG210      0.1563
     56  C         -0.9160   -8.4980  -15.7010 C.2   210  ARG210      0.2260
     57  O         -0.9890   -9.6670  -15.4000 O.2   210  ARG210     -0.2867
     58  CB        -2.5340   -6.6560  -15.2920 C.3   210  ARG210      0.0307
     59  CG        -3.8380   -7.4300  -15.4570 C.3   210  ARG210      0.0489
     60  CD        -4.7870   -6.7230  -16.4420 C.3   210  ARG210      0.2205
     61  NE        -3.9730   -6.3270  -17.6190 N.pl3 210  ARG210     -0.0865
     62  CZ        -4.1050   -5.2070  -18.3320 C.cat 210  ARG210      0.5346
     63  NH1       -5.0960   -4.3240  -18.0770 N.pl3 210  ARG210      0.1354
     64  NH2       -3.2720   -5.0100  -19.3600 N.pl3 210  ARG210      0.1354
     65  N         -5.9690    2.5600  -12.3880 N.3   306  SER306     -0.1202
     66  CA        -5.8020    1.6280  -13.5490 C.3   306  SER306      0.2020
     67  C         -6.3270    0.2200  -13.2210 C.2   306  SER306      0.2618
     68  O         -7.4900    0.0950  -12.8420 O.2   306  SER306     -0.2717
     69  CB        -4.3560    1.6410  -14.0590 C.3   306  SER306      0.2103
     70  OG        -3.5300    1.3710  -12.9250 O.3   306  SER306     -0.2182
     71  N         -5.5240   -0.8620  -13.3230 N.am  307  ALA307     -0.1979
     72  CA        -6.1580   -2.1840  -13.2460 C.3   307  ALA307      0.1597
     73  C         -6.6650   -2.5660  -11.8860 C.2   307  ALA307      0.2287
     74  O         -7.4780   -3.4900  -11.7500 O.2   307  ALA307     -0.2864
     75  CB        -5.3020   -3.2770  -13.8310 C.3   307  ALA307      0.0319
     76  N        -10.2870   -1.4180  -12.3000 N.3   310  TYR310     -0.1227
     77  CA       -11.1480   -2.2140  -13.2160 C.3   310  TYR310      0.1736
     78  C        -11.4710   -3.5870  -12.6400 C.2   310  TYR310      0.2596
     79  O        -12.5650   -4.0810  -12.8240 O.2   310  TYR310     -0.2718
     80  CB       -10.5460   -2.3420  -14.6000 C.3   310  TYR310      0.0548
     81  CG       -10.5960   -1.0290  -15.3290 C.ar  310  TYR310     -0.0200
     82  CD1      -11.7640   -0.5930  -15.9770 C.ar  310  TYR310     -0.0009
     83  CD2       -9.5040   -0.2010  -15.3140 C.ar  310  TYR310     -0.0009
     84  CE1      -11.7950    0.6480  -16.6250 C.ar  310  TYR310      0.0417
     85  CE2       -9.5230    1.0430  -15.9270 C.ar  310  TYR310      0.0417
     86  CZ       -10.6340    1.4520  -16.5510 C.ar  310  TYR310      0.1957
     87  OH       -10.5510    2.6630  -17.1200 O.3   310  TYR310     -0.2866
     88  N        -10.5170   -4.1640  -11.9000 N.am  311  THR311     -0.1953
     89  CA       -10.6970   -5.4890  -11.3010 C.3   311  THR311      0.1897
     90  C        -11.7100   -5.3730  -10.1790 C.2   311  THR311      0.2313
     91  O        -12.6130   -6.1380  -10.1330 O.2   311  THR311     -0.2863
     92  CB        -9.3780   -6.1350  -10.8340 C.3   311  THR311      0.1794
     93  OG1       -8.4210   -6.2080  -11.9170 O.3   311  THR311     -0.2208
     94  CG2       -9.6520   -7.5670  -10.3970 C.3   311  THR311      0.0378
     95  N        -11.1850  -11.2360  -21.8390 N.3   354  ARG354     -0.1245
     96  CA       -10.2300  -11.7130  -20.8220 C.3   354  ARG354      0.1563
     97  C        -10.9310  -12.2570  -19.5720 C.2   354  ARG354      0.2260
     98  O        -10.3890  -12.2280  -18.4580 O.2   354  ARG354     -0.2867
     99  CB        -9.2520  -10.5950  -20.4100 C.3   354  ARG354      0.0307
    100  CG        -8.4690   -9.9310  -21.5880 C.3   354  ARG354      0.0489
    101  CD        -7.8020  -10.9060  -22.5680 C.3   354  ARG354      0.2205
    102  NE        -6.8310  -11.7600  -21.9020 N.pl3 354  ARG354     -0.0865
    103  CZ        -5.6620  -11.3540  -21.4010 C.cat 354  ARG354      0.5346
    104  NH1       -5.2730  -10.0850  -21.5020 N.pl3 354  ARG354      0.1354
    105  NH2       -4.8560  -12.2280  -20.7940 N.pl3 354  ARG354      0.1354
    106  N         -9.9600  -12.8270  -14.8100 N.3   358  TYR358     -0.1241
    107  CA       -10.3730  -12.0340  -13.6410 C.3   358  TYR358      0.1605
    108  C        -10.0210  -12.6470  -12.2700 C.2   358  TYR358      0.2264
    109  O         -9.5490  -11.9020  -11.3740 O.2   358  TYR358     -0.2867
    110  CB       -11.8530  -11.6560  -13.6840 C.3   358  TYR358      0.0534
    111  CG       -12.0700  -10.4800  -14.6140 C.ar  358  TYR358     -0.0201
    112  CD1      -11.7110   -9.1870  -14.2040 C.ar  358  TYR358     -0.0009
    113  CD2      -12.5520  -10.6480  -15.9190 C.ar  358  TYR358     -0.0009
    114  CE1      -11.8890   -8.0960  -15.0350 C.ar  358  TYR358      0.0417
    115  CE2      -12.7270   -9.5460  -16.7940 C.ar  358  TYR358      0.0417
    116  CZ       -12.4060   -8.2670  -16.3260 C.ar  358  TYR358      0.1957
    117  OH       -12.5350   -7.1130  -17.1130 O.3   358  TYR358     -0.2866
    118  N         -6.3620  -12.1260  -11.5350 N.3   361  VAL361     -0.1245
    119  CA        -5.9360  -10.6910  -11.3800 C.3   361  VAL361      0.1561
    120  C         -6.4620  -10.2400  -10.0550 C.2   361  VAL361      0.2260
    121  O         -5.7390   -9.5380   -9.2940 O.2   361  VAL361     -0.2867
    122  CB        -6.4490   -9.7670  -12.5190 C.3   361  VAL361      0.0252
    123  CG1       -5.9520   -8.3260  -12.2990 C.3   361  VAL361      0.0019
    124  CG2       -5.9620  -10.2520  -13.8680 C.3   361  VAL361      0.0019
@<TRIPOS>BOND
     1    37    36    2
     2    36    35    1
     3    34    35    1
     4    35    38    1
     5    38    39    1
     6    31    30    2
     7    30    29    1
     8     2     5    1
     9     2     3    1
    10     2     1    1
    11     5     6    1
    12    39    41   ar
    13    39    40   ar
    14    13    12    1
    15    13    14    2
    16     3     4    2
    17    11    12    1
    18    29    28    1
    19    29    32    1
    20    12    15    1
    21    17    18    1
    22     7     6   ar
    23     7     9   ar
    24     6     8   ar
    25    20    19    2
    26    19    18    1
    27    32    33    1
    28    15    16    1
    29    18    21    1
    30     9    10   ar
    31     8    10   ar
    32   101   102    1
    33   101   100    1
    34   102   103    2
    35    95    96    1
    36    21    22    1
    37   100    99    1
    38   104   103    1
    39   103   105    1
    40    22    24   ar
    41    22    23   ar
    42    24    26   ar
    43    96    99    1
    44    96    97    1
    45    23    25   ar
    46    26    27   ar
    47    25    27   ar
    48    97    98    2
    49    64    62    1
    50    62    63    1
    51    62    61    2
    52    61    60    1
    53    87    86    1
    54   117   116    1
    55   115   116   ar
    56   115   113   ar
    57    84    86   ar
    58    84    82   ar
    59    86    85   ar
    60    60    59    1
    61   116   114   ar
    62    82    81   ar
    63    85    83   ar
    64   113   111   ar
    65    52    51    1
    66    52    53    2
    67    56    57    2
    68    56    55    1
    69    59    58    1
    70    81    83   ar
    71    81    80    1
    72    51    50    1
    73    58    55    1
    74   114   112   ar
    75   106   107    1
    76    55    54    1
    77   111   112   ar
    78   111   110    1
    79    80    77    1
    80    69    66    1
    81    69    70    1
    82   124   122    1
    83    50    44   am
    84    75    72    1
    85    45    44    2
    86   110   107    1
    87   107   108    1
    88    66    67    1
    89    66    65    1
    90    71    72    1
    91    71    67   am
    92    72    73    1
    93    67    68    2
    94    77    78    1
    95    77    76    1
    96    44    43    1
    97    79    78    2
    98    78    88   am
    99   122   123    1
   100   122   119    1
   101   108   109    2
   102    93    92    1
   103    88    89    1
   104    73    74    2
   105    47    48    1
   106    47    46    1
   107    47    49    1
   108    43    46    1
   109    43    42    1
   110   118   119    1
   111   119   120    1
   112    89    92    1
   113    89    90    1
   114    92    94    1
   115    90    91    2
   116   120   121    2
