@<TRIPOS>MOLECULE
tmp/4cd3A00.pdb
 121 115 0 0 0
SMALL
GASTEIGER

@<TRIPOS>ATOM
      1  N          0.5280   -2.5660  -22.8470 N.3    14  SER14      -0.1202
      2  CA        -0.3350   -3.3010  -23.7440 C.3    14  SER14       0.2020
      3  C         -1.1870   -2.3840  -24.5580 C.2    14  SER14       0.2618
      4  O         -1.9370   -2.8700  -25.3860 O.2    14  SER14      -0.2717
      5  CB        -1.2930   -4.2050  -22.9660 C.3    14  SER14       0.2103
      6  OG        -2.1480   -3.3820  -22.1790 O.3    14  SER14      -0.2182
      7  N         -1.1390   -1.0930  -24.2680 N.am   15  HIS15      -0.1975
      8  CA        -1.7330   -0.1220  -25.1490 C.3    15  HIS15       0.1656
      9  C         -1.2730    1.3220  -24.8950 C.2    15  HIS15       0.2291
     10  O         -0.5100    1.6100  -23.9360 O.2    15  HIS15      -0.2864
     11  CB        -3.2500   -0.2120  -25.1340 C.3    15  HIS15       0.0771
     12  CG        -3.8330    0.3950  -23.9210 C.ar   15  HIS15       0.0820
     13  ND1       -4.6010    1.5470  -23.9610 N.ar   15  HIS15      -0.2267
     14  CD2       -3.7110    0.0520  -22.6140 C.ar   15  HIS15       0.1154
     15  CE1       -4.9240    1.8840  -22.7170 C.ar   15  HIS15       0.1986
     16  NE2       -4.4000    0.9920  -21.8810 N.ar   15  HIS15      -0.2212
     17  N         -8.0540    6.4680  -27.3330 N.3    41  ASP41      -0.1239
     18  CA        -7.3820    5.2050  -27.1380 C.3    41  ASP41       0.1674
     19  C         -6.8960    4.6660  -28.4690 C.2    41  ASP41       0.2266
     20  O         -7.6550    4.5680  -29.3990 O.2    41  ASP41      -0.2867
     21  CB        -8.3300    4.2140  -26.4970 C.3    41  ASP41       0.1410
     22  CG        -8.4820    4.4870  -25.0400 C.2    41  ASP41       0.3668
     23  OD1       -7.4450    4.4750  -24.2930 O.co2  41  ASP41      -0.2456
     24  OD2       -9.6330    4.7620  -24.6480 O.co2  41  ASP41      -0.2456
     25  N         -0.1790   -6.4620  -14.4710 N.3   210  ARG210     -0.1231
     26  CA        -1.3270   -7.4100  -14.7080 C.3   210  ARG210      0.1694
     27  C         -0.9160   -8.4980  -15.7010 C.2   210  ARG210      0.2592
     28  O         -0.9890   -9.6670  -15.4000 O.2   210  ARG210     -0.2718
     29  CB        -2.5340   -6.6560  -15.2920 C.3   210  ARG210      0.0321
     30  CG        -3.8380   -7.4300  -15.4570 C.3   210  ARG210      0.0489
     31  CD        -4.7870   -6.7230  -16.4420 C.3   210  ARG210      0.2205
     32  NE        -3.9730   -6.3270  -17.6190 N.pl3 210  ARG210     -0.0865
     33  CZ        -4.1050   -5.2070  -18.3320 C.cat 210  ARG210      0.5346
     34  NH1       -5.0960   -4.3240  -18.0770 N.pl3 210  ARG210      0.1354
     35  NH2       -3.2720   -5.0100  -19.3600 N.pl3 210  ARG210      0.1354
     36  N         -0.4560   -8.1020  -16.8590 N.am  211  ASP211     -0.1974
     37  CA        -0.1570   -9.1210  -17.9230 C.3   211  ASP211      0.1709
     38  C          1.0680   -9.9900  -17.5990 C.2   211  ASP211      0.2293
     39  O          1.0930  -11.1510  -17.8910 O.2   211  ASP211     -0.2864
     40  CB         0.0250   -8.4490  -19.2770 C.3   211  ASP211      0.1436
     41  CG        -1.1730   -7.5570  -19.6430 C.2   211  ASP211      0.3671
     42  OD1       -2.3490   -7.9720  -19.4080 O.co2 211  ASP211     -0.2456
     43  OD2       -0.9490   -6.4440  -20.1560 O.co2 211  ASP211     -0.2456
     44  N          0.0000  -12.5300  -15.0070 N.3   214  LEU214     -0.1245
     45  CA        -0.7060  -13.6070  -15.6810 C.3   214  LEU214      0.1561
     46  C          0.2480  -14.5490  -16.3920 C.2   214  LEU214      0.2260
     47  O          0.0330  -15.7670  -16.2850 O.2   214  LEU214     -0.2867
     48  CB        -1.7370  -13.1030  -16.7420 C.3   214  LEU214      0.0270
     49  CG        -2.7840  -12.2720  -16.0290 C.3   214  LEU214      0.0019
     50  CD1       -3.5870  -11.4720  -17.0980 C.3   214  LEU214      0.0001
     51  CD2       -3.6110  -13.2510  -15.1850 C.3   214  LEU214      0.0001
     52  N        -10.5170   -4.1640  -11.9000 N.3   311  THR311     -0.1218
     53  CA       -10.6970   -5.4890  -11.3010 C.3   311  THR311      0.1862
     54  C        -11.7100   -5.3730  -10.1790 C.2   311  THR311      0.2287
     55  O        -12.6130   -6.1380  -10.1330 O.2   311  THR311     -0.2866
     56  CB        -9.3780   -6.1350  -10.8340 C.3   311  THR311      0.1770
     57  OG1       -8.4210   -6.2080  -11.9170 O.3   311  THR311     -0.2211
     58  CG2       -9.6520   -7.5670  -10.3970 C.3   311  THR311      0.0375
     59  N        -19.1640   -9.4360  -24.6670 N.3   351  GLN351     -0.1231
     60  CA       -17.9270  -10.0980  -25.0350 C.3   351  GLN351      0.1698
     61  C        -16.8570   -9.6300  -24.1000 C.2   351  GLN351      0.2592
     62  O        -16.3530   -8.4980  -24.2290 O.2   351  GLN351     -0.2718
     63  CB       -17.5040   -9.8510  -26.4870 C.3   351  GLN351      0.0381
     64  CG       -17.7780  -11.0370  -27.4150 C.3   351  GLN351      0.0905
     65  CD       -19.2110  -11.0340  -27.9430 C.2   351  GLN351      0.2608
     66  OE1      -19.6230  -10.1020  -28.6470 O.2   351  GLN351     -0.2717
     67  NE2      -19.9760  -12.0750  -27.6090 N.am  351  GLN351     -0.0878
     68  N        -16.5540  -10.4880  -23.1360 N.am  352  LYS352     -0.1966
     69  CA       -15.3470  -10.3170  -22.3600 C.3   352  LYS352      0.1728
     70  C        -14.2420  -11.2680  -22.8570 C.2   352  LYS352      0.2617
     71  O        -14.2440  -12.4750  -22.5940 O.2   352  LYS352     -0.2715
     72  CB       -15.5780  -10.3740  -20.8240 C.3   352  LYS352      0.0311
     73  CG       -15.9170   -9.0090  -20.2130 C.3   352  LYS352      0.0038
     74  CD       -15.8920   -9.0390  -18.6860 C.3   352  LYS352      0.0206
     75  CE       -15.9710   -7.6570  -18.0280 C.3   352  LYS352      0.1093
     76  NZ       -17.3780   -7.1820  -18.0340 N.3   352  LYS352     -0.1314
     77  N        -13.3020  -10.6630  -23.5750 N.am  353  THR353     -0.1937
     78  CA       -12.1570  -11.3440  -24.1310 C.3   353  THR353      0.2028
     79  C        -11.1670  -11.8100  -23.0510 C.2   353  THR353      0.2642
     80  O        -10.3510  -12.6950  -23.3330 O.2   353  THR353     -0.2714
     81  CB       -11.4210  -10.3910  -25.0640 C.3   353  THR353      0.1808
     82  OG1      -11.1790   -9.1840  -24.3500 O.3   353  THR353     -0.2208
     83  CG2      -12.2770  -10.0420  -26.2900 C.3   353  THR353      0.0379
     84  N        -11.1850  -11.2360  -21.8390 N.am  354  ARG354     -0.1977
     85  CA       -10.2300  -11.7130  -20.8220 C.3   354  ARG354      0.1597
     86  C        -10.9310  -12.2570  -19.5720 C.2   354  ARG354      0.2287
     87  O        -10.3890  -12.2280  -18.4580 O.2   354  ARG354     -0.2864
     88  CB        -9.2520  -10.5950  -20.4100 C.3   354  ARG354      0.0334
     89  CG        -8.4690   -9.9310  -21.5880 C.3   354  ARG354      0.0492
     90  CD        -7.8020  -10.9060  -22.5680 C.3   354  ARG354      0.2205
     91  NE        -6.8310  -11.7600  -21.9020 N.pl3 354  ARG354     -0.0865
     92  CZ        -5.6620  -11.3540  -21.4010 C.cat 354  ARG354      0.5346
     93  NH1       -5.2730  -10.0850  -21.5020 N.pl3 354  ARG354      0.1354
     94  NH2       -4.8560  -12.2280  -20.7940 N.pl3 354  ARG354      0.1354
     95  N         -9.3910  -14.5150  -16.8160 N.3   357  ASP357     -0.1225
     96  CA        -8.2520  -13.9450  -16.0880 C.3   357  ASP357      0.1805
     97  C         -8.6700  -13.1110  -14.9230 C.2   357  ASP357      0.2597
     98  O         -7.8150  -12.7400  -14.0520 O.2   357  ASP357     -0.2718
     99  CB        -7.4120  -13.1030  -17.0520 C.3   357  ASP357      0.1424
    100  CG        -6.6420  -13.9570  -18.0390 C.2   357  ASP357      0.3668
    101  OD1       -6.1590  -15.0800  -17.7300 O.co2 357  ASP357     -0.2456
    102  OD2       -6.5590  -13.5010  -19.1900 O.co2 357  ASP357     -0.2456
    103  N         -9.9600  -12.8270  -14.8100 N.am  358  TYR358     -0.1976
    104  CA       -10.3730  -12.0340  -13.6410 C.3   358  TYR358      0.1639
    105  C        -10.0210  -12.6470  -12.2700 C.2   358  TYR358      0.2290
    106  O         -9.5490  -11.9020  -11.3740 O.2   358  TYR358     -0.2864
    107  CB       -11.8530  -11.6560  -13.6840 C.3   358  TYR358      0.0560
    108  CG       -12.0700  -10.4800  -14.6140 C.ar  358  TYR358     -0.0198
    109  CD1      -11.7110   -9.1870  -14.2040 C.ar  358  TYR358     -0.0009
    110  CD2      -12.5520  -10.6480  -15.9190 C.ar  358  TYR358     -0.0009
    111  CE1      -11.8890   -8.0960  -15.0350 C.ar  358  TYR358      0.0417
    112  CE2      -12.7270   -9.5460  -16.7940 C.ar  358  TYR358      0.0417
    113  CZ       -12.4060   -8.2670  -16.3260 C.ar  358  TYR358      0.1957
    114  OH       -12.5350   -7.1130  -17.1130 O.3   358  TYR358     -0.2866
    115  N         -6.3620  -12.1260  -11.5350 N.3   361  VAL361     -0.1245
    116  CA        -5.9360  -10.6910  -11.3800 C.3   361  VAL361      0.1561
    117  C         -6.4620  -10.2400  -10.0550 C.2   361  VAL361      0.2260
    118  O         -5.7390   -9.5380   -9.2940 O.2   361  VAL361     -0.2867
    119  CB        -6.4490   -9.7670  -12.5190 C.3   361  VAL361      0.0252
    120  CG1       -5.9520   -8.3260  -12.2990 C.3   361  VAL361      0.0019
    121  CG2       -5.9620  -10.2520  -13.8680 C.3   361  VAL361      0.0019
@<TRIPOS>BOND
     1    20    19    2
     2    66    65    2
     3    19    18    1
     4    65    67   am
     5    65    64    1
     6    64    63    1
     7    17    18    1
     8    18    21    1
     9    21    22    1
    10    63    60    1
    11    83    81    1
    12     4     3    2
    13     8    11    1
    14     8     9    1
    15     8     7    1
    16    11    12    1
    17    81    82    1
    18    81    78    1
    19    22    24   ar
    20    22    23   ar
    21    60    59    1
    22    60    61    1
    23     9    10    2
    24     3     7   am
    25     3     2    1
    26    62    61    2
    27    78    77    1
    28    78    79    1
    29    61    68   am
    30    13    12   ar
    31    13    15   ar
    32    12    14   ar
    33     2     5    1
    34     2     1    1
    35    77    70   am
    36    80    79    2
    37    68    69    1
    38    79    84   am
    39     5     6    1
    40    70    71    2
    41    70    69    1
    42    15    16   ar
    43    14    16   ar
    44    90    91    1
    45    90    89    1
    46    69    72    1
    47    91    92    2
    48    84    85    1
    49    89    88    1
    50    93    92    1
    51    92    94    1
    52    72    73    1
    53    85    88    1
    54    85    86    1
    55    73    74    1
    56    43    41   ar
    57    41    42   ar
    58    41    40    1
    59    86    87    2
    60    35    33    1
    61    40    37    1
    62   102   100   ar
    63    74    75    1
    64    33    34    1
    65    33    32    2
    66   100   101   ar
    67   100    99    1
    68    76    75    1
    69    37    38    1
    70    37    36    1
    71    39    38    2
    72    32    31    1
    73   114   113    1
    74    50    49    1
    75    99    96    1
    76    36    27   am
    77    95    96    1
    78   112   113   ar
    79   112   110   ar
    80    48    49    1
    81    48    45    1
    82    31    30    1
    83    46    47    2
    84    46    45    1
    85   113   111   ar
    86    96    97    1
    87    49    51    1
    88   110   108   ar
    89    27    28    2
    90    27    26    1
    91    45    44    1
    92    30    29    1
    93    29    26    1
    94   111   109   ar
    95    97   103   am
    96    97    98    2
    97   103   104    1
    98    26    25    1
    99   108   109   ar
   100   108   107    1
   101   121   119    1
   102   107   104    1
   103   104   105    1
   104   119   120    1
   105   119   116    1
   106   105   106    2
   107    57    56    1
   108    52    53    1
   109   115   116    1
   110   116   117    1
   111    53    56    1
   112    53    54    1
   113    56    58    1
   114    54    55    2
   115   117   118    2
