@<TRIPOS>MOLECULE
tmp/4cd4A01.pdb
 142 143 0 0 0
SMALL
GASTEIGER

@<TRIPOS>ATOM
      1  N          5.3620   26.3650   16.5320 N.3   104  HIS104     -0.1241
      2  CA         5.0060   25.0130   16.9760 C.3   104  HIS104      0.1621
      3  C          4.0900   25.1570   18.2010 C.2   104  HIS104      0.2264
      4  O          4.5060   25.0260   19.3540 O.2   104  HIS104     -0.2867
      5  CB         6.2700   24.2040   17.3250 C.3   104  HIS104      0.0745
      6  CG         7.0700   23.7280   16.1430 C.ar  104  HIS104      0.0817
      7  ND1        7.7410   24.5640   15.2890 N.ar  104  HIS104     -0.2268
      8  CD2        7.3520   22.4710   15.7240 C.ar  104  HIS104      0.1154
      9  CE1        8.3900   23.8520   14.3860 C.ar  104  HIS104      0.1986
     10  NE2        8.1660   22.5770   14.6230 N.ar  104  HIS104     -0.2212
     11  N          3.4540   17.8200   18.7540 N.3   115  TRP115     -0.1241
     12  CA         3.4940   16.4270   18.3210 C.3   115  TRP115      0.1605
     13  C          2.4850   15.5430   19.0620 C.2   115  TRP115      0.2264
     14  O          2.3530   14.3540   18.7330 O.2   115  TRP115     -0.2867
     15  CB         4.9000   15.8430   18.4720 C.3   115  TRP115      0.0550
     16  CG         5.9550   16.5640   17.6400 C.ar  115  TRP115      0.0003
     17  CD1        6.3590   16.2490   16.3920 C.ar  115  TRP115      0.0946
     18  CD2        6.6930   17.7270   18.0230 C.ar  115  TRP115      0.0152
     19  NE1        7.3330   17.1170   15.9650 N.ar  115  TRP115     -0.2442
     20  CE2        7.5450   18.0500   16.9410 C.ar  115  TRP115      0.0810
     21  CE3        6.7080   18.5390   19.1590 C.ar  115  TRP115      0.0012
     22  CZ2        8.3900   19.1450   16.9720 C.ar  115  TRP115      0.0191
     23  CZ3        7.5580   19.6100   19.1860 C.ar  115  TRP115      0.0001
     24  CH2        8.3910   19.9040   18.0980 C.ar  115  TRP115      0.0015
     25  N          2.4520   24.9840    9.7200 N.3   168  HIS168     -0.1226
     26  CA         3.2580   24.4300    8.6400 C.3   168  HIS168      0.1752
     27  C          3.2230   22.9190    8.5530 C.2   168  HIS168      0.2595
     28  O          2.8230   22.2180    9.4810 O.2   168  HIS168     -0.2718
     29  CB         4.6780   24.9670    8.7440 C.3   168  HIS168      0.0759
     30  CG         5.4330   24.4990    9.9360 C.ar  168  HIS168      0.0818
     31  ND1        4.9820   24.6390   11.2310 N.ar  168  HIS168     -0.2268
     32  CD2        6.6600   23.9310   10.0170 C.ar  168  HIS168      0.1154
     33  CE1        5.8970   24.1710   12.0550 C.ar  168  HIS168      0.1986
     34  NE2        6.9180   23.7190   11.3430 N.ar  168  HIS168     -0.2212
     35  N          3.6110   22.4140    7.3820 N.am  169  GLU169     -0.1979
     36  CA         3.7240   20.9630    7.1630 C.3   169  GLU169      0.1602
     37  C          2.3960   20.2590    7.4640 C.2   169  GLU169      0.2287
     38  O          2.3550   19.1230    7.9490 O.2   169  GLU169     -0.2864
     39  CB         4.8860   20.3610    7.9490 C.3   169  GLU169      0.0415
     40  CG         6.2200   20.9720    7.5470 C.3   169  GLU169      0.1163
     41  CD         7.4160   20.4730    8.3150 C.2   169  GLU169      0.3649
     42  OE1        7.2710   19.5880    9.1820 O.co2 169  GLU169     -0.2457
     43  OE2        8.5320   21.0200    8.0720 O.co2 169  GLU169     -0.2457
     44  N          2.2370   14.6140   11.5680 N.3   174  TRP174     -0.1227
     45  CA         3.0410   14.6560   12.7880 C.3   174  TRP174      0.1737
     46  C          2.6500   15.7630   13.7710 C.2   174  TRP174      0.2595
     47  O          2.9580   15.6630   14.9480 O.2   174  TRP174     -0.2718
     48  CB         4.5380   14.7270   12.4690 C.3   174  TRP174      0.0564
     49  CG         4.9410   15.6600   11.3800 C.ar  174  TRP174      0.0003
     50  CD1        5.2750   16.9730   11.4860 C.ar  174  TRP174      0.0946
     51  CD2        5.0880   15.3220    9.9930 C.ar  174  TRP174      0.0152
     52  NE1        5.6070   17.4770   10.2560 N.ar  174  TRP174     -0.2442
     53  CE2        5.5150   16.4820    9.3180 C.ar  174  TRP174      0.0810
     54  CE3        4.9270   14.1270    9.2580 C.ar  174  TRP174      0.0012
     55  CZ2        5.7790   16.4900    7.9450 C.ar  174  TRP174      0.0191
     56  CZ3        5.1780   14.1400    7.8970 C.ar  174  TRP174      0.0001
     57  CH2        5.6210   15.3090    7.2560 C.ar  174  TRP174      0.0015
     58  N          1.9740   16.8040   13.2930 N.am  175  PHE175     -0.1976
     59  CA         1.4590   17.8640   14.1660 C.3   175  PHE175      0.1639
     60  C         -0.0430   17.7140   14.3330 C.2   175  PHE175      0.2290
     61  O         -0.7260   17.1810   13.4610 O.2   175  PHE175     -0.2864
     62  CB         1.7460   19.2440   13.5720 C.3   175  PHE175      0.0560
     63  CG         3.2090   19.5550   13.3710 C.ar  175  PHE175     -0.0200
     64  CD1        4.1550   19.2880   14.3500 C.ar  175  PHE175     -0.0042
     65  CD2        3.6340   20.1620   12.1950 C.ar  175  PHE175     -0.0042
     66  CE1        5.4890   19.6360   14.1680 C.ar  175  PHE175     -0.0003
     67  CE2        4.9680   20.5130   12.0170 C.ar  175  PHE175     -0.0003
     68  CZ         5.8950   20.2510   13.0040 C.ar  175  PHE175     -0.0000
     69  N         13.0470   18.4590    2.9190 N.3   245  TYR245     -0.1241
     70  CA        14.2190   17.7390    3.3940 C.3   245  TYR245      0.1605
     71  C         14.3800   16.4040    2.6470 C.2   245  TYR245      0.2264
     72  O         15.4190   15.7420    2.7560 O.2   245  TYR245     -0.2867
     73  CB        14.0910   17.4510    4.8890 C.3   245  TYR245      0.0534
     74  CG        14.0070   18.6650    5.7770 C.ar  245  TYR245     -0.0201
     75  CD1       12.8030   19.3070    6.0130 C.ar  245  TYR245     -0.0009
     76  CD2       15.1390   19.1780    6.3770 C.ar  245  TYR245     -0.0009
     77  CE1       12.7350   20.4140    6.8510 C.ar  245  TYR245      0.0417
     78  CE2       15.0840   20.2610    7.2290 C.ar  245  TYR245      0.0417
     79  CZ        13.8770   20.8800    7.4690 C.ar  245  TYR245      0.1957
     80  OH        13.8510   21.9600    8.3510 O.3   245  TYR245     -0.2866
     81  N         12.0020   25.5260    4.2610 N.3   286  GLU286     -0.1245
     82  CA        12.8730   24.6770    5.0820 C.3   286  GLU286      0.1567
     83  C         13.5150   23.6100    4.2310 C.2   286  GLU286      0.2260
     84  O         12.8410   23.0240    3.3640 O.2   286  GLU286     -0.2867
     85  CB        12.1360   23.9310    6.2080 C.3   286  GLU286      0.0388
     86  CG        11.4900   24.8320    7.2650 C.3   286  GLU286      0.1160
     87  CD        10.9350   24.0550    8.4540 C.2   286  GLU286      0.3649
     88  OE1       11.4280   22.9250    8.7760 O.co2 286  GLU286     -0.2457
     89  OE2        9.9900   24.5910    9.0830 O.co2 286  GLU286     -0.2457
     90  N         20.5250   16.8710    7.8800 N.3   290  ASN290     -0.1240
     91  CA        20.7960   16.8440    9.3160 C.3   290  ASN290      0.1653
     92  C         22.1610   16.2150    9.5810 C.2   290  ASN290      0.2266
     93  O         22.4460   15.0950    9.1280 O.2   290  ASN290     -0.2867
     94  CB        19.6730   16.1110   10.0440 C.3   290  ASN290      0.1155
     95  CG        19.6540   16.3600   11.5320 C.2   290  ASN290      0.2627
     96  OD1       20.4850   17.0480   12.0990 O.2   290  ASN290     -0.2716
     97  ND2       18.6210   15.8380   12.1650 N.am  290  ASN290     -0.0877
     98  N         17.4430   24.5090    8.8310 N.3   321  TRP321     -0.1227
     99  CA        16.9870   24.4620   10.2190 C.3   321  TRP321      0.1737
    100  C         18.1480   24.6320   11.2210 C.2   321  TRP321      0.2595
    101  O         19.2900   24.9380   10.8440 O.2   321  TRP321     -0.2718
    102  CB        16.1080   23.2140   10.4480 C.3   321  TRP321      0.0564
    103  CG        15.1240   23.3520   11.5810 C.ar  321  TRP321      0.0003
    104  CD1       15.0930   22.6290   12.7320 C.ar  321  TRP321      0.0946
    105  CD2       14.0340   24.2930   11.6710 C.ar  321  TRP321      0.0152
    106  NE1       14.0630   23.0460   13.5350 N.ar  321  TRP321     -0.2442
    107  CE2       13.4000   24.0780   12.9150 C.ar  321  TRP321      0.0810
    108  CE3       13.5540   25.3050   10.8390 C.ar  321  TRP321      0.0012
    109  CZ2       12.3030   24.8300   13.3140 C.ar  321  TRP321      0.0191
    110  CZ3       12.4480   26.0270   11.2450 C.ar  321  TRP321      0.0001
    111  CH2       11.8620   25.7990   12.4810 C.ar  321  TRP321      0.0015
    112  N         17.8170   24.5470   12.5100 N.am  322  ARG322     -0.1980
    113  CA        18.6450   25.0570   13.5690 C.3   322  ARG322      0.1597
    114  C         19.8670   24.1930   13.8750 C.2   322  ARG322      0.2287
    115  O         19.9070   23.0080   13.5330 O.2   322  ARG322     -0.2864
    116  CB        17.7960   25.2290   14.8460 C.3   322  ARG322      0.0334
    117  CG        17.4270   23.9220   15.5180 C.3   322  ARG322      0.0492
    118  CD        16.1550   24.0820   16.3960 C.3   322  ARG322      0.2205
    119  NE        15.9180   22.8770   17.1830 N.pl3 322  ARG322     -0.0865
    120  CZ        16.4780   22.6260   18.3690 C.cat 322  ARG322      0.5346
    121  NH1       17.2710   23.4990   18.9550 N.pl3 322  ARG322      0.1354
    122  NH2       16.2530   21.4500   18.9400 N.pl3 322  ARG322      0.1354
    123  N         21.9950   17.4910   16.2080 N.3   333  GLN333     -0.1245
    124  CA        21.0810   17.9920   15.1850 C.3   333  GLN333      0.1566
    125  C         21.6150   19.3360   14.7300 C.2   333  GLN333      0.2260
    126  O         21.7420   20.2790   15.5330 O.2   333  GLN333     -0.2867
    127  CB        19.6870   18.1980   15.7780 C.3   333  GLN333      0.0367
    128  CG        18.7590   18.9070   14.7960 C.3   333  GLN333      0.0905
    129  CD        17.3660   19.1820   15.3190 C.2   333  GLN333      0.2608
    130  OE1       17.0770   19.0300   16.5400 O.2   333  GLN333     -0.2717
    131  NE2       16.4910   19.5960   14.4120 N.am  333  GLN333     -0.0878
    132  N         22.0120   21.8810   10.8120 N.3   335  PHE335     -0.1241
    133  CA        21.8130   22.0000    9.3730 C.3   335  PHE335      0.1605
    134  C         22.7370   23.0100    8.6970 C.2   335  PHE335      0.2264
    135  O         22.7780   23.0440    7.4660 O.2   335  PHE335     -0.2867
    136  CB        20.3330   22.2680    9.0480 C.3   335  PHE335      0.0534
    137  CG        19.4030   21.1860    9.5220 C.ar  335  PHE335     -0.0203
    138  CD1       18.9530   21.1510   10.8410 C.ar  335  PHE335     -0.0042
    139  CD2       18.9910   20.1780    8.6660 C.ar  335  PHE335     -0.0042
    140  CE1       18.0900   20.1350   11.2530 C.ar  335  PHE335     -0.0003
    141  CE2       18.1160   19.1830    9.0750 C.ar  335  PHE335     -0.0003
    142  CZ        17.6850   19.1610   10.3760 C.ar  335  PHE335     -0.0000
@<TRIPOS>BOND
     1    71    72    2
     2    71    70    1
     3    69    70    1
     4    84    83    2
     5    70    73    1
     6    83    82    1
     7    81    82    1
     8    73    74    1
     9    82    85    1
    10    74    75   ar
    11    74    76   ar
    12    75    77   ar
    13    85    86    1
    14    76    78   ar
    15    77    79   ar
    16    36    35    1
    17    36    37    1
    18    36    39    1
    19    78    79   ar
    20    57    56   ar
    21    57    55   ar
    22    86    87    1
    23    35    27   am
    24    37    38    2
    25   135   134    2
    26    79    80    1
    27    40    39    1
    28    40    41    1
    29    90    91    1
    30    56    54   ar
    31    55    53   ar
    32    43    41   ar
    33    41    42   ar
    34    87    88   ar
    35    87    89   ar
    36    27    26    1
    37    27    28    2
    38    26    29    1
    39    26    25    1
    40   139   141   ar
    41   139   137   ar
    42   134   133    1
    43    29    30    1
    44    98    99    1
    45   136   133    1
    46   136   137    1
    47   141   142   ar
    48    93    92    2
    49    54    51   ar
    50    91    92    1
    51    91    94    1
    52    53    51   ar
    53    53    52   ar
    54   133   132    1
    55   137   138   ar
    56    30    32   ar
    57    30    31   ar
    58    51    49   ar
    59    32    34   ar
    60    94    95    1
    61    99   102    1
    62    99   100    1
    63    52    50   ar
    64   142   140   ar
    65   102   103    1
    66   108   110   ar
    67   108   105   ar
    68   138   140   ar
    69   101   100    2
    70   100   112   am
    71    31    33   ar
    72   110   111   ar
    73    34    33   ar
    74    49    50   ar
    75    49    48    1
    76    95    96    2
    77    95    97   am
    78    44    45    1
    79   103   105   ar
    80   103   104   ar
    81   105   107   ar
    82    67    65   ar
    83    67    68   ar
    84    65    63   ar
    85    48    45    1
    86   111   109   ar
    87   112   113    1
    88   104   106   ar
    89    45    46    1
    90   107   109   ar
    91   107   106   ar
    92    68    66   ar
    93    58    46   am
    94    58    59    1
    95    63    62    1
    96    63    64   ar
    97    61    60    2
    98   115   114    2
    99   113   114    1
   100   113   116    1
   101    62    59    1
   102    46    47    2
   103    59    60    1
   104    66    64   ar
   105     9    10   ar
   106     9     7   ar
   107   131   129   am
   108    10     8   ar
   109   125   124    1
   110   125   126    2
   111   128   129    1
   112   128   127    1
   113   116   117    1
   114   124   127    1
   115   124   123    1
   116     7     6   ar
   117   129   130    2
   118   117   118    1
   119     8     6   ar
   120    19    17   ar
   121    19    20   ar
   122     6     5    1
   123    17    16   ar
   124   118   119    1
   125     1     2    1
   126    20    22   ar
   127    20    18   ar
   128    22    24   ar
   129     2     5    1
   130     2     3    1
   131   119   120    2
   132    16    18   ar
   133    16    15    1
   134    18    21   ar
   135    24    23   ar
   136     3     4    2
   137    12    15    1
   138    12    11    1
   139    12    13    1
   140   120   122    1
   141   120   121    1
   142    14    13    2
   143    21    23   ar
