@<TRIPOS>MOLECULE
tmp/4cd4A00.pdb
 101 98 0 0 0
SMALL
GASTEIGER

@<TRIPOS>ATOM
      1  N         17.7370   29.0290   10.8490 N.3    33  GLU33      -0.1245
      2  CA        16.9120   29.0830   12.0460 C.3    33  GLU33       0.1567
      3  C         17.7270   29.2430   13.3200 C.2    33  GLU33       0.2260
      4  O         18.7670   28.5910   13.4930 O.2    33  GLU33      -0.2867
      5  CB        16.1200   27.7940   12.1260 C.3    33  GLU33       0.0388
      6  CG        15.0850   27.6950   13.2490 C.3    33  GLU33       0.1160
      7  CD        13.8640   28.5500   13.0500 C.2    33  GLU33       0.3649
      8  OE1       13.7190   29.1850   12.0030 O.co2  33  GLU33      -0.2457
      9  OE2       12.9890   28.5540   13.9890 O.co2  33  GLU33      -0.2457
     10  N         11.2070   31.0120   16.1770 N.3    65  GLU65      -0.1245
     11  CA        10.1680   30.0300   16.4950 C.3    65  GLU65       0.1567
     12  C          9.4790   30.4210   17.8040 C.2    65  GLU65       0.2260
     13  O         10.1430   30.5980   18.8340 O.2    65  GLU65      -0.2867
     14  CB        10.8460   28.6680   16.6030 C.3    65  GLU65       0.0388
     15  CG        10.0680   27.5860   17.2950 C.3    65  GLU65       0.1160
     16  CD         8.7440   27.2870   16.6640 C.2    65  GLU65       0.3649
     17  OE1        8.6560   27.1640   15.4190 O.co2  65  GLU65      -0.2457
     18  OE2        7.7660   27.1510   17.4360 O.co2  65  GLU65      -0.2457
     19  N         10.0910   26.5880   23.0750 N.3    77  LEU77      -0.1231
     20  CA        10.1870   25.1590   23.3320 C.3    77  LEU77       0.1693
     21  C         11.6100   24.5970   23.2370 C.2    77  LEU77       0.2592
     22  O         11.8590   23.4790   23.6980 O.2    77  LEU77      -0.2718
     23  CB         9.2320   24.3590   22.4400 C.3    77  LEU77       0.0284
     24  CG         9.6180   24.1360   20.9670 C.3    77  LEU77       0.0019
     25  CD1        8.5660   23.2250   20.3320 C.3    77  LEU77       0.0001
     26  CD2        9.7790   25.4110   20.1560 C.3    77  LEU77       0.0001
     27  N         12.5340   25.3550   22.6370 N.am   78  ASP78      -0.1974
     28  CA        13.9580   25.0000   22.5740 C.3    78  ASP78       0.1709
     29  C         14.7900   25.8760   23.5190 C.2    78  ASP78       0.2293
     30  O         16.0130   25.9620   23.3750 O.2    78  ASP78      -0.2864
     31  CB        14.4550   25.1670   21.1360 C.3    78  ASP78       0.1436
     32  CG        13.7420   24.2720   20.1720 C.2    78  ASP78       0.3671
     33  OD1       13.4940   23.0810   20.4950 O.co2  78  ASP78      -0.2456
     34  OD2       13.4230   24.7500   19.0640 O.co2  78  ASP78      -0.2456
     35  N          5.3620   26.3650   16.5320 N.3   104  HIS104     -0.1241
     36  CA         5.0060   25.0130   16.9760 C.3   104  HIS104      0.1621
     37  C          4.0900   25.1570   18.2010 C.2   104  HIS104      0.2264
     38  O          4.5060   25.0260   19.3540 O.2   104  HIS104     -0.2867
     39  CB         6.2700   24.2040   17.3250 C.3   104  HIS104      0.0745
     40  CG         7.0700   23.7280   16.1430 C.ar  104  HIS104      0.0817
     41  ND1        7.7410   24.5640   15.2890 N.ar  104  HIS104     -0.2268
     42  CD2        7.3520   22.4710   15.7240 C.ar  104  HIS104      0.1154
     43  CE1        8.3900   23.8520   14.3860 C.ar  104  HIS104      0.1986
     44  NE2        8.1660   22.5770   14.6230 N.ar  104  HIS104     -0.2212
     45  N          3.4540   17.8200   18.7540 N.3   115  TRP115     -0.1241
     46  CA         3.4940   16.4270   18.3210 C.3   115  TRP115      0.1605
     47  C          2.4850   15.5430   19.0620 C.2   115  TRP115      0.2264
     48  O          2.3530   14.3540   18.7330 O.2   115  TRP115     -0.2867
     49  CB         4.9000   15.8430   18.4720 C.3   115  TRP115      0.0550
     50  CG         5.9550   16.5640   17.6400 C.ar  115  TRP115      0.0003
     51  CD1        6.3590   16.2490   16.3920 C.ar  115  TRP115      0.0946
     52  CD2        6.6930   17.7270   18.0230 C.ar  115  TRP115      0.0152
     53  NE1        7.3330   17.1170   15.9650 N.ar  115  TRP115     -0.2442
     54  CE2        7.5450   18.0500   16.9410 C.ar  115  TRP115      0.0810
     55  CE3        6.7080   18.5390   19.1590 C.ar  115  TRP115      0.0012
     56  CZ2        8.3900   19.1450   16.9720 C.ar  115  TRP115      0.0191
     57  CZ3        7.5580   19.6100   19.1860 C.ar  115  TRP115      0.0001
     58  CH2        8.3910   19.9040   18.0980 C.ar  115  TRP115      0.0015
     59  N         17.4430   24.5090    8.8310 N.3   321  TRP321     -0.1227
     60  CA        16.9870   24.4620   10.2190 C.3   321  TRP321      0.1737
     61  C         18.1480   24.6320   11.2210 C.2   321  TRP321      0.2595
     62  O         19.2900   24.9380   10.8440 O.2   321  TRP321     -0.2718
     63  CB        16.1080   23.2140   10.4480 C.3   321  TRP321      0.0564
     64  CG        15.1240   23.3520   11.5810 C.ar  321  TRP321      0.0003
     65  CD1       15.0930   22.6290   12.7320 C.ar  321  TRP321      0.0946
     66  CD2       14.0340   24.2930   11.6710 C.ar  321  TRP321      0.0152
     67  NE1       14.0630   23.0460   13.5350 N.ar  321  TRP321     -0.2442
     68  CE2       13.4000   24.0780   12.9150 C.ar  321  TRP321      0.0810
     69  CE3       13.5540   25.3050   10.8390 C.ar  321  TRP321      0.0012
     70  CZ2       12.3030   24.8300   13.3140 C.ar  321  TRP321      0.0191
     71  CZ3       12.4480   26.0270   11.2450 C.ar  321  TRP321      0.0001
     72  CH2       11.8620   25.7990   12.4810 C.ar  321  TRP321      0.0015
     73  N         17.8170   24.5470   12.5100 N.am  322  ARG322     -0.1980
     74  CA        18.6450   25.0570   13.5690 C.3   322  ARG322      0.1597
     75  C         19.8670   24.1930   13.8750 C.2   322  ARG322      0.2287
     76  O         19.9070   23.0080   13.5330 O.2   322  ARG322     -0.2864
     77  CB        17.7960   25.2290   14.8460 C.3   322  ARG322      0.0334
     78  CG        17.4270   23.9220   15.5180 C.3   322  ARG322      0.0492
     79  CD        16.1550   24.0820   16.3960 C.3   322  ARG322      0.2205
     80  NE        15.9180   22.8770   17.1830 N.pl3 322  ARG322     -0.0865
     81  CZ        16.4780   22.6260   18.3690 C.cat 322  ARG322      0.5346
     82  NH1       17.2710   23.4990   18.9550 N.pl3 322  ARG322      0.1354
     83  NH2       16.2530   21.4500   18.9400 N.pl3 322  ARG322      0.1354
     84  N         21.2650   19.6890   24.6310 N.3   329  GLU329     -0.1245
     85  CA        20.3680   18.7720   23.9410 C.3   329  GLU329      0.1567
     86  C         21.1610   17.5030   23.5740 C.2   329  GLU329      0.2260
     87  O         22.1820   17.5420   22.8690 O.2   329  GLU329     -0.2867
     88  CB        19.8070   19.4280   22.6860 C.3   329  GLU329      0.0388
     89  CG        19.1260   20.7690   22.9600 C.3   329  GLU329      0.1160
     90  CD        18.1330   21.2070   21.8870 C.2   329  GLU329      0.3649
     91  OE1       17.4360   20.3610   21.3310 O.co2 329  GLU329     -0.2457
     92  OE2       18.0300   22.4070   21.5960 O.co2 329  GLU329     -0.2457
     93  N         21.9950   17.4910   16.2080 N.3   333  GLN333     -0.1245
     94  CA        21.0810   17.9920   15.1850 C.3   333  GLN333      0.1566
     95  C         21.6150   19.3360   14.7300 C.2   333  GLN333      0.2260
     96  O         21.7420   20.2790   15.5330 O.2   333  GLN333     -0.2867
     97  CB        19.6870   18.1980   15.7780 C.3   333  GLN333      0.0367
     98  CG        18.7590   18.9070   14.7960 C.3   333  GLN333      0.0905
     99  CD        17.3660   19.1820   15.3190 C.2   333  GLN333      0.2608
    100  OE1       17.0770   19.0300   16.5400 O.2   333  GLN333     -0.2717
    101  NE2       16.4910   19.5960   14.4120 N.am  333  GLN333     -0.0878
@<TRIPOS>BOND
     1    59    60    1
     2    60    63    1
     3    60    61    1
     4    63    64    1
     5    69    71   ar
     6    69    66   ar
     7    62    61    2
     8     1     2    1
     9    61    73   am
    10    71    72   ar
    11    64    66   ar
    12    64    65   ar
    13    66    68   ar
    14     8     7   ar
    15     2     5    1
    16     2     3    1
    17     5     6    1
    18    72    70   ar
    19    73    74    1
    20    65    67   ar
    21    68    70   ar
    22    68    67   ar
    23     7     6    1
    24     7     9   ar
    25     3     4    2
    26    76    75    2
    27    74    75    1
    28    74    77    1
    29    43    44   ar
    30    43    41   ar
    31   101    99   am
    32    44    42   ar
    33    95    94    1
    34    95    96    2
    35    98    99    1
    36    98    97    1
    37    77    78    1
    38    94    97    1
    39    94    93    1
    40    41    40   ar
    41    99   100    2
    42    17    16   ar
    43    78    79    1
    44    42    40   ar
    45    53    51   ar
    46    53    54   ar
    47    40    39    1
    48    10    11    1
    49    51    50   ar
    50    79    80    1
    51    11    14    1
    52    11    12    1
    53    35    36    1
    54    14    15    1
    55    16    15    1
    56    16    18   ar
    57    54    56   ar
    58    54    52   ar
    59    56    58   ar
    60    36    39    1
    61    36    37    1
    62    80    81    2
    63    50    52   ar
    64    50    49    1
    65    12    13    2
    66    52    55   ar
    67    58    57   ar
    68    37    38    2
    69    46    49    1
    70    46    45    1
    71    46    47    1
    72    81    83    1
    73    81    82    1
    74    48    47    2
    75    34    32   ar
    76    55    57   ar
    77    26    24    1
    78    32    33   ar
    79    32    31    1
    80    25    24    1
    81    24    23    1
    82    31    28    1
    83    91    90   ar
    84    92    90   ar
    85    90    89    1
    86    23    20    1
    87    28    27    1
    88    28    29    1
    89    27    21   am
    90    88    89    1
    91    88    85    1
    92    87    86    2
    93    19    20    1
    94    21    20    1
    95    21    22    2
    96    30    29    2
    97    86    85    1
    98    85    84    1
