@<TRIPOS>MOLECULE
tmp/4cd5A01.pdb
 150 150 0 0 0
SMALL
GASTEIGER

@<TRIPOS>ATOM
      1  N         -5.1500  -26.2470   16.3810 N.3   104  HIS104     -0.1241
      2  CA        -4.7930  -24.8930   16.7370 C.3   104  HIS104      0.1621
      3  C         -3.8950  -24.9960   17.9710 C.2   104  HIS104      0.2264
      4  O         -4.3460  -24.8330   19.1330 O.2   104  HIS104     -0.2867
      5  CB        -6.0440  -24.0370   17.0040 C.3   104  HIS104      0.0745
      6  CG        -6.8430  -23.6570   15.7800 C.ar  104  HIS104      0.0817
      7  ND1       -7.5970  -24.5480   15.0480 N.ar  104  HIS104     -0.2268
      8  CD2       -7.0060  -22.4570   15.1830 C.ar  104  HIS104      0.1154
      9  CE1       -8.2050  -23.9030   14.0620 C.ar  104  HIS104      0.1986
     10  NE2       -7.8530  -22.6340   14.1090 N.ar  104  HIS104     -0.2212
     11  N         -3.2280  -17.6510   18.3370 N.3   115  TRP115     -0.1241
     12  CA        -3.2360  -16.2630   17.8820 C.3   115  TRP115      0.1605
     13  C         -2.2440  -15.3820   18.6260 C.2   115  TRP115      0.2264
     14  O         -2.1240  -14.1980   18.3260 O.2   115  TRP115     -0.2867
     15  CB        -4.6460  -15.6810   17.9870 C.3   115  TRP115      0.0550
     16  CG        -5.5960  -16.2050   16.9610 C.ar  115  TRP115      0.0003
     17  CD1       -5.9030  -15.6120   15.7630 C.ar  115  TRP115      0.0946
     18  CD2       -6.3870  -17.3930   17.0280 C.ar  115  TRP115      0.0152
     19  NE1       -6.8260  -16.3510   15.0910 N.ar  115  TRP115     -0.2442
     20  CE2       -7.1580  -17.4460   15.8350 C.ar  115  TRP115      0.0810
     21  CE3       -6.5290  -18.4120   17.9670 C.ar  115  TRP115      0.0012
     22  CZ2       -8.0330  -18.4910   15.5450 C.ar  115  TRP115      0.0191
     23  CZ3       -7.4110  -19.4610   17.6740 C.ar  115  TRP115      0.0001
     24  CH2       -8.1530  -19.4800   16.4690 C.ar  115  TRP115      0.0015
     25  N         -2.1870  -24.9140    9.5870 N.3   168  HIS168     -0.1226
     26  CA        -2.9660  -24.3620    8.4860 C.3   168  HIS168      0.1752
     27  C         -2.8320  -22.8510    8.3530 C.2   168  HIS168      0.2595
     28  O         -2.4390  -22.1320    9.2880 O.2   168  HIS168     -0.2718
     29  CB        -4.4400  -24.7980    8.6030 C.3   168  HIS168      0.0759
     30  CG        -5.1650  -24.2380    9.7850 C.ar  168  HIS168      0.0818
     31  ND1       -4.7630  -24.4560   11.0910 N.ar  168  HIS168     -0.2268
     32  CD2       -6.2740  -23.4660    9.8590 C.ar  168  HIS168      0.1154
     33  CE1       -5.6070  -23.8460   11.9060 C.ar  168  HIS168      0.1986
     34  NE2       -6.5500  -23.2650   11.1910 N.ar  168  HIS168     -0.2212
     35  N         -3.1780  -22.3530    7.1630 N.am  169  GLU169     -0.1979
     36  CA        -3.2260  -20.9000    6.8960 C.3   169  GLU169      0.1602
     37  C         -1.9020  -20.2250    7.2240 C.2   169  GLU169      0.2287
     38  O         -1.8410  -19.0870    7.6670 O.2   169  GLU169     -0.2864
     39  CB        -4.3970  -20.2450    7.6350 C.3   169  GLU169      0.0415
     40  CG        -5.7250  -20.8240    7.1980 C.3   169  GLU169      0.1163
     41  CD        -6.9100  -20.3830    8.0110 C.2   169  GLU169      0.3649
     42  OE1       -6.8000  -19.5320    8.9390 O.co2 169  GLU169     -0.2457
     43  OE2       -7.9880  -20.9980    7.7800 O.co2 169  GLU169     -0.2457
     44  N         -1.7390  -14.4660   11.2060 N.3   174  TRP174     -0.1227
     45  CA        -2.5400  -14.5060   12.4200 C.3   174  TRP174      0.1737
     46  C         -2.1390  -15.5830   13.4440 C.2   174  TRP174      0.2595
     47  O         -2.4110  -15.4400   14.6300 O.2   174  TRP174     -0.2718
     48  CB        -4.0410  -14.5730   12.1250 C.3   174  TRP174      0.0564
     49  CG        -4.4440  -15.5040   11.0230 C.ar  174  TRP174      0.0003
     50  CD1       -4.8000  -16.8170   11.1420 C.ar  174  TRP174      0.0946
     51  CD2       -4.5750  -15.1770    9.6280 C.ar  174  TRP174      0.0152
     52  NE1       -5.1180  -17.3350    9.9160 N.ar  174  TRP174     -0.2442
     53  CE2       -5.0280  -16.3490    8.9660 C.ar  174  TRP174      0.0810
     54  CE3       -4.4230  -13.9980    8.8960 C.ar  174  TRP174      0.0012
     55  CZ2       -5.3020  -16.3700    7.5980 C.ar  174  TRP174      0.0191
     56  CZ3       -4.6850  -14.0270    7.5270 C.ar  174  TRP174      0.0001
     57  CH2       -5.1100  -15.2000    6.9090 C.ar  174  TRP174      0.0015
     58  N         -1.4940  -16.6550   12.9710 N.am  175  PHE175     -0.1976
     59  CA        -1.0300  -17.7140   13.8450 C.3   175  PHE175      0.1639
     60  C          0.4690  -17.5800   14.0620 C.2   175  PHE175      0.2290
     61  O          1.1920  -17.0410   13.2190 O.2   175  PHE175     -0.2864
     62  CB        -1.3070  -19.0910   13.2640 C.3   175  PHE175      0.0560
     63  CG        -2.7600  -19.4120   13.0490 C.ar  175  PHE175     -0.0200
     64  CD1       -3.7000  -19.1740   14.0420 C.ar  175  PHE175     -0.0042
     65  CD2       -3.1850  -20.0450   11.8610 C.ar  175  PHE175     -0.0042
     66  CE1       -5.0210  -19.5200   13.8520 C.ar  175  PHE175     -0.0003
     67  CE2       -4.5010  -20.4270   11.7070 C.ar  175  PHE175     -0.0003
     68  CZ        -5.4260  -20.1620   12.6890 C.ar  175  PHE175     -0.0000
     69  N         -4.4220  -20.0880    3.1590 N.3   214  ASP214     -0.1239
     70  CA        -5.5860  -19.2160    3.0990 C.3   214  ASP214      0.1674
     71  C         -5.6340  -18.4240    1.7810 C.2   214  ASP214      0.2266
     72  O         -4.7020  -17.7390    1.4110 O.2   214  ASP214     -0.2867
     73  CB        -5.5990  -18.2480    4.2840 C.3   214  ASP214      0.1410
     74  CG        -7.0090  -17.7180    4.5610 C.2   214  ASP214      0.3668
     75  OD1       -7.5150  -16.9750    3.7580 O.co2 214  ASP214     -0.2456
     76  OD2       -7.5900  -18.0860    5.6220 O.co2 214  ASP214     -0.2456
     77  N        -12.7230  -18.4250    2.8030 N.3   245  TYR245     -0.1241
     78  CA       -13.8680  -17.6720    3.2830 C.3   245  TYR245      0.1605
     79  C        -14.0130  -16.3520    2.5280 C.2   245  TYR245      0.2264
     80  O        -15.0160  -15.6670    2.6490 O.2   245  TYR245     -0.2867
     81  CB       -13.6910  -17.3570    4.7720 C.3   245  TYR245      0.0534
     82  CG       -13.6690  -18.5550    5.7120 C.ar  245  TYR245     -0.0201
     83  CD1      -12.5050  -19.2770    5.9100 C.ar  245  TYR245     -0.0009
     84  CD2      -14.8120  -18.9920    6.3620 C.ar  245  TYR245     -0.0009
     85  CE1      -12.4640  -20.3690    6.7470 C.ar  245  TYR245      0.0417
     86  CE2      -14.7630  -20.0650    7.2460 C.ar  245  TYR245      0.0417
     87  CZ       -13.5840  -20.7360    7.4340 C.ar  245  TYR245      0.1957
     88  OH       -13.5850  -21.7810    8.3310 O.3   245  TYR245     -0.2866
     89  N        -11.6960  -25.4750    4.1800 N.3   286  GLU286     -0.1245
     90  CA       -12.5390  -24.6250    5.0330 C.3   286  GLU286      0.1567
     91  C        -13.1870  -23.5550    4.1780 C.2   286  GLU286      0.2260
     92  O        -12.5420  -22.9800    3.2990 O.2   286  GLU286     -0.2867
     93  CB       -11.7880  -23.8940    6.1740 C.3   286  GLU286      0.0388
     94  CG       -11.1310  -24.7090    7.2610 C.3   286  GLU286      0.1160
     95  CD       -10.6290  -23.8520    8.4230 C.2   286  GLU286      0.3649
     96  OE1      -11.2000  -22.7570    8.6170 O.co2 286  GLU286     -0.2457
     97  OE2       -9.6710  -24.2750    9.1320 O.co2 286  GLU286     -0.2457
     98  N        -20.2350  -16.7680    7.8820 N.3   290  ASN290     -0.1240
     99  CA       -20.5470  -16.7410    9.3110 C.3   290  ASN290      0.1653
    100  C        -21.9140  -16.1030    9.5410 C.2   290  ASN290      0.2266
    101  O        -22.2000  -15.0020    9.0410 O.2   290  ASN290     -0.2867
    102  CB       -19.4520  -15.9890   10.0550 C.3   290  ASN290      0.1155
    103  CG       -19.4570  -16.2480   11.5570 C.2   290  ASN290      0.2627
    104  OD1      -20.2810  -16.9610   12.1120 O.2   290  ASN290     -0.2716
    105  ND2      -18.4970  -15.6690   12.2070 N.am  290  ASN290     -0.0877
    106  N        -17.1810  -24.4170    8.8420 N.3   321  TRP321     -0.1227
    107  CA       -16.7300  -24.3720   10.2420 C.3   321  TRP321      0.1737
    108  C        -17.8900  -24.5710   11.2270 C.2   321  TRP321      0.2595
    109  O        -19.0280  -24.8680   10.8510 O.2   321  TRP321     -0.2718
    110  CB       -15.8670  -23.0980   10.4950 C.3   321  TRP321      0.0564
    111  CG       -14.8960  -23.2320   11.6100 C.ar  321  TRP321      0.0003
    112  CD1      -14.8950  -22.5310   12.7910 C.ar  321  TRP321      0.0946
    113  CD2      -13.7960  -24.1360   11.6700 C.ar  321  TRP321      0.0152
    114  NE1      -13.8760  -22.9660   13.5900 N.ar  321  TRP321     -0.2442
    115  CE2      -13.1730  -23.9420   12.9380 C.ar  321  TRP321      0.0810
    116  CE3      -13.2620  -25.0880   10.7850 C.ar  321  TRP321      0.0012
    117  CZ2      -12.0460  -24.6500   13.3420 C.ar  321  TRP321      0.0191
    118  CZ3      -12.1450  -25.7890   11.1850 C.ar  321  TRP321      0.0001
    119  CH2      -11.5600  -25.5770   12.4570 C.ar  321  TRP321      0.0015
    120  N        -17.5630  -24.4850   12.5260 N.am  322  ARG322     -0.1980
    121  CA       -18.4030  -24.9910   13.6050 C.3   322  ARG322      0.1597
    122  C        -19.6150  -24.1130   13.8960 C.2   322  ARG322      0.2287
    123  O        -19.6470  -22.9360   13.5770 O.2   322  ARG322     -0.2864
    124  CB       -17.5730  -25.1840   14.8920 C.3   322  ARG322      0.0334
    125  CG       -17.1460  -23.8940   15.5510 C.3   322  ARG322      0.0492
    126  CD       -15.9390  -24.0950   16.4800 C.3   322  ARG322      0.2205
    127  NE       -15.6940  -22.9090   17.2880 N.pl3 322  ARG322     -0.0865
    128  CZ       -16.3000  -22.6350   18.4380 C.cat 322  ARG322      0.5346
    129  NH1      -17.0860  -23.5090   19.0230 N.pl3 322  ARG322      0.1354
    130  NH2      -16.0490  -21.4750   19.0220 N.pl3 322  ARG322      0.1354
    131  N        -21.7820  -17.4420   16.2260 N.3   333  GLN333     -0.1245
    132  CA       -20.8270  -17.9160   15.2250 C.3   333  GLN333      0.1566
    133  C        -21.3550  -19.2560   14.7410 C.2   333  GLN333      0.2260
    134  O        -21.4260  -20.2040   15.5520 O.2   333  GLN333     -0.2867
    135  CB       -19.4370  -18.0960   15.8660 C.3   333  GLN333      0.0367
    136  CG       -18.4780  -18.7320   14.8200 C.3   333  GLN333      0.0905
    137  CD       -17.1260  -19.1340   15.4220 C.2   333  GLN333      0.2608
    138  OE1      -16.9100  -19.0590   16.6930 O.2   333  GLN333     -0.2717
    139  NE2      -16.1960  -19.5520   14.5520 N.am  333  GLN333     -0.0878
    140  N        -21.8080  -21.7950   10.8280 N.3   335  PHE335     -0.1241
    141  CA       -21.5870  -21.9120    9.3940 C.3   335  PHE335      0.1605
    142  C        -22.4850  -22.9110    8.6890 C.2   335  PHE335      0.2264
    143  O        -22.5290  -22.9370    7.4450 O.2   335  PHE335     -0.2867
    144  CB       -20.1100  -22.1680    9.0790 C.3   335  PHE335      0.0534
    145  CG       -19.1930  -21.0780    9.5740 C.ar  335  PHE335     -0.0203
    146  CD1      -18.7360  -21.0410   10.9090 C.ar  335  PHE335     -0.0042
    147  CD2      -18.7530  -20.0900    8.7170 C.ar  335  PHE335     -0.0042
    148  CE1      -17.9010  -20.0280   11.3360 C.ar  335  PHE335     -0.0003
    149  CE2      -17.9000  -19.0950    9.1390 C.ar  335  PHE335     -0.0003
    150  CZ       -17.4650  -19.0690   10.4290 C.ar  335  PHE335     -0.0000
@<TRIPOS>BOND
     1    72    71    2
     2    71    70    1
     3    79    80    2
     4    79    78    1
     5    77    78    1
     6    70    69    1
     7    70    73    1
     8    78    81    1
     9    92    91    2
    10    75    74   ar
    11    91    90    1
    12    89    90    1
    13    73    74    1
    14    74    76   ar
    15    81    82    1
    16    90    93    1
    17    82    83   ar
    18    82    84   ar
    19    83    85   ar
    20    93    94    1
    21    84    86   ar
    22    85    87   ar
    23    36    35    1
    24    36    37    1
    25    36    39    1
    26    57    56   ar
    27    57    55   ar
    28    35    27   am
    29    40    39    1
    30    40    41    1
    31    37    38    2
    32    86    87   ar
    33    94    95    1
    34    87    88    1
    35   143   142    2
    36    56    54   ar
    37    55    53   ar
    38    43    41   ar
    39    98    99    1
    40    41    42   ar
    41    27    26    1
    42    27    28    2
    43    95    96   ar
    44    95    97   ar
    45    26    29    1
    46    26    25    1
    47    29    30    1
    48   142   141    1
    49   147   149   ar
    50   147   145   ar
    51   106   107    1
    52    54    51   ar
    53    53    51   ar
    54    53    52   ar
    55   101   100    2
    56   144   141    1
    57   144   145    1
    58   149   150   ar
    59    99   100    1
    60    99   102    1
    61   141   140    1
    62   145   146   ar
    63    51    49   ar
    64    30    32   ar
    65    30    31   ar
    66    32    34   ar
    67    52    50   ar
    68   102   103    1
    69   107   110    1
    70   107   108    1
    71   150   148   ar
    72   110   111    1
    73   116   118   ar
    74   116   113   ar
    75   109   108    2
    76   146   148   ar
    77    49    50   ar
    78    49    48    1
    79    31    33   ar
    80   118   119   ar
    81    34    33   ar
    82    44    45    1
    83   108   120   am
    84   103   104    2
    85   103   105   am
    86   111   113   ar
    87   111   112   ar
    88   113   115   ar
    89    67    65   ar
    90    67    68   ar
    91    65    63   ar
    92    48    45    1
    93    45    46    1
    94   119   117   ar
    95   120   121    1
    96    68    66   ar
    97   112   114   ar
    98   115   117   ar
    99   115   114   ar
   100    58    46   am
   101    58    59    1
   102    63    62    1
   103    63    64   ar
   104    61    60    2
   105    62    59    1
   106    46    47    2
   107   123   122    2
   108   121   122    1
   109   121   124    1
   110    59    60    1
   111    66    64   ar
   112     9    10   ar
   113     9     7   ar
   114    10     8   ar
   115   139   137   am
   116   133   132    1
   117   133   134    2
   118   136   137    1
   119   136   135    1
   120   124   125    1
   121     7     6   ar
   122    19    17   ar
   123    19    20   ar
   124     8     6   ar
   125   132   135    1
   126   132   131    1
   127   137   138    2
   128    22    20   ar
   129    22    24   ar
   130   125   126    1
   131    17    16   ar
   132     6     5    1
   133    20    18   ar
   134     1     2    1
   135    24    23   ar
   136   126   127    1
   137     2     5    1
   138     2     3    1
   139    16    18   ar
   140    16    15    1
   141    18    21   ar
   142   127   128    2
   143    23    21   ar
   144    12    15    1
   145    12    11    1
   146    12    13    1
   147     3     4    2
   148    14    13    2
   149   128   130    1
   150   128   129    1
