@<TRIPOS>MOLECULE
tmp/4cd6A00.pdb
 135 135 0 0 0
SMALL
GASTEIGER

@<TRIPOS>ATOM
      1  N         -7.1290   -9.2210  -16.2480 N.3    15  PHE15      -0.1241
      2  CA        -6.7240  -10.5080  -15.6630 C.3    15  PHE15       0.1605
      3  C         -5.2320  -10.4420  -15.3000 C.2    15  PHE15       0.2264
      4  O         -4.4730   -9.8820  -16.0840 O.2    15  PHE15      -0.2867
      5  CB        -6.9710  -11.6320  -16.6820 C.3    15  PHE15       0.0534
      6  CG        -7.1410  -13.0040  -16.0850 C.ar   15  PHE15      -0.0203
      7  CD1       -8.1730  -13.2700  -15.1750 C.ar   15  PHE15      -0.0042
      8  CD2       -6.3020  -14.0440  -16.4680 C.ar   15  PHE15      -0.0042
      9  CE1       -8.3590  -14.5510  -14.6660 C.ar   15  PHE15      -0.0003
     10  CE2       -6.4870  -15.3310  -15.9490 C.ar   15  PHE15      -0.0003
     11  CZ        -7.5100  -15.5800  -15.0490 C.ar   15  PHE15      -0.0000
     12  N         -7.2120  -19.8730   -9.9770 N.3    92  ASN92      -0.1240
     13  CA        -5.9230  -20.3440  -10.4280 C.3    92  ASN92       0.1653
     14  C         -5.2220  -21.0810   -9.2900 C.2    92  ASN92       0.2266
     15  O         -5.6240  -20.9940   -8.1190 O.2    92  ASN92      -0.2867
     16  CB        -5.0490  -19.1810  -10.8800 C.3    92  ASN92       0.1155
     17  CG        -5.3540  -18.7230  -12.2930 C.2    92  ASN92       0.2627
     18  OD1       -5.9930  -19.4220  -13.0770 O.2    92  ASN92      -0.2716
     19  ND2       -4.8770  -17.5410  -12.6200 N.am   92  ASN92      -0.0877
     20  N         -3.1340  -25.6600  -14.4780 N.3    98  TRP98      -0.1227
     21  CA        -4.4330  -25.2860  -15.0710 C.3    98  TRP98       0.1737
     22  C         -5.6310  -25.7140  -14.2150 C.2    98  TRP98       0.2595
     23  O         -5.7280  -26.8620  -13.7760 O.2    98  TRP98      -0.2718
     24  CB        -4.5400  -25.8970  -16.4790 C.3    98  TRP98       0.0564
     25  CG        -5.8070  -25.6050  -17.2290 C.ar   98  TRP98       0.0003
     26  CD1       -6.3820  -24.3890  -17.4370 C.ar   98  TRP98       0.0946
     27  CD2       -6.6370  -26.5610  -17.9070 C.ar   98  TRP98       0.0152
     28  NE1       -7.5290  -24.5270  -18.1820 N.ar   98  TRP98      -0.2442
     29  CE2       -7.6950  -25.8480  -18.4990 C.ar   98  TRP98       0.0810
     30  CE3       -6.5710  -27.9430  -18.0860 C.ar   98  TRP98       0.0012
     31  CZ2       -8.6940  -26.4770  -19.2350 C.ar   98  TRP98       0.0191
     32  CZ3       -7.5600  -28.5690  -18.8290 C.ar   98  TRP98       0.0001
     33  CH2       -8.6090  -27.8420  -19.3770 C.ar   98  TRP98       0.0015
     34  N         -6.5670  -24.7900  -14.0210 N.am   99  ARG99      -0.1980
     35  CA        -7.7500  -25.0630  -13.2340 C.3    99  ARG99       0.1597
     36  C         -8.6460  -26.1850  -13.8040 C.2    99  ARG99       0.2287
     37  O         -9.4450  -26.7700  -13.0890 O.2    99  ARG99      -0.2864
     38  CB        -8.5450  -23.7750  -13.0590 C.3    99  ARG99       0.0334
     39  CG        -9.2270  -23.2850  -14.3460 C.3    99  ARG99       0.0492
     40  CD        -9.8820  -21.9360  -14.1310 C.3    99  ARG99       0.2205
     41  NE        -8.9040  -20.8480  -14.2300 N.pl3  99  ARG99      -0.0865
     42  CZ        -8.7020  -20.1040  -15.3050 C.cat  99  ARG99       0.5346
     43  NH1       -9.4260  -20.2830  -16.4130 N.pl3  99  ARG99       0.1354
     44  NH2       -7.7960  -19.1470  -15.2690 N.pl3  99  ARG99       0.1354
     45  N        -13.5770  -23.0990  -17.8520 N.3   146  GLU146     -0.1245
     46  CA       -12.6430  -24.1770  -18.2210 C.3   146  GLU146      0.1567
     47  C        -12.4740  -25.2600  -17.1530 C.2   146  GLU146      0.2260
     48  O        -11.4060  -25.8710  -17.0260 O.2   146  GLU146     -0.2867
     49  CB       -11.2780  -23.5860  -18.6050 C.3   146  GLU146      0.0388
     50  CG       -11.2980  -22.7060  -19.8370 C.3   146  GLU146      0.1160
     51  CD        -9.9990  -22.0240  -20.1350 C.2   146  GLU146      0.3649
     52  OE1       -8.9600  -22.4410  -19.5660 O.co2 146  GLU146     -0.2457
     53  OE2      -10.0280  -21.0930  -20.9880 O.co2 146  GLU146     -0.2457
     54  N        -10.4750  -21.5180  -28.3890 N.3   198  TYR198     -0.1241
     55  CA        -9.0750  -21.4090  -28.8560 C.3   198  TYR198      0.1605
     56  C         -8.8400  -22.5180  -29.8770 C.2   198  TYR198      0.2264
     57  O         -8.0690  -23.4410  -29.6510 O.2   198  TYR198     -0.2867
     58  CB        -8.1130  -21.5150  -27.6710 C.3   198  TYR198      0.0534
     59  CG        -8.2010  -20.3450  -26.7160 C.ar  198  TYR198     -0.0201
     60  CD1       -7.6260  -19.1100  -27.0390 C.ar  198  TYR198     -0.0009
     61  CD2       -8.8160  -20.4730  -25.4750 C.ar  198  TYR198     -0.0009
     62  CE1       -7.6900  -18.0330  -26.1810 C.ar  198  TYR198      0.0417
     63  CE2       -8.8940  -19.3910  -24.6100 C.ar  198  TYR198      0.0417
     64  CZ        -8.3260  -18.1880  -24.9610 C.ar  198  TYR198      0.1957
     65  OH        -8.3970  -17.1250  -24.1110 O.3   198  TYR198     -0.2866
     66  N        -14.1750  -16.6950  -24.2050 N.3   226  GLU226     -0.1245
     67  CA       -12.7840  -16.3210  -24.5080 C.3   226  GLU226      0.1567
     68  C        -12.4950  -16.7290  -25.9280 C.2   226  GLU226      0.2260
     69  O        -12.8070  -17.8350  -26.3490 O.2   226  GLU226     -0.2867
     70  CB       -11.7480  -17.0340  -23.6240 C.3   226  GLU226      0.0388
     71  CG       -11.9100  -16.8470  -22.1480 C.3   226  GLU226      0.1160
     72  CD       -10.7410  -17.4070  -21.3490 C.2   226  GLU226      0.3649
     73  OE1       -9.6620  -17.6960  -21.9210 O.co2 226  GLU226     -0.2457
     74  OE2      -10.9060  -17.5400  -20.1230 O.co2 226  GLU226     -0.2457
     75  N         -4.3220  -21.2670  -27.4470 N.3   240  TRP240     -0.1241
     76  CA        -4.4830  -21.3730  -25.9860 C.3   240  TRP240      0.1605
     77  C         -3.1670  -21.2510  -25.2260 C.2   240  TRP240      0.2264
     78  O         -3.1920  -21.0300  -24.0130 O.2   240  TRP240     -0.2867
     79  CB        -5.0940  -22.7290  -25.6180 C.3   240  TRP240      0.0550
     80  CG        -4.2490  -23.8580  -26.0970 C.ar  240  TRP240      0.0003
     81  CD1       -3.1210  -24.3560  -25.5070 C.ar  240  TRP240      0.0946
     82  CD2       -4.4200  -24.5860  -27.3120 C.ar  240  TRP240      0.0152
     83  NE1       -2.5890  -25.3580  -26.2780 N.ar  240  TRP240     -0.2442
     84  CE2       -3.3740  -25.5260  -27.3870 C.ar  240  TRP240      0.0810
     85  CE3       -5.3720  -24.5490  -28.3330 C.ar  240  TRP240      0.0012
     86  CZ2       -3.2470  -26.4120  -28.4520 C.ar  240  TRP240      0.0191
     87  CZ3       -5.2480  -25.4250  -29.3840 C.ar  240  TRP240      0.0001
     88  CH2       -4.1930  -26.3500  -29.4430 C.ar  240  TRP240      0.0015
     89  N         -0.1820  -19.6510  -23.7470 N.3   242  TYR242     -0.1241
     90  CA         0.2380  -18.2970  -23.3830 C.3   242  TYR242      0.1605
     91  C          1.7470  -18.1650  -23.1420 C.2   242  TYR242      0.2264
     92  O          2.2500  -17.0530  -23.0040 O.2   242  TYR242     -0.2867
     93  CB        -0.5430  -17.7800  -22.1750 C.3   242  TYR242      0.0534
     94  CG        -0.3480  -18.4770  -20.8710 C.ar  242  TYR242     -0.0201
     95  CD1        0.6840  -18.0870  -19.9990 C.ar  242  TYR242     -0.0009
     96  CD2       -1.2240  -19.4880  -20.4540 C.ar  242  TYR242     -0.0009
     97  CE1        0.8500  -18.6870  -18.7660 C.ar  242  TYR242      0.0417
     98  CE2       -1.0510  -20.1060  -19.2040 C.ar  242  TYR242      0.0417
     99  CZ        -0.0150  -19.6960  -18.3660 C.ar  242  TYR242      0.1957
    100  OH         0.2000  -20.2800  -17.1190 O.3   242  TYR242     -0.2866
    101  N        -10.0090  -12.2260  -25.8020 N.3   276  TRP276     -0.1227
    102  CA        -8.9890  -12.4260  -24.7590 C.3   276  TRP276      0.1737
    103  C         -7.7310  -11.8280  -25.3430 C.2   276  TRP276      0.2595
    104  O         -7.3030  -12.2930  -26.3840 O.2   276  TRP276     -0.2718
    105  CB        -8.7600  -13.9090  -24.4860 C.3   276  TRP276      0.0564
    106  CG        -7.9410  -14.1610  -23.2670 C.ar  276  TRP276      0.0003
    107  CD1       -6.5730  -14.3280  -23.2150 C.ar  276  TRP276      0.0946
    108  CD2       -8.3990  -14.2440  -21.9160 C.ar  276  TRP276      0.0152
    109  NE1       -6.1750  -14.5120  -21.9250 N.ar  276  TRP276     -0.2442
    110  CE2       -7.2760  -14.4700  -21.1090 C.ar  276  TRP276      0.0810
    111  CE3       -9.6580  -14.1560  -21.3110 C.ar  276  TRP276      0.0012
    112  CZ2       -7.3720  -14.5920  -19.7290 C.ar  276  TRP276      0.0191
    113  CZ3       -9.7560  -14.2920  -19.9470 C.ar  276  TRP276      0.0001
    114  CH2       -8.6200  -14.5120  -19.1640 C.ar  276  TRP276      0.0015
    115  N         -7.1350  -10.7870  -24.7640 N.am  277  GLU277     -0.1979
    116  CA        -7.5190  -10.0800  -23.5570 C.3   277  GLU277      0.1602
    117  C         -6.8990   -8.6930  -23.6260 C.2   277  GLU277      0.2287
    118  O         -6.1320   -8.3870  -24.5550 O.2   277  GLU277     -0.2864
    119  CB        -7.0190  -10.8170  -22.2920 C.3   277  GLU277      0.0415
    120  CG        -5.4830  -10.9240  -22.2450 C.3   277  GLU277      0.1163
    121  CD        -4.9300  -11.5200  -20.9760 C.2   277  GLU277      0.3649
    122  OE1       -5.4760  -11.2550  -19.8960 O.co2 277  GLU277     -0.2457
    123  OE2       -3.8950  -12.2080  -21.0680 O.co2 277  GLU277     -0.2457
    124  N         -1.5930  -11.5460  -25.9640 N.3   294  TYR294     -0.1241
    125  CA        -2.9290  -11.6690  -26.5680 C.3   294  TYR294      0.1605
    126  C         -3.5540  -10.3220  -26.9560 C.2   294  TYR294      0.2264
    127  O         -4.5310  -10.2770  -27.7290 O.2   294  TYR294     -0.2867
    128  CB        -3.8530  -12.3810  -25.5700 C.3   294  TYR294      0.0534
    129  CG        -3.6710  -13.8560  -25.4970 C.ar  294  TYR294     -0.0201
    130  CD1       -4.3310  -14.6980  -26.3700 C.ar  294  TYR294     -0.0009
    131  CD2       -2.8770  -14.4380  -24.5010 C.ar  294  TYR294     -0.0009
    132  CE1       -4.1800  -16.0820  -26.2880 C.ar  294  TYR294      0.0417
    133  CE2       -2.7370  -15.8060  -24.4100 C.ar  294  TYR294      0.0417
    134  CZ        -3.3690  -16.6320  -25.3070 C.ar  294  TYR294      0.1957
    135  OH        -3.1880  -18.0100  -25.2060 O.3   294  TYR294     -0.2866
@<TRIPOS>BOND
     1    56    57    2
     2    56    55    1
     3    88    87   ar
     4    88    86   ar
     5    87    85   ar
     6    55    54    1
     7    55    58    1
     8    86    84   ar
     9    85    82   ar
    10   127   126    2
    11    58    59    1
    12    75    76    1
    13    84    82   ar
    14    84    83   ar
    15    82    80   ar
    16    60    59   ar
    17    60    62   ar
    18   126   125    1
    19    59    61   ar
    20   125   124    1
    21   125   128    1
    22   104   103    2
    23   130   132   ar
    24   130   129   ar
    25    69    68    2
    26   132   134   ar
    27    83    81   ar
    28    62    64   ar
    29    80    79    1
    30    80    81   ar
    31    76    79    1
    32    76    77    1
    33    68    67    1
    34   101   102    1
    35   128   129    1
    36   129   131   ar
    37    61    63   ar
    38   103   115   am
    39   103   102    1
    40   134   135    1
    41   134   133   ar
    42    77    78    2
    43    64    63   ar
    44    64    65    1
    45   115   116    1
    46   102   105    1
    47   118   117    2
    48    67    66    1
    49    67    70    1
    50   131   133   ar
    51   105   106    1
    52    89    90    1
    53   117   116    1
    54    70    71    1
    55   116   119    1
    56    90    91    1
    57    90    93    1
    58   106   107   ar
    59   106   108   ar
    60   107   109   ar
    61    91    92    2
    62   119   120    1
    63   120   121    1
    64    93    94    1
    65    71    72    1
    66   109   110   ar
    67    73    72   ar
    68   108   111   ar
    69   108   110   ar
    70    72    74   ar
    71   111   113   ar
    72   110   112   ar
    73   123   121   ar
    74    53    51   ar
    75   121   122   ar
    76    94    96   ar
    77    94    95   ar
    78    96    98   ar
    79    51    50    1
    80    51    52   ar
    81    95    97   ar
    82   113   114   ar
    83    50    49    1
    84   112   114   ar
    85    33    31   ar
    86    33    32   ar
    87    31    29   ar
    88    98    99   ar
    89    32    30   ar
    90    97    99   ar
    91    49    46    1
    92    29    28   ar
    93    29    27   ar
    94    99   100    1
    95    46    45    1
    96    46    47    1
    97    28    26   ar
    98    30    27   ar
    99    27    25   ar
   100    26    25   ar
   101    25    24    1
   102    47    48    2
   103     5     6    1
   104     5     2    1
   105    24    21    1
   106     8     6   ar
   107     8    10   ar
   108    43    42    1
   109     1     2    1
   110     6     7   ar
   111     4     3    2
   112    10    11   ar
   113     2     3    1
   114    42    44    1
   115    42    41    2
   116     7     9   ar
   117    21    20    1
   118    21    22    1
   119    11     9   ar
   120    39    40    1
   121    39    38    1
   122    41    40    1
   123    22    34   am
   124    22    23    2
   125    34    35    1
   126    36    35    1
   127    36    37    2
   128    35    38    1
   129    18    17    2
   130    19    17   am
   131    17    16    1
   132    16    13    1
   133    13    12    1
   134    13    14    1
   135    14    15    2
