@<TRIPOS>MOLECULE
tmp/4cd7A00.pdb
 127 127 0 0 0
SMALL
GASTEIGER

@<TRIPOS>ATOM
      1  N        -13.5460  -37.7900   20.6650 N.3    98  TRP98      -0.1227
      2  CA       -13.4410  -36.3900   20.3150 C.3    98  TRP98       0.1737
      3  C        -13.2840  -35.5270   21.5670 C.2    98  TRP98       0.2595
      4  O        -13.9430  -35.7630   22.5850 O.2    98  TRP98      -0.2718
      5  CB       -14.7040  -35.9850   19.5540 C.3    98  TRP98       0.0564
      6  CG       -14.8400  -34.5350   19.2210 C.ar   98  TRP98       0.0003
      7  CD1      -13.8800  -33.6990   18.6960 C.ar   98  TRP98       0.0946
      8  CD2      -16.0270  -33.7610   19.3180 C.ar   98  TRP98       0.0152
      9  NE1      -14.4040  -32.4500   18.4960 N.ar   98  TRP98      -0.2442
     10  CE2      -15.7280  -32.4730   18.8520 C.ar   98  TRP98       0.0810
     11  CE3      -17.3310  -34.0420   19.7490 C.ar   98  TRP98       0.0012
     12  CZ2      -16.6660  -31.4690   18.8300 C.ar   98  TRP98       0.0191
     13  CZ3      -18.2520  -33.0490   19.7170 C.ar   98  TRP98       0.0001
     14  CH2      -17.9110  -31.7670   19.2750 C.ar   98  TRP98       0.0015
     15  N        -12.4130  -34.5290   21.4830 N.am   99  ARG99      -0.1980
     16  CA       -12.1330  -33.6330   22.6000 C.3    99  ARG99       0.1597
     17  C        -13.3240  -32.7940   23.0330 C.2    99  ARG99       0.2287
     18  O        -13.3600  -32.3140   24.1530 O.2    99  ARG99      -0.2864
     19  CB       -10.9680  -32.7020   22.2660 C.3    99  ARG99       0.0334
     20  CG       -11.2570  -31.6330   21.2200 C.3    99  ARG99       0.0492
     21  CD        -9.9710  -30.9450   20.8040 C.3    99  ARG99       0.2205
     22  NE        -9.1900  -31.7160   19.8300 N.pl3  99  ARG99      -0.0865
     23  CZ        -9.1730  -31.4790   18.5300 C.cat  99  ARG99       0.5346
     24  NH1       -9.9070  -30.4910   18.0300 N.pl3  99  ARG99       0.1354
     25  NH2       -8.4280  -32.2310   17.7180 N.pl3  99  ARG99       0.1354
     26  N        -16.1030  -33.9890   23.7340 N.3   101  GLU101     -0.1245
     27  CA       -16.8300  -34.8710   24.6490 C.3   101  GLU101      0.1567
     28  C        -16.0490  -35.2500   25.9140 C.2   101  GLU101      0.2260
     29  O        -16.4520  -36.1520   26.6280 O.2   101  GLU101     -0.2867
     30  CB       -17.2890  -36.1350   23.9040 C.3   101  GLU101      0.0388
     31  CG       -18.2660  -35.8440   22.7780 C.3   101  GLU101      0.1160
     32  CD       -18.5480  -37.0240   21.8860 C.2   101  GLU101      0.3649
     33  OE1      -17.9510  -38.1090   22.0590 O.co2 101  GLU101     -0.2457
     34  OE2      -19.4060  -36.8610   21.0010 O.co2 101  GLU101     -0.2457
     35  N        -12.8580  -26.6190   19.7250 N.3   146  GLU146     -0.1245
     36  CA       -14.0050  -27.5170   19.7260 C.3   146  GLU146      0.1567
     37  C        -14.3100  -28.1390   21.0890 C.2   146  GLU146      0.2260
     38  O        -14.7880  -29.2800   21.1560 O.2   146  GLU146     -0.2867
     39  CB       -13.8310  -28.6170   18.6720 C.3   146  GLU146      0.0388
     40  CG       -13.7410  -28.1210   17.2280 C.3   146  GLU146      0.1160
     41  CD       -13.4180  -29.2290   16.2240 C.2   146  GLU146      0.3649
     42  OE1      -13.3860  -30.4440   16.5760 O.co2 146  GLU146     -0.2457
     43  OE2      -13.1430  -28.8720   15.0610 O.co2 146  GLU146     -0.2457
     44  N        -16.7660  -25.1560   18.0300 N.3   177  ASN177     -0.1225
     45  CA       -17.2960  -26.0340   16.9870 C.3   177  ASN177      0.1785
     46  C        -18.4000  -25.3120   16.2210 C.2   177  ASN177      0.2597
     47  O        -19.0340  -24.3930   16.7430 O.2   177  ASN177     -0.2718
     48  CB       -17.8280  -27.3470   17.5750 C.3   177  ASN177      0.1169
     49  CG       -17.8990  -28.4520   16.5330 C.2   177  ASN177      0.2627
     50  OD1      -17.1360  -28.4500   15.5720 O.2   177  ASN177     -0.2716
     51  ND2      -18.8410  -29.3910   16.7050 N.am  177  ASN177     -0.0877
     52  N        -18.6340  -25.7210   14.9780 N.am  178  HIS178     -0.1975
     53  CA       -19.7900  -25.1990   14.2560 C.3   178  HIS178      0.1656
     54  C        -21.0210  -25.4450   15.1120 C.2   178  HIS178      0.2291
     55  O        -21.1810  -26.5260   15.7320 O.2   178  HIS178     -0.2864
     56  CB       -19.9520  -25.8480   12.8790 C.3   178  HIS178      0.0771
     57  CG       -20.0300  -27.3360   12.9200 C.ar  178  HIS178      0.0820
     58  ND1      -21.2310  -28.0050   12.8980 N.ar  178  HIS178     -0.2267
     59  CD2      -19.0700  -28.2850   13.0090 C.ar  178  HIS178      0.1154
     60  CE1      -21.0150  -29.3040   12.9680 C.ar  178  HIS178      0.1986
     61  NE2      -19.7100  -29.5020   13.0450 N.ar  178  HIS178     -0.2212
     62  N        -17.5530  -26.3980    9.6450 N.3   198  TYR198     -0.1241
     63  CA       -17.8380  -27.5380    8.7820 C.3   198  TYR198      0.1605
     64  C        -19.3460  -27.6410    8.5170 C.2   198  TYR198      0.2264
     65  O        -19.9900  -28.6080    8.8610 O.2   198  TYR198     -0.2867
     66  CB       -17.3190  -28.8030    9.4330 C.3   198  TYR198      0.0534
     67  CG       -15.8020  -28.8390    9.5800 C.ar  198  TYR198     -0.0201
     68  CD1      -14.9900  -29.1110    8.4950 C.ar  198  TYR198     -0.0009
     69  CD2      -15.1900  -28.6390   10.8190 C.ar  198  TYR198     -0.0009
     70  CE1      -13.6000  -29.1690    8.6250 C.ar  198  TYR198      0.0417
     71  CE2      -13.8100  -28.6930   10.9680 C.ar  198  TYR198      0.0417
     72  CZ       -13.0160  -28.9650    9.8660 C.ar  198  TYR198      0.1957
     73  OH       -11.6420  -29.0460    9.9800 O.3   198  TYR198     -0.2866
     74  N        -11.0360  -23.4060   11.4060 N.3   226  GLU226     -0.1245
     75  CA       -10.9460  -24.6260   10.5720 C.3   226  GLU226      0.1567
     76  C        -12.0960  -24.5780    9.5640 C.2   226  GLU226      0.2260
     77  O        -13.2080  -24.2480    9.9450 O.2   226  GLU226     -0.2867
     78  CB       -11.1390  -25.9270   11.3640 C.3   226  GLU226      0.0388
     79  CG       -10.2380  -26.1440   12.5520 C.3   226  GLU226      0.1160
     80  CD       -10.2150  -27.5910   13.0420 C.2   226  GLU226      0.3649
     81  OE1      -10.8050  -28.4880   12.3910 O.co2 226  GLU226     -0.2457
     82  OE2       -9.6170  -27.8170   14.1160 O.co2 226  GLU226     -0.2457
     83  N        -17.3260  -32.2860    8.5440 N.3   240  TRP240     -0.1227
     84  CA       -16.6240  -32.4410    9.8360 C.3   240  TRP240      0.1737
     85  C        -16.0720  -33.8540   10.0390 C.2   240  TRP240      0.2595
     86  O        -15.1310  -34.0320   10.8050 O.2   240  TRP240     -0.2718
     87  CB       -17.5470  -32.1120   11.0300 C.3   240  TRP240      0.0564
     88  CG       -18.7750  -32.9900   11.0960 C.ar  240  TRP240      0.0003
     89  CD1      -18.8600  -34.2580   11.6410 C.ar  240  TRP240      0.0946
     90  CD2      -20.0740  -32.7100   10.5440 C.ar  240  TRP240      0.0152
     91  NE1      -20.1310  -34.7540   11.4730 N.ar  240  TRP240     -0.2442
     92  CE2      -20.8950  -33.8230   10.8170 C.ar  240  TRP240      0.0810
     93  CE3      -20.6260  -31.6120    9.8680 C.ar  240  TRP240      0.0012
     94  CZ2      -22.2480  -33.8800   10.4320 C.ar  240  TRP240      0.0191
     95  CZ3      -21.9810  -31.6620    9.4820 C.ar  240  TRP240      0.0001
     96  CH2      -22.7700  -32.7960    9.7650 C.ar  240  TRP240      0.0015
     97  N        -16.6590  -34.8420    9.3630 N.am  241  ASP241     -0.1960
     98  CA       -16.4280  -36.2570    9.6850 C.3   241  ASP241      0.1840
     99  C        -15.2480  -36.8690    8.9360 C.2   241  ASP241      0.2622
    100  O        -15.3890  -37.3710    7.8140 O.2   241  ASP241     -0.2715
    101  CB       -17.7050  -37.0600    9.4160 C.3   241  ASP241      0.1450
    102  CG       -17.6020  -38.4890    9.8610 C.2   241  ASP241      0.3671
    103  OD1      -16.5560  -38.9010   10.4030 O.co2 241  ASP241     -0.2456
    104  OD2      -18.5890  -39.2170    9.6800 O.co2 241  ASP241     -0.2456
    105  N        -14.0870  -36.8790    9.5810 N.am  242  TYR242     -0.1960
    106  CA       -12.8850  -37.4250    8.9450 C.3   242  TYR242      0.1771
    107  C        -12.9550  -38.9250    8.7240 C.2   242  TYR242      0.2619
    108  O        -12.1920  -39.4460    7.9290 O.2   242  TYR242     -0.2715
    109  CB       -11.6100  -37.0240    9.6970 C.3   242  TYR242      0.0574
    110  CG       -11.3400  -37.7200   11.0130 C.ar  242  TYR242     -0.0198
    111  CD1      -10.6580  -38.9400   11.0490 C.ar  242  TYR242     -0.0009
    112  CD2      -11.6960  -37.1280   12.2300 C.ar  242  TYR242     -0.0009
    113  CE1      -10.3900  -39.5770   12.2490 C.ar  242  TYR242      0.0417
    114  CE2      -11.4250  -37.7570   13.4370 C.ar  242  TYR242      0.0417
    115  CZ       -10.7680  -38.9780   13.4420 C.ar  242  TYR242      0.1957
    116  OH       -10.5040  -39.6160   14.6390 O.3   242  TYR242     -0.2866
    117  N        -13.8690  -39.6070    9.4160 N.am  243  ARG243     -0.1977
    118  CA       -14.0430  -41.0680    9.2540 C.3   243  ARG243      0.1597
    119  C        -15.1260  -41.4480    8.2320 C.2   243  ARG243      0.2287
    120  O        -15.4110  -42.6290    8.0440 O.2   243  ARG243     -0.2864
    121  CB       -14.4450  -41.7100   10.5780 C.3   243  ARG243      0.0334
    122  CG       -13.4720  -41.5890   11.7280 C.3   243  ARG243      0.0492
    123  CD       -14.0460  -42.3550   12.9140 C.3   243  ARG243      0.2205
    124  NE       -13.1430  -42.3820   14.0620 N.pl3 243  ARG243     -0.0865
    125  CZ       -13.0890  -41.4680   15.0300 C.cat 243  ARG243      0.5346
    126  NH1      -13.8800  -40.3980   15.0070 N.pl3 243  ARG243      0.1354
    127  NH2      -12.2220  -41.6240   16.0270 N.pl3 243  ARG243      0.1354
@<TRIPOS>BOND
     1   100    99    2
     2   108   107    2
     3   120   119    2
     4   119   118    1
     5    68    70   ar
     6    68    67   ar
     7    64    63    1
     8    64    65    2
     9    83    84    1
    10    70    72   ar
    11   107   106    1
    12   107   117   am
    13    63    66    1
    14    63    62    1
    15    99   105   am
    16    99    98    1
    17   106   105    1
    18   106   109    1
    19   118   117    1
    20   118   121    1
    21    97    98    1
    22    97    85   am
    23   101    98    1
    24   101   102    1
    25    66    67    1
    26    95    96   ar
    27    95    93   ar
    28    76    77    2
    29    76    75    1
    30    67    69   ar
    31   104   102   ar
    32   109   110    1
    33    96    94   ar
    34    84    85    1
    35    84    87    1
    36   102   103   ar
    37    72    73    1
    38    72    71   ar
    39    93    90   ar
    40    85    86    2
    41    94    92   ar
    42    90    92   ar
    43    90    88   ar
    44    75    78    1
    45    75    74    1
    46   121   122    1
    47    92    91   ar
    48    69    71   ar
    49   110   111   ar
    50   110   112   ar
    51    87    88    1
    52   111   113   ar
    53    88    89   ar
    54    78    79    1
    55    91    89   ar
    56   122   123    1
    57   112   114   ar
    58   113   115   ar
    59    81    80   ar
    60    79    80    1
    61    56    57    1
    62    56    53    1
    63    58    57   ar
    64    58    60   ar
    65   123   124    1
    66    57    59   ar
    67    60    61   ar
    68    59    61   ar
    69    80    82   ar
    70   114   115   ar
    71   115   116    1
    72   124   125    2
    73    53    52    1
    74    53    54    1
    75    52    46   am
    76   126   125    1
    77   125   127    1
    78    43    41   ar
    79    54    55    2
    80    50    49    2
    81    46    47    2
    82    46    45    1
    83    41    42   ar
    84    41    40    1
    85    49    51   am
    86    49    48    1
    87    45    48    1
    88    45    44    1
    89    40    39    1
    90    25    23    1
    91    24    23    1
    92     9     7   ar
    93     9    10   ar
    94    23    22    2
    95    39    36    1
    96     7     6   ar
    97    12    10   ar
    98    12    14   ar
    99    10     8   ar
   100     6     8   ar
   101     6     5    1
   102    14    13   ar
   103     8    11   ar
   104     5     2    1
   105    13    11   ar
   106    35    36    1
   107    36    37    1
   108    22    21    1
   109     2     1    1
   110     2     3    1
   111    21    20    1
   112    34    32   ar
   113    37    38    2
   114    20    19    1
   115    15     3   am
   116    15    16    1
   117     3     4    2
   118    32    33   ar
   119    32    31    1
   120    19    16    1
   121    16    17    1
   122    31    30    1
   123    17    18    2
   124    26    27    1
   125    30    27    1
   126    27    28    1
   127    28    29    2
