@<TRIPOS>MOLECULE
tmp/4cd8A00.pdb
 174 172 0 0 0
SMALL
GASTEIGER

@<TRIPOS>ATOM
      1  N         15.7550   -9.6360  -17.1070 N.3    15  PHE15      -0.1241
      2  CA        16.2070  -10.9400  -16.5490 C.3    15  PHE15       0.1605
      3  C         17.7120  -10.8610  -16.2910 C.2    15  PHE15       0.2264
      4  O         18.4290  -10.2900  -17.1010 O.2    15  PHE15      -0.2867
      5  CB        15.9030  -12.0620  -17.5530 C.3    15  PHE15       0.0534
      6  CG        15.7600  -13.4270  -16.9440 C.ar   15  PHE15      -0.0203
      7  CD1       14.7590  -13.6710  -16.0050 C.ar   15  PHE15      -0.0042
      8  CD2       16.5840  -14.4790  -17.3400 C.ar   15  PHE15      -0.0042
      9  CE1       14.5860  -14.9110  -15.4850 C.ar   15  PHE15      -0.0003
     10  CE2       16.4050  -15.7490  -16.8110 C.ar   15  PHE15      -0.0003
     11  CZ        15.4030  -15.9670  -15.8830 C.ar   15  PHE15      -0.0000
     12  N          6.7100  -12.1780  -14.1670 N.3    88  LYS88      -0.1245
     13  CA         7.1940  -13.5320  -14.3460 C.3    88  LYS88       0.1561
     14  C          8.3120  -13.8600  -13.3880 C.2    88  LYS88       0.2260
     15  O          9.5120  -13.7250  -13.7270 O.2    88  LYS88      -0.2867
     16  CB         7.6440  -13.7900  -15.7790 C.3    88  LYS88       0.0271
     17  CG         8.0960  -15.2090  -16.0650 C.3    88  LYS88       0.0035
     18  CD         8.4350  -15.3530  -17.5310 C.3    88  LYS88       0.0206
     19  CE         9.4290  -16.4560  -17.8400 C.3    88  LYS88       0.1093
     20  NZ         9.4960  -16.6350  -19.2990 N.3    88  LYS88      -0.1314
     21  N         16.0740  -20.2800  -10.8190 N.3    92  ASN92      -0.1240
     22  CA        17.2720  -20.8870  -11.3780 C.3    92  ASN92       0.1653
     23  C         17.9950  -21.6370  -10.2810 C.2    92  ASN92       0.2266
     24  O         17.7550  -21.4100   -9.1130 O.2    92  ASN92      -0.2867
     25  CB        18.1990  -19.8120  -11.9450 C.3    92  ASN92       0.1155
     26  CG        17.6890  -19.2550  -13.2680 C.2    92  ASN92       0.2627
     27  OD1       16.8200  -19.8720  -13.8990 O.2    92  ASN92      -0.2716
     28  ND2       18.2150  -18.1030  -13.6870 N.am   92  ASN92      -0.0877
     29  N         19.3410  -26.6180  -15.1600 N.3    98  TRP98      -0.1227
     30  CA        18.1520  -26.0120  -15.7500 C.3    98  TRP98       0.1737
     31  C         16.9670  -26.2920  -14.8560 C.2    98  TRP98       0.2595
     32  O         16.8110  -27.4000  -14.3400 O.2    98  TRP98      -0.2718
     33  CB        17.9470  -26.5380  -17.1480 C.3    98  TRP98       0.0564
     34  CG        16.6450  -26.1900  -17.8220 C.ar   98  TRP98       0.0003
     35  CD1       16.0830  -24.9400  -17.9830 C.ar   98  TRP98       0.0946
     36  CD2       15.7430  -27.1110  -18.4280 C.ar   98  TRP98       0.0152
     37  NE1       14.8790  -25.0530  -18.6610 N.ar   98  TRP98      -0.2442
     38  CE2       14.6650  -26.3680  -18.9560 C.ar   98  TRP98       0.0810
     39  CE3       15.7560  -28.4890  -18.6090 C.ar   98  TRP98       0.0012
     40  CZ2       13.5970  -26.9810  -19.6140 C.ar   98  TRP98       0.0191
     41  CZ3       14.7300  -29.0720  -19.2610 C.ar   98  TRP98       0.0001
     42  CH2       13.6590  -28.3230  -19.7620 C.ar   98  TRP98       0.0015
     43  N         16.1390  -25.2610  -14.7060 N.am   99  ARG99      -0.1980
     44  CA        14.9690  -25.3690  -13.8330 C.3    99  ARG99       0.1597
     45  C         14.0430  -26.5110  -14.2110 C.2    99  ARG99       0.2287
     46  O         13.3440  -27.0340  -13.3690 O.2    99  ARG99      -0.2864
     47  CB        14.2370  -24.0380  -13.7900 C.3    99  ARG99       0.0334
     48  CG        13.5410  -23.6140  -15.0800 C.3    99  ARG99       0.0492
     49  CD        13.0500  -22.1890  -14.9810 C.3    99  ARG99       0.2205
     50  NE        14.0610  -21.1580  -15.1410 N.pl3  99  ARG99      -0.0865
     51  CZ        14.3720  -20.5330  -16.2790 C.cat  99  ARG99       0.5346
     52  NH1       13.7410  -20.7700  -17.4340 N.pl3  99  ARG99       0.1354
     53  NH2       15.2950  -19.5780  -16.2460 N.pl3  99  ARG99       0.1354
     54  N          7.6630  -21.3960  -15.4560 N.3   145  CYS145     -0.1221
     55  CA         8.4410  -21.3510  -16.6720 C.3   145  CYS145      0.1808
     56  C          9.2300  -22.6480  -16.7950 C.2   145  CYS145      0.2601
     57  O         10.1160  -22.8910  -15.9910 O.2   145  CYS145     -0.2717
     58  CB         9.3620  -20.1320  -16.6030 C.3   145  CYS145      0.0970
     59  SG        10.4110  -19.9280  -18.0250 S.3   145  CYS145     -0.0800
     60  N          8.9320  -23.4320  -17.8310 N.am  146  GLU146     -0.1979
     61  CA         9.7860  -24.5430  -18.2790 C.3   146  GLU146      0.1602
     62  C         10.0070  -25.6270  -17.2470 C.2   146  GLU146      0.2287
     63  O         11.0820  -26.2530  -17.2190 O.2   146  GLU146     -0.2864
     64  CB        11.1480  -24.0100  -18.7480 C.3   146  GLU146      0.0415
     65  CG        11.0540  -23.2040  -20.0210 C.3   146  GLU146      0.1163
     66  CD        12.3010  -22.4220  -20.3440 C.2   146  GLU146      0.3649
     67  OE1       13.3690  -22.7880  -19.8310 O.co2 146  GLU146     -0.2457
     68  OE2       12.2000  -21.4570  -21.1140 O.co2 146  GLU146     -0.2457
     69  N          8.0240  -25.4850  -21.5980 N.3   177  ASN177     -0.1225
     70  CA         9.1010  -25.5230  -22.5960 C.3   177  ASN177      0.1785
     71  C          8.6040  -25.8960  -24.0000 C.2   177  ASN177      0.2597
     72  O          7.5940  -26.5590  -24.1530 O.2   177  ASN177     -0.2718
     73  CB        10.1240  -26.5200  -22.1470 C.3   177  ASN177      0.1169
     74  CG        11.4780  -26.2930  -22.7880 C.2   177  ASN177      0.2627
     75  OD1       11.8090  -25.1830  -23.1760 O.2   177  ASN177     -0.2716
     76  ND2       12.2490  -27.3470  -22.8750 N.am  177  ASN177     -0.0877
     77  N          9.3270  -25.4910  -25.0350 N.am  178  HIS178     -0.1975
     78  CA         9.0570  -26.0310  -26.3690 C.3   178  HIS178      0.1656
     79  C          9.0280  -27.5640  -26.3240 C.2   178  HIS178      0.2291
     80  O          9.8090  -28.2130  -25.5860 O.2   178  HIS178     -0.2864
     81  CB        10.0960  -25.5470  -27.3990 C.3   178  HIS178      0.0771
     82  CG        11.5070  -25.8500  -27.0210 C.ar  178  HIS178      0.0820
     83  ND1       12.1170  -27.0270  -27.3830 N.ar  178  HIS178     -0.2267
     84  CD2       12.4150  -25.1560  -26.2990 C.ar  178  HIS178      0.1154
     85  CE1       13.3580  -27.0370  -26.9170 C.ar  178  HIS178      0.1986
     86  NE2       13.5670  -25.9090  -26.2630 N.ar  178  HIS178     -0.2212
     87  N          7.8770  -21.5830  -24.3380 N.3   196  SER196     -0.1217
     88  CA         9.1960  -21.0530  -24.6990 C.3   196  SER196      0.1889
     89  C          9.5080  -21.6510  -26.0360 C.2   196  SER196      0.2288
     90  O         10.0720  -22.7220  -26.1240 O.2   196  SER196     -0.2866
     91  CB        10.2450  -21.4520  -23.6520 C.3   196  SER196      0.2089
     92  OG        10.0270  -20.7450  -22.4430 O.3   196  SER196     -0.2183
     93  N         11.3420  -21.8940  -28.6210 N.3   198  TYR198     -0.1241
     94  CA        12.6740  -21.8680  -29.2510 C.3   198  TYR198      0.1605
     95  C         12.8340  -23.0170  -30.2600 C.2   198  TYR198      0.2264
     96  O         13.6910  -23.8930  -30.1190 O.2   198  TYR198     -0.2867
     97  CB        13.7400  -21.9520  -28.1560 C.3   198  TYR198      0.0534
     98  CG        13.7530  -20.7680  -27.2200 C.ar  198  TYR198     -0.0201
     99  CD1       14.2920  -19.5520  -27.6040 C.ar  198  TYR198     -0.0009
    100  CD2       13.2640  -20.8720  -25.9450 C.ar  198  TYR198     -0.0009
    101  CE1       14.3170  -18.4640  -26.7410 C.ar  198  TYR198      0.0417
    102  CE2       13.2940  -19.8130  -25.0720 C.ar  198  TYR198      0.0417
    103  CZ        13.8180  -18.5950  -25.4700 C.ar  198  TYR198      0.1957
    104  OH        13.8590  -17.5110  -24.6270 O.3   198  TYR198     -0.2866
    105  N          8.1100  -17.0070  -24.2760 N.3   226  GLU226     -0.1245
    106  CA         9.4460  -16.6510  -24.7220 C.3   226  GLU226      0.1567
    107  C          9.6380  -17.1080  -26.1460 C.2   226  GLU226      0.2260
    108  O          9.2540  -18.2280  -26.5080 O.2   226  GLU226     -0.2867
    109  CB        10.5480  -17.3540  -23.9140 C.3   226  GLU226      0.0388
    110  CG        10.4560  -17.3010  -22.3920 C.3   226  GLU226      0.1160
    111  CD        11.6860  -17.8530  -21.6880 C.2   226  GLU226      0.3649
    112  OE1       12.6900  -18.1220  -22.3840 O.co2 226  GLU226     -0.2457
    113  OE2       11.6360  -17.9660  -20.4490 O.co2 226  GLU226     -0.2457
    114  N         17.4980  -21.6570  -28.2710 N.3   240  TRP240     -0.1241
    115  CA        17.4090  -21.6600  -26.8130 C.3   240  TRP240      0.1605
    116  C         18.7690  -21.4830  -26.1280 C.2   240  TRP240      0.2264
    117  O         18.8200  -21.2390  -24.9290 O.2   240  TRP240     -0.2867
    118  CB        16.8070  -23.0090  -26.3380 C.3   240  TRP240      0.0550
    119  CG        17.6410  -24.1670  -26.8060 C.ar  240  TRP240      0.0003
    120  CD1       18.8060  -24.6240  -26.2410 C.ar  240  TRP240      0.0946
    121  CD2       17.4390  -24.9540  -27.9890 C.ar  240  TRP240      0.0152
    122  NE1       19.3280  -25.6450  -26.9910 N.ar  240  TRP240     -0.2442
    123  CE2       18.5180  -25.8710  -28.0730 C.ar  240  TRP240      0.0810
    124  CE3       16.4640  -24.9660  -28.9900 C.ar  240  TRP240      0.0012
    125  CZ2       18.6160  -26.8240  -29.1000 C.ar  240  TRP240      0.0191
    126  CZ3       16.5650  -25.9000  -30.0120 C.ar  240  TRP240      0.0001
    127  CH2       17.6340  -26.8220  -30.0590 C.ar  240  TRP240      0.0015
    128  N         21.9040  -19.8490  -24.8840 N.3   242  TYR242     -0.1241
    129  CA        22.5330  -18.5420  -24.6200 C.3   242  TYR242      0.1605
    130  C         24.0620  -18.5850  -24.4840 C.2   242  TYR242      0.2264
    131  O         24.6750  -17.5530  -24.2530 O.2   242  TYR242     -0.2867
    132  CB        21.9520  -17.8510  -23.3830 C.3   242  TYR242      0.0534
    133  CG        22.2160  -18.5020  -22.0450 C.ar  242  TYR242     -0.0201
    134  CD1       21.3540  -19.4780  -21.5580 C.ar  242  TYR242     -0.0009
    135  CD2       23.2540  -18.0840  -21.2280 C.ar  242  TYR242     -0.0009
    136  CE1       21.5260  -20.0580  -20.3310 C.ar  242  TYR242      0.0417
    137  CE2       23.4480  -18.6550  -19.9720 C.ar  242  TYR242      0.0417
    138  CZ        22.5670  -19.6500  -19.5430 C.ar  242  TYR242      0.1957
    139  OH        22.7040  -20.2610  -18.3170 O.3   242  TYR242     -0.2866
    140  N         12.0680  -12.6490  -26.4070 N.3   276  TRP276     -0.1227
    141  CA        13.1640  -12.8470  -25.4710 C.3   276  TRP276      0.1737
    142  C         14.4120  -12.2990  -26.1510 C.2   276  TRP276      0.2595
    143  O         14.7460  -12.7990  -27.2220 O.2   276  TRP276     -0.2718
    144  CB        13.3720  -14.3540  -25.2070 C.3   276  TRP276      0.0564
    145  CG        14.3780  -14.5310  -24.0800 C.ar  276  TRP276      0.0003
    146  CD1       15.7330  -14.5780  -24.1710 C.ar  276  TRP276      0.0946
    147  CD2       14.0710  -14.5720  -22.6850 C.ar  276  TRP276      0.0152
    148  NE1       16.2810  -14.7010  -22.9390 N.ar  276  TRP276     -0.2442
    149  CE2       15.2940  -14.6830  -21.9940 C.ar  276  TRP276      0.0810
    150  CE3       12.8720  -14.5460  -21.9480 C.ar  276  TRP276      0.0012
    151  CZ2       15.3700  -14.7660  -20.6190 C.ar  276  TRP276      0.0191
    152  CZ3       12.9340  -14.6670  -20.5800 C.ar  276  TRP276      0.0001
    153  CH2       14.1840  -14.7580  -19.9150 C.ar  276  TRP276      0.0015
    154  N         15.0750  -11.2830  -25.6140 N.am  277  GLU277     -0.1979
    155  CA        14.7720  -10.5280  -24.4000 C.3   277  GLU277      0.1602
    156  C         15.4390   -9.1200  -24.5420 C.2   277  GLU277      0.2287
    157  O         16.1200   -8.8010  -25.5420 O.2   277  GLU277     -0.2864
    158  CB        15.3600  -11.2010  -23.1400 C.3   277  GLU277      0.0415
    159  CG        16.8740  -11.3900  -23.2670 C.3   277  GLU277      0.1163
    160  CD        17.5740  -11.9360  -22.0360 C.2   277  GLU277      0.3649
    161  OE1       17.1760  -11.5940  -20.9130 O.co2 277  GLU277     -0.2457
    162  OE2       18.5570  -12.7210  -22.2000 O.co2 277  GLU277     -0.2457
    163  N         20.4290  -11.9870  -27.2070 N.3   294  TYR294     -0.1241
    164  CA        19.0830  -12.1100  -27.7580 C.3   294  TYR294      0.1605
    165  C         18.4580  -10.7820  -28.1260 C.2   294  TYR294      0.2264
    166  O         17.4490  -10.7470  -28.8610 O.2   294  TYR294     -0.2867
    167  CB        18.1600  -12.7980  -26.7620 C.3   294  TYR294      0.0534
    168  CG        18.3690  -14.2820  -26.6730 C.ar  294  TYR294     -0.0201
    169  CD1       19.3470  -14.8120  -25.8440 C.ar  294  TYR294     -0.0009
    170  CD2       17.5730  -15.1600  -27.3930 C.ar  294  TYR294     -0.0009
    171  CE1       19.5330  -16.1820  -25.7480 C.ar  294  TYR294      0.0417
    172  CE2       17.7360  -16.5380  -27.3030 C.ar  294  TYR294      0.0417
    173  CZ        18.7330  -17.0450  -26.4880 C.ar  294  TYR294      0.1957
    174  OH        18.9030  -18.3950  -26.3990 O.3   294  TYR294     -0.2866
@<TRIPOS>BOND
     1    95    96    2
     2    95    94    1
     3   127   126   ar
     4   127   125   ar
     5   126   124   ar
     6    94    93    1
     7    94    97    1
     8   125   123   ar
     9   124   121   ar
    10   166   165    2
    11   114   115    1
    12    97    98    1
    13   165   164    1
    14   123   121   ar
    15   123   122   ar
    16   121   119   ar
    17   164   163    1
    18   164   167    1
    19    99    98   ar
    20    99   101   ar
    21    81    82    1
    22    81    78    1
    23   170   172   ar
    24   170   168   ar
    25    83    82   ar
    26    83    85   ar
    27   172   173   ar
    28   143   142    2
    29    98   100   ar
    30    82    84   ar
    31   122   120   ar
    32    85    86   ar
    33   115   118    1
    34   115   116    1
    35   119   118    1
    36   119   120   ar
    37   167   168    1
    38   101   103   ar
    39   168   169   ar
    40   108   107    2
    41   173   174    1
    42   173   171   ar
    43   140   141    1
    44    78    79    1
    45    78    77    1
    46    79    80    2
    47    84    86   ar
    48   142   154   am
    49   142   141    1
    50   107   106    1
    51   116   117    2
    52    90    89    2
    53    89    88    1
    54   100   102   ar
    55   169   171   ar
    56   154   155    1
    57   157   156    2
    58   141   144    1
    59   103   102   ar
    60   103   104    1
    61   144   145    1
    62    77    71   am
    63   128   129    1
    64   106   105    1
    65   106   109    1
    66    88    87    1
    67    88    91    1
    68   129   130    1
    69   129   132    1
    70   156   155    1
    71   130   131    2
    72   155   158    1
    73   146   145   ar
    74   146   148   ar
    75    72    71    2
    76   145   147   ar
    77    71    70    1
    78   109   110    1
    79    91    92    1
    80   132   133    1
    81   159   158    1
    82   159   160    1
    83    75    74    2
    84   148   149   ar
    85    76    74   am
    86    74    73    1
    87   147   149   ar
    88   147   150   ar
    89    70    73    1
    90    70    69    1
    91   110   111    1
    92   112   111   ar
    93   162   160   ar
    94   133   134   ar
    95   133   135   ar
    96   160   161   ar
    97   149   151   ar
    98   150   152   ar
    99   111   113   ar
   100   134   136   ar
   101   135   137   ar
   102    68    66   ar
   103   151   153   ar
   104   152   153   ar
   105    66    65    1
   106    66    67   ar
   107   136   138   ar
   108    65    64    1
   109   137   138   ar
   110    42    40   ar
   111    42    41   ar
   112    40    38   ar
   113   138   139    1
   114    20    19    1
   115    41    39   ar
   116    38    37   ar
   117    38    36   ar
   118    64    61    1
   119    37    35   ar
   120    39    36   ar
   121    36    34   ar
   122    61    60    1
   123    61    62    1
   124    59    58    1
   125    35    34   ar
   126    19    18    1
   127    60    56   am
   128    34    33    1
   129     5     6    1
   130     5     2    1
   131    18    17    1
   132    52    51    1
   133     8     6   ar
   134     8    10   ar
   135    62    63    2
   136    33    30    1
   137     1     2    1
   138     4     3    2
   139     6     7   ar
   140    10    11   ar
   141    56    55    1
   142    56    57    2
   143    55    58    1
   144    55    54    1
   145     2     3    1
   146    51    53    1
   147    51    50    2
   148    17    16    1
   149     7     9   ar
   150    11     9   ar
   151    16    13    1
   152    30    29    1
   153    30    31    1
   154    50    49    1
   155    48    49    1
   156    48    47    1
   157    31    43   am
   158    31    32    2
   159    43    44    1
   160    13    12    1
   161    13    14    1
   162    45    44    1
   163    45    46    2
   164    27    26    2
   165    44    47    1
   166    15    14    2
   167    28    26   am
   168    26    25    1
   169    25    22    1
   170    22    21    1
   171    22    23    1
   172    23    24    2
