@<TRIPOS>MOLECULE
tmp/4cdlA00.pdb
 145 142 0 0 0
SMALL
GASTEIGER

@<TRIPOS>ATOM
      1  N         -8.3990   14.0560    6.7140 N.3    37  ILE37      -0.1231
      2  CA        -8.1930   13.0380    5.6890 C.3    37  ILE37       0.1692
      3  C         -7.1700   12.0290    6.1940 C.2    37  ILE37       0.2592
      4  O         -5.9660   12.2760    6.1480 O.2    37  ILE37      -0.2718
      5  CB        -7.6900   13.6500    4.3670 C.3    37  ILE37       0.0266
      6  CG1       -8.6790   14.7010    3.8580 C.3    37  ILE37       0.0019
      7  CG2       -7.4870   12.5580    3.3150 C.3    37  ILE37       0.0020
      8  CD1       -8.1600   15.5310    2.7020 C.3    37  ILE37       0.0001
      9  N         -7.6580   10.8930    6.6790 N.am   38  GLU38      -0.1966
     10  CA        -6.7910    9.8680    7.2460 C.3    38  GLU38       0.1733
     11  C         -5.8970    9.2560    6.1770 C.2    38  GLU38       0.2617
     12  O         -6.3170    9.0620    5.0380 O.2    38  GLU38      -0.2715
     13  CB        -7.6270    8.7840    7.9240 C.3    38  GLU38       0.0429
     14  CG        -8.3130    9.2570    9.1970 C.3    38  GLU38       0.1163
     15  CD        -9.2760    8.2340    9.7650 C.2    38  GLU38       0.3649
     16  OE1       -9.2690    7.0780    9.2930 O.co2  38  GLU38      -0.2457
     17  OE2      -10.0430    8.5880   10.6860 O.co2  38  GLU38      -0.2457
     18  N         -4.6570    8.9610    6.5510 N.am   39  SER39      -0.1936
     19  CA        -3.6910    8.4210    5.6060 C.3    39  SER39       0.2040
     20  C         -3.8930    6.9240    5.4170 C.2    39  SER39       0.2485
     21  O         -4.0540    6.1910    6.3910 O.2    39  SER39      -0.2729
     22  CB        -2.2620    8.6770    6.0860 C.3    39  SER39       0.2129
     23  OG        -1.3290    8.1510    5.1570 O.3    39  SER39      -0.2179
     24  N         -3.8800    6.4600    4.1570 N.am   40  PRO40      -0.2715
     25  CA        -3.9430    5.0180    3.9260 C.3    40  PRO40       0.1536
     26  C         -2.5680    4.3570    4.0060 C.2    40  PRO40       0.2598
     27  O         -2.4650    3.1570    3.7530 O.2    40  PRO40      -0.2715
     28  CB        -4.4810    4.9300    2.5030 C.3    40  PRO40       0.0310
     29  CG        -3.9460    6.1440    1.8370 C.3    40  PRO40       0.0237
     30  CD        -3.9150    7.2170    2.8920 C.3    40  PRO40       0.0939
     31  N         -1.5400    5.1300    4.3530 N.am   41  PHE41      -0.1974
     32  CA        -0.1700    4.6220    4.4300 C.3    41  PHE41       0.1639
     33  C          0.3530    4.5940    5.8660 C.2    41  PHE41       0.2290
     34  O          1.5540    4.4430    6.0930 O.2    41  PHE41      -0.2864
     35  CB         0.7640    5.4770    3.5700 C.3    41  PHE41       0.0560
     36  CG         0.3230    5.6070    2.1420 C.ar   41  PHE41      -0.0200
     37  CD1        0.3340    4.5100    1.2970 C.ar   41  PHE41      -0.0042
     38  CD2       -0.0960    6.8280    1.6410 C.ar   41  PHE41      -0.0042
     39  CE1       -0.0710    4.6270   -0.0200 C.ar   41  PHE41      -0.0003
     40  CE2       -0.5010    6.9520    0.3250 C.ar   41  PHE41      -0.0003
     41  CZ        -0.4890    5.8500   -0.5060 C.ar   41  PHE41      -0.0000
     42  N          0.4450    7.0130    7.9360 N.3    43  GLN43      -0.1231
     43  CA         1.0040    8.2970    8.3400 C.3    43  GLN43       0.1683
     44  C          0.0070    8.9970    9.2500 C.2    43  GLN43       0.2434
     45  O         -1.1550    8.5960    9.3220 O.2    43  GLN43      -0.2733
     46  CB         1.2720    9.1780    7.1190 C.3    43  GLN43       0.0380
     47  CG         2.1160    8.5260    6.0320 C.3    43  GLN43       0.0905
     48  CD         1.9420    9.1930    4.6780 C.2    43  GLN43       0.2608
     49  OE1        0.8350    9.5790    4.2990 O.2    43  GLN43      -0.2717
     50  NE2        3.0380    9.3310    3.9400 N.am   43  GLN43      -0.0878
     51  N          0.4550   10.0460    9.9570 N.am   44  PRO44      -0.2729
     52  CA        -0.5030   10.8780   10.6910 C.3    44  PRO44       0.1401
     53  C         -1.4880   11.5270    9.7210 C.2    44  PRO44       0.2269
     54  O         -1.1180   11.7980    8.5790 O.2    44  PRO44      -0.2865
     55  CB         0.3840   11.9400   11.3500 C.3    44  PRO44       0.0296
     56  CG         1.7380   11.3270   11.4140 C.3    44  PRO44       0.0237
     57  CD         1.8480   10.4550   10.2020 C.3    44  PRO44       0.0939
     58  N         -3.9700   14.1060    7.6630 N.3    46  ILE46      -0.1245
     59  CA        -4.0650   15.5010    7.2610 C.3    46  ILE46       0.1561
     60  C         -5.1930   16.1390    8.0620 C.2    46  ILE46       0.2260
     61  O         -6.2500   15.5340    8.2340 O.2    46  ILE46      -0.2867
     62  CB        -4.3650   15.6250    5.7530 C.3    46  ILE46       0.0252
     63  CG1       -3.1510   15.1780    4.9390 C.3    46  ILE46       0.0019
     64  CG2       -4.7390   17.0590    5.3770 C.3    46  ILE46       0.0019
     65  CD1       -3.4440   14.9480    3.4700 C.3    46  ILE46       0.0001
     66  N         -2.0330   19.7590    0.3290 N.3    55  HIS55      -0.1241
     67  CA        -2.0650   18.3940   -0.1880 C.3    55  HIS55       0.1621
     68  C         -2.6050   18.3590   -1.6160 C.2    55  HIS55       0.2264
     69  O         -1.9470   17.8500   -2.5350 O.2    55  HIS55      -0.2867
     70  CB        -2.9300   17.5190    0.7210 C.3    55  HIS55       0.0745
     71  CG        -3.3250   16.2100    0.1120 C.ar   55  HIS55       0.0817
     72  ND1       -2.4870   15.1140    0.0880 N.ar   55  HIS55      -0.2268
     73  CD2       -4.4720   15.8180   -0.4910 C.ar   55  HIS55       0.1154
     74  CE1       -3.1020   14.1060   -0.5040 C.ar   55  HIS55       0.1986
     75  NE2       -4.3070   14.5070   -0.8670 N.ar   55  HIS55      -0.2212
     76  N         -0.6780   17.4360   -5.0530 N.3    59  TRP59      -0.1241
     77  CA        -1.0480   16.2770   -5.8670 C.3    59  TRP59       0.1605
     78  C         -1.8100   16.5970   -7.1570 C.2    59  TRP59       0.2264
     79  O         -1.7660   15.8110   -8.1040 O.2    59  TRP59      -0.2867
     80  CB        -1.8260   15.2660   -5.0240 C.3    59  TRP59       0.0550
     81  CG        -0.9540   14.5810   -4.0220 C.ar   59  TRP59       0.0003
     82  CD1       -0.8870   14.8340   -2.6850 C.ar   59  TRP59       0.0946
     83  CD2       -0.0030   13.5430   -4.2820 C.ar   59  TRP59       0.0152
     84  NE1        0.0400   14.0110   -2.0920 N.ar   59  TRP59      -0.2442
     85  CE2        0.5980   13.2090   -3.0530 C.ar   59  TRP59       0.0810
     86  CE3        0.3970   12.8610   -5.4360 C.ar   59  TRP59       0.0012
     87  CZ2        1.5750   12.2220   -2.9430 C.ar   59  TRP59       0.0191
     88  CZ3        1.3680   11.8820   -5.3250 C.ar   59  TRP59       0.0001
     89  CH2        1.9450   11.5720   -4.0870 C.ar   59  TRP59       0.0015
     90  N         -2.0490   14.0230  -13.1500 N.3    65  LEU65      -0.1245
     91  CA        -2.7650   13.0140  -12.3780 C.3    65  LEU65       0.1561
     92  C         -4.1730   12.8170  -12.9240 C.2    65  LEU65       0.2260
     93  O         -4.9950   13.7340  -12.8980 O.2    65  LEU65      -0.2867
     94  CB        -2.8340   13.4150  -10.9020 C.3    65  LEU65       0.0270
     95  CG        -3.7110   12.5360  -10.0040 C.3    65  LEU65       0.0019
     96  CD1       -3.2980   11.0730  -10.0880 C.3    65  LEU65       0.0001
     97  CD2       -3.6500   13.0210   -8.5650 C.3    65  LEU65       0.0001
     98  N         -7.1120    5.9820   -9.9910 N.3    87  LYS87      -0.1245
     99  CA        -6.0910    7.0110  -10.0980 C.3    87  LYS87       0.1561
    100  C         -4.9520    6.5050  -10.9630 C.2    87  LYS87       0.2260
    101  O         -4.4920    5.3730  -10.7910 O.2    87  LYS87      -0.2867
    102  CB        -5.5390    7.3610   -8.7180 C.3    87  LYS87       0.0271
    103  CG        -6.3550    8.3760   -7.9420 C.3    87  LYS87       0.0035
    104  CD        -5.7470    8.6490   -6.5680 C.3    87  LYS87       0.0206
    105  CE        -4.3920    9.3470   -6.6560 C.3    87  LYS87       0.1093
    106  NZ        -3.6960    9.3580   -5.3470 N.3    87  LYS87      -0.1314
    107  N         -1.1430    7.9160  -12.6810 N.3    89  TRP89      -0.1241
    108  CA        -0.1190    8.9490  -12.7800 C.3    89  TRP89       0.1605
    109  C          1.2490    8.3030  -12.9700 C.2    89  TRP89       0.2264
    110  O          1.3420    7.1420  -13.3660 O.2    89  TRP89      -0.2867
    111  CB        -0.1280    9.8370  -11.5300 C.3    89  TRP89       0.0550
    112  CG         0.4820    9.1980  -10.3110 C.ar   89  TRP89       0.0003
    113  CD1        1.6980    9.4810   -9.7580 C.ar   89  TRP89       0.0946
    114  CD2       -0.0970    8.1700   -9.4980 C.ar   89  TRP89       0.0152
    115  NE1        1.9110    8.6940   -8.6530 N.ar   89  TRP89      -0.2442
    116  CE2        0.8240    7.8800   -8.4720 C.ar   89  TRP89       0.0810
    117  CE3       -1.3040    7.4670   -9.5390 C.ar   89  TRP89       0.0012
    118  CZ2        0.5760    6.9180   -7.4960 C.ar   89  TRP89       0.0191
    119  CZ3       -1.5480    6.5140   -8.5690 C.ar   89  TRP89       0.0001
    120  CH2       -0.6130    6.2470   -7.5620 C.ar   89  TRP89       0.0015
    121  N         -3.8000    2.9200   -9.5740 N.3    98  THR98      -0.1218
    122  CA        -4.3950    2.2830   -8.4060 C.3    98  THR98       0.1862
    123  C         -5.8890    2.5500   -8.3200 C.2    98  THR98       0.2287
    124  O         -6.3550    3.6430   -8.6420 O.2    98  THR98      -0.2866
    125  CB        -3.7260    2.7530   -7.0940 C.3    98  THR98       0.1770
    126  OG1       -4.3310    2.0850   -5.9790 O.3    98  THR98      -0.2211
    127  CG2       -3.8700    4.2540   -6.9140 C.3    98  THR98       0.0375
    128  N         -9.1350    3.0820   -5.9430 N.3   100  VAL100     -0.1245
    129  CA        -9.2840    3.7010   -4.6340 C.3   100  VAL100      0.1561
    130  C        -10.7480    3.8080   -4.2330 C.2   100  VAL100      0.2260
    131  O        -11.5630    4.3670   -4.9670 O.2   100  VAL100     -0.2867
    132  CB        -8.6640    5.1140   -4.6080 C.3   100  VAL100      0.0252
    133  CG1       -8.6800    5.6740   -3.1950 C.3   100  VAL100      0.0019
    134  CG2       -7.2400    5.0840   -5.1460 C.3   100  VAL100      0.0019
    135  N         -9.5820    6.6290    2.6630 N.3   117  ARG117     -0.1245
    136  CA        -9.2770    6.1110    1.3370 C.3   117  ARG117      0.1563
    137  C         -8.6800    4.7160    1.4500 C.2   117  ARG117      0.2260
    138  O         -7.8220    4.4720    2.2960 O.2   117  ARG117     -0.2867
    139  CB        -8.3080    7.0510    0.6210 C.3   117  ARG117      0.0307
    140  CG        -8.7480    8.5040    0.6740 C.3   117  ARG117      0.0489
    141  CD        -7.9110    9.3960   -0.2210 C.3   117  ARG117      0.2205
    142  NE        -8.4880   10.7330   -0.3200 N.pl3 117  ARG117     -0.0865
    143  CZ        -7.9780   11.7230   -1.0440 C.cat 117  ARG117      0.5346
    144  NH1       -6.8670   11.5380   -1.7460 N.pl3 117  ARG117      0.1354
    145  NH2       -8.5820   12.9030   -1.0680 N.pl3 117  ARG117      0.1354
@<TRIPOS>BOND
     1   110   109    2
     2    90    91    1
     3   109   108    1
     4    92    93    2
     5    92    91    1
     6   108   107    1
     7   108   111    1
     8    91    94    1
     9   111   112    1
    10   100   101    2
    11   100    99    1
    12    94    95    1
    13   112   113   ar
    14   112   114   ar
    15    99    98    1
    16    99   102    1
    17    96    95    1
    18    95    97    1
    19   113   115   ar
    20   121   122    1
    21   117   114   ar
    22   117   119   ar
    23   114   116   ar
    24   102   103    1
    25   115   116   ar
    26   124   123    2
    27   119   120   ar
    28   116   118   ar
    29   122   123    1
    30   122   125    1
    31    79    78    2
    32   103   104    1
    33   120   118   ar
    34    78    77    1
    35   125   127    1
    36   125   126    1
    37   105   104    1
    38   105   106    1
    39   128   129    1
    40    77    76    1
    41    77    80    1
    42    86    88   ar
    43    86    83   ar
    44    88    89   ar
    45   134   132    1
    46    80    81    1
    47   131   130    2
    48   129   132    1
    49   129   130    1
    50   132   133    1
    51    83    81   ar
    52    83    85   ar
    53    89    87   ar
    54    81    82   ar
    55    85    87   ar
    56    85    84   ar
    57    82    84   ar
    58    69    68    2
    59   144   143    1
    60    68    67    1
    61   145   143    1
    62   143   142    2
    63    75    74   ar
    64    75    73   ar
    65    41    39   ar
    66    41    40   ar
    67    74    72   ar
    68    73    71   ar
    69   142   141    1
    70   141   140    1
    71    67    66    1
    72    67    70    1
    73    39    37   ar
    74    72    71   ar
    75    71    70    1
    76    40    38   ar
    77   139   140    1
    78   139   136    1
    79    37    36   ar
    80   136   137    1
    81   136   135    1
    82   137   138    2
    83    38    36   ar
    84    29    28    1
    85    29    30    1
    86    36    35    1
    87    28    25    1
    88     8     6    1
    89    30    24    1
    90     7     5    1
    91    65    63    1
    92    35    32    1
    93    27    26    2
    94     6     5    1
    95    25    26    1
    96    25    24    1
    97    50    48   am
    98    26    31   am
    99    24    20   am
   100    49    48    2
   101    31    32    1
   102     5     2    1
   103    32    33    1
   104    48    47    1
   105    63    62    1
   106    12    11    2
   107    23    22    1
   108    64    62    1
   109    20    19    1
   110    20    21    2
   111    19    22    1
   112    19    18    1
   113     2     3    1
   114     2     1    1
   115    62    59    1
   116    33    34    2
   117    47    46    1
   118     4     3    2
   119    11    18   am
   120    11    10    1
   121     3     9   am
   122     9    10    1
   123    46    43    1
   124    10    13    1
   125    59    58    1
   126    59    60    1
   127    13    14    1
   128    42    43    1
   129    60    61    2
   130    43    44    1
   131    54    53    2
   132    14    15    1
   133    44    45    2
   134    44    51   am
   135    16    15   ar
   136    53    52    1
   137    15    17   ar
   138    51    57    1
   139    51    52    1
   140    57    56    1
   141    52    55    1
   142    55    56    1
