@<TRIPOS>MOLECULE
tmp/4cdnA02.pdb
 209 205 0 0 0
SMALL
GASTEIGER

@<TRIPOS>ATOM
      1  N         67.7390   98.1100   30.5180 N.3    29  TRP29      -0.1227
      2  CA        68.3400   98.9720   31.5020 C.3    29  TRP29       0.1737
      3  C         68.2320   98.3110   32.8880 C.2    29  TRP29       0.2595
      4  O         67.1860   98.3620   33.5730 O.2    29  TRP29      -0.2718
      5  CB        67.6950  100.3630   31.4500 C.3    29  TRP29       0.0564
      6  CG        68.0530  101.2150   32.6170 C.ar   29  TRP29       0.0003
      7  CD1       69.2120  101.1520   33.3710 C.ar   29  TRP29       0.0946
      8  CD2       67.2520  102.2460   33.2020 C.ar   29  TRP29       0.0152
      9  NE1       69.1630  102.0760   34.3760 N.ar   29  TRP29      -0.2442
     10  CE2       67.9800  102.7660   34.3040 C.ar   29  TRP29       0.0810
     11  CE3       66.0080  102.8100   32.8850 C.ar   29  TRP29       0.0012
     12  CZ2       67.4930  103.8120   35.1000 C.ar   29  TRP29       0.0191
     13  CZ3       65.5140  103.8540   33.6910 C.ar   29  TRP29       0.0001
     14  CH2       66.2550  104.3330   34.7780 C.ar   29  TRP29       0.0015
     15  N         69.3190   97.6540   33.2660 N.am   30  MET30      -0.1965
     16  CA        69.4110   96.9570   34.5300 C.3    30  MET30       0.1736
     17  C         69.7350   97.9440   35.6550 C.2    30  MET30       0.2617
     18  O         70.6600   98.7700   35.5450 O.2    30  MET30      -0.2715
     19  CB        70.4840   95.8750   34.4470 C.3    30  MET30       0.0427
     20  CG        70.7690   95.1210   35.7340 C.3    30  MET30       0.0599
     21  SD        72.1460   93.9780   35.5410 S.3    30  MET30      -0.1393
     22  CE        71.3170   92.5830   34.7810 C.3    30  MET30       0.0692
     23  N         68.9780   97.8540   36.7410 N.am   31  SER31      -0.1936
     24  CA        69.2320   98.7080   37.9040 C.3    31  SER31       0.2055
     25  C         69.0970   97.9080   39.2030 C.2    31  SER31       0.2642
     26  O         70.0870   97.7240   39.9210 O.2    31  SER31      -0.2714
     27  CB        68.2960   99.9260   37.8850 C.3    31  SER31       0.2130
     28  OG        68.6320  100.8470   38.9030 O.3    31  SER31      -0.2179
     29  N         67.8880   97.4380   39.5210 N.am   32  ARG32      -0.1977
     30  CA        67.6810   96.7390   40.7720 C.3    32  ARG32       0.1597
     31  C         68.1490   95.2940   40.7520 C.2    32  ARG32       0.2287
     32  O         68.6830   94.8110   41.7590 O.2    32  ARG32      -0.2864
     33  CB        66.2200   96.7890   41.2130 C.3    32  ARG32       0.0334
     34  CG        65.9980   96.3270   42.6520 C.3    32  ARG32       0.0492
     35  CD        64.5080   96.3680   42.9460 C.3    32  ARG32       0.2205
     36  NE        64.1890   96.2170   44.3600 N.pl3  32  ARG32      -0.0865
     37  CZ        62.9470   96.1850   44.8490 C.cat  32  ARG32       0.5346
     38  NH1       61.8970   96.2900   44.0300 N.pl3  32  ARG32       0.1354
     39  NH2       62.7520   96.0350   46.1560 N.pl3  32  ARG32       0.1354
     40  N         70.4920   92.6880   39.6070 N.3    34  GLN34      -0.1245
     41  CA        71.8160   92.5440   39.0240 C.3    34  GLN34       0.1566
     42  C         72.2270   91.0870   39.0020 C.2    34  GLN34       0.2260
     43  O         73.0660   90.6540   39.7810 O.2    34  GLN34      -0.2867
     44  CB        72.8260   93.4210   39.7810 C.3    34  GLN34       0.0367
     45  CG        72.3710   94.8710   39.7740 C.3    34  GLN34       0.0905
     46  CD        73.2730   95.8030   40.5720 C.2    34  GLN34       0.2608
     47  OE1       74.3840   95.4380   40.9640 O.2    34  GLN34      -0.2717
     48  NE2       72.8040   97.0200   40.7900 N.am   34  GLN34      -0.0878
     49  N         73.9290   99.4730   32.1040 N.3    60  PHE60      -0.1227
     50  CA        73.9640   99.8640   33.5030 C.3    60  PHE60       0.1736
     51  C         74.5640  101.2600   33.5950 C.2    60  PHE60       0.2596
     52  O         75.5820  101.5560   32.9360 O.2    60  PHE60      -0.2718
     53  CB        74.8390   98.9210   34.3280 C.3    60  PHE60       0.0547
     54  CG        74.7680   99.1960   35.8070 C.ar   60  PHE60      -0.0202
     55  CD1       73.7480   98.6660   36.5550 C.ar   60  PHE60      -0.0042
     56  CD2       75.7210   99.9990   36.4300 C.ar   60  PHE60      -0.0042
     57  CE1       73.6510   98.9370   37.9120 C.ar   60  PHE60      -0.0003
     58  CE2       75.6340  100.2910   37.7730 C.ar   60  PHE60      -0.0003
     59  CZ        74.5890   99.7560   38.5200 C.ar   60  PHE60      -0.0000
     60  N         73.9520  102.1100   34.4040 N.am   61  CYS61      -0.1956
     61  CA        74.4650  103.4610   34.5990 C.3    61  CYS61       0.1843
     62  C         74.8750  103.6800   36.0630 C.2    61  CYS61       0.2625
     63  O         74.0330  103.6990   36.9880 O.2    61  CYS61      -0.2714
     64  CB        73.4470  104.4990   34.1560 C.3    61  CYS61       0.0997
     65  SG        74.0540  106.1890   34.2900 S.3    61  CYS61      -0.0797
     66  N         76.1820  103.8240   36.2580 N.am   62  LEU62      -0.1963
     67  CA        76.7520  104.0280   37.5830 C.3    62  LEU62       0.1728
     68  C         76.6460  105.4990   37.9810 C.2    62  LEU62       0.2616
     69  O         77.2660  106.3780   37.3410 O.2    62  LEU62      -0.2715
     70  CB        78.2210  103.6350   37.6010 C.3    62  LEU62       0.0311
     71  CG        78.9270  103.8070   38.9670 C.3    62  LEU62       0.0022
     72  CD1       78.3600  102.8620   40.0170 C.3    62  LEU62       0.0001
     73  CD2       80.4220  103.6040   38.8370 C.3    62  LEU62       0.0001
     74  N         75.8660  105.7570   39.0210 N.am   63  THR63      -0.1951
     75  CA        75.6870  107.0690   39.6420 C.3    63  THR63       0.1897
     76  C         76.8090  107.2580   40.6410 C.2    63  THR63       0.2313
     77  O         77.1210  106.3110   41.3360 O.2    63  THR63      -0.2863
     78  CB        74.4180  107.0490   40.5110 C.3    63  THR63       0.1794
     79  OG1       74.5820  106.0560   41.5340 O.3    63  THR63      -0.2208
     80  CG2       73.1840  106.6990   39.6970 C.3    63  THR63       0.0378
     81  N         74.3060  107.5980   45.6080 N.3    66  PHE66      -0.1241
     82  CA        73.0620  106.8540   45.6680 C.3    66  PHE66       0.1605
     83  C         72.6310  106.6770   47.1180 C.2    66  PHE66       0.2264
     84  O         73.1260  105.7750   47.8320 O.2    66  PHE66      -0.2867
     85  CB        73.1690  105.4870   44.9740 C.3    66  PHE66       0.0534
     86  CG        71.8640  104.7520   44.9270 C.ar   66  PHE66      -0.0203
     87  CD1       70.9120  105.0580   43.9490 C.ar   66  PHE66      -0.0042
     88  CD2       71.5560  103.7790   45.8870 C.ar   66  PHE66      -0.0042
     89  CE1       69.6810  104.4170   43.9350 C.ar   66  PHE66      -0.0003
     90  CE2       70.3340  103.1150   45.8600 C.ar   66  PHE66      -0.0003
     91  CZ        69.3920  103.4430   44.8870 C.ar   66  PHE66      -0.0000
     92  N         74.8740  105.7700   50.0570 N.3    69  ALA69      -0.1245
     93  CA        75.7930  104.6290   49.9370 C.3    69  ALA69       0.1562
     94  C         77.2600  105.0880   49.9230 C.2    69  ALA69       0.2260
     95  O         77.5940  106.1150   49.3320 O.2    69  ALA69      -0.2867
     96  CB        75.5120  103.8300   48.6940 C.3    69  ALA69       0.0290
     97  N         79.2890   99.5840   49.9230 N.3    73  GLN73      -0.1231
     98  CA        78.1830   99.1140   49.0700 C.3    73  GLN73       0.1698
     99  C         78.5750   99.1460   47.5970 C.2    73  GLN73       0.2592
    100  O         78.2820   98.2080   46.8480 O.2    73  GLN73      -0.2718
    101  CB        76.9360   99.9530   49.3140 C.3    73  GLN73       0.0381
    102  CG        76.3560   99.7790   50.7150 C.3    73  GLN73       0.0905
    103  CD        76.8010  100.8390   51.6680 C.2    73  GLN73       0.2608
    104  OE1       77.6630  101.6520   51.3390 O.2    73  GLN73      -0.2717
    105  NE2       76.2140  100.8470   52.8750 N.am   73  GLN73      -0.0878
    106  N         79.2060  100.2400   47.1640 N.am   74  TYR74      -0.1976
    107  CA        79.6200  100.3480   45.7720 C.3    74  TYR74       0.1639
    108  C         80.5880   99.2260   45.3960 C.2    74  TYR74       0.2290
    109  O         80.5150   98.6980   44.2840 O.2    74  TYR74      -0.2864
    110  CB        80.2240  101.7360   45.4460 C.3    74  TYR74       0.0560
    111  CG        79.2170  102.8250   45.1000 C.ar   74  TYR74      -0.0198
    112  CD1       78.7740  102.9870   43.8010 C.ar   74  TYR74      -0.0009
    113  CD2       78.7350  103.7050   46.0630 C.ar   74  TYR74      -0.0009
    114  CE1       77.8630  103.9720   43.4640 C.ar   74  TYR74       0.0417
    115  CE2       77.8360  104.7130   45.7440 C.ar   74  TYR74       0.0417
    116  CZ        77.3970  104.8390   44.4390 C.ar   74  TYR74       0.1957
    117  OH        76.5320  105.8320   44.0850 O.3    74  TYR74      -0.2866
    118  N         78.7280   95.9300   45.0810 N.3    77  MET77      -0.1245
    119  CA        77.9340   95.9780   43.8560 C.3    77  MET77       0.1570
    120  C         78.7930   95.7860   42.6130 C.2    77  MET77       0.2261
    121  O         78.4850   94.9560   41.7350 O.2    77  MET77      -0.2867
    122  CB        77.2280   97.3330   43.7460 C.3    77  MET77       0.0387
    123  CG        76.2420   97.4160   42.5760 C.3    77  MET77       0.0595
    124  SD        75.4080   99.0140   42.4470 S.3    77  MET77      -0.1393
    125  CE        76.6880   99.9960   41.6890 C.3    77  MET77       0.0692
    126  N         71.2750  108.5060   35.5510 N.3   102  PRO102     -0.2116
    127  CA        70.5770  107.6100   34.6070 C.3   102  PRO102      0.1372
    128  C         69.4630  108.2800   33.7910 C.2   102  PRO102      0.2244
    129  O         69.2460  107.9280   32.6280 O.2   102  PRO102     -0.2868
    130  CB        69.9950  106.5190   35.5250 C.3   102  PRO102      0.0268
    131  CG        70.8660  106.5240   36.7340 C.3   102  PRO102      0.0207
    132  CD        71.2720  107.9590   36.9190 C.3   102  PRO102      0.0892
    133  N         61.4930   99.1500   40.6770 N.3   123  SER123     -0.1217
    134  CA        61.7680   99.6030   42.0370 C.3   123  SER123      0.1889
    135  C         60.7440  100.6410   42.4080 C.2   123  SER123      0.2288
    136  O         60.4410  101.5020   41.5980 O.2   123  SER123     -0.2866
    137  CB        63.1520  100.2250   42.1600 C.3   123  SER123      0.2089
    138  OG        63.2620  100.8650   43.4230 O.3   123  SER123     -0.2183
    139  N         61.2310  102.9700   44.6750 N.3   125  LEU125     -0.1245
    140  CA        61.8920  104.1210   45.3280 C.3   125  LEU125      0.1561
    141  C         61.7260  105.3750   44.5060 C.2   125  LEU125      0.2260
    142  O         61.6630  105.3180   43.2720 O.2   125  LEU125     -0.2867
    143  CB        63.3730  103.8400   45.5600 C.3   125  LEU125      0.0270
    144  CG        63.7000  102.6460   46.4690 C.3   125  LEU125      0.0019
    145  CD1       65.2140  102.5210   46.6560 C.3   125  LEU125      0.0001
    146  CD2       62.9750  102.7330   47.8140 C.3   125  LEU125      0.0001
    147  N         63.7420  107.7490   43.7440 N.3   127  ILE127     -0.1231
    148  CA        64.8450  108.0230   42.8240 C.3   127  ILE127      0.1692
    149  C         64.6570  107.3010   41.4790 C.2   127  ILE127      0.2591
    150  O         64.9500  107.8550   40.4140 O.2   127  ILE127     -0.2718
    151  CB        66.2240  107.7320   43.4840 C.3   127  ILE127      0.0266
    152  CG1       67.3860  108.1640   42.5980 C.3   127  ILE127      0.0019
    153  CG2       66.4320  106.2490   43.7870 C.3   127  ILE127      0.0020
    154  CD1       67.4120  109.6430   42.3160 C.3   127  ILE127      0.0001
    155  N         64.1840  106.0630   41.5170 N.am  128  LYS128     -0.1980
    156  CA        63.9160  105.3560   40.2750 C.3   128  LYS128      0.1596
    157  C         62.7790  106.0390   39.4790 C.2   128  LYS128      0.2287
    158  O         62.8990  106.1680   38.2540 O.2   128  LYS128     -0.2864
    159  CB        63.6270  103.8860   40.5130 C.3   128  LYS128      0.0298
    160  CG        63.3660  103.0860   39.2480 C.3   128  LYS128      0.0038
    161  CD        64.5910  103.0470   38.3480 C.3   128  LYS128      0.0206
    162  CE        64.3650  102.2440   37.0660 C.3   128  LYS128      0.1093
    163  NZ        63.7110  100.9160   37.2670 N.3   128  LYS128     -0.1314
    164  N         64.2990  109.1020   37.7540 N.3   131  TRP131     -0.1241
    165  CA        65.0630  108.7090   36.5670 C.3   131  TRP131      0.1605
    166  C         64.1080  108.3490   35.4140 C.2   131  TRP131      0.2264
    167  O         64.2880  108.7880   34.2730 O.2   131  TRP131     -0.2867
    168  CB        65.9570  107.5040   36.8530 C.3   131  TRP131      0.0550
    169  CG        67.0540  107.7360   37.8970 C.ar  131  TRP131      0.0003
    170  CD1       67.5860  108.9300   38.3000 C.ar  131  TRP131      0.0946
    171  CD2       67.7840  106.7180   38.5870 C.ar  131  TRP131      0.0152
    172  NE1       68.5790  108.7050   39.2400 N.ar  131  TRP131     -0.2442
    173  CE2       68.7250  107.3570   39.4180 C.ar  131  TRP131      0.0810
    174  CE3       67.7320  105.3240   38.5860 C.ar  131  TRP131      0.0012
    175  CZ2       69.5820  106.6400   40.2670 C.ar  131  TRP131      0.0191
    176  CZ3       68.5920  104.6170   39.4290 C.ar  131  TRP131      0.0001
    177  CH2       69.5100  105.2670   40.2270 C.ar  131  TRP131      0.0015
    178  N         69.1010   92.4000   48.1330 N.3   273  HIS273     -0.1226
    179  CA        69.0550   93.8250   47.9010 C.3   273  HIS273      0.1752
    180  C         69.6160   94.2260   46.5190 C.2   273  HIS273      0.2596
    181  O         68.9790   95.0260   45.7940 O.2   273  HIS273     -0.2718
    182  CB        69.7680   94.6000   49.0060 C.3   273  HIS273      0.0759
    183  CG        70.0470   96.0090   48.6240 C.ar  273  HIS273      0.0818
    184  ND1       69.0430   96.9450   48.4720 N.ar  273  HIS273     -0.2268
    185  CD2       71.1890   96.6080   48.2170 C.ar  273  HIS273      0.1154
    186  CE1       69.5640   98.0760   48.0230 C.ar  273  HIS273      0.1986
    187  NE2       70.8670   97.9020   47.8660 N.ar  273  HIS273     -0.2212
    188  N         70.7870   93.6940   46.1600 N.am  274  PHE274     -0.1976
    189  CA        71.4030   94.0150   44.8820 C.3   274  PHE274      0.1639
    190  C         70.8410   93.1560   43.7280 C.2   274  PHE274      0.2290
    191  O         71.2940   93.2780   42.5710 O.2   274  PHE274     -0.2864
    192  CB        72.9320   93.8990   44.9630 C.3   274  PHE274      0.0560
    193  CG        73.5910   95.0470   45.6980 C.ar  274  PHE274     -0.0200
    194  CD1       73.6150   96.3090   45.1440 C.ar  274  PHE274     -0.0042
    195  CD2       74.1390   94.8640   46.9590 C.ar  274  PHE274     -0.0042
    196  CE1       74.1870   97.3690   45.8210 C.ar  274  PHE274     -0.0003
    197  CE2       74.7310   95.9140   47.6320 C.ar  274  PHE274     -0.0003
    198  CZ        74.7360   97.1720   47.0730 C.ar  274  PHE274     -0.0000
    199  N         69.1540  101.1160   51.7600 N.3   412  ARG412     -0.1245
    200  CA        68.6140  101.9080   50.6200 C.3   412  ARG412      0.1563
    201  C         67.6150  101.0210   49.8610 C.2   412  ARG412      0.2260
    202  O         67.7150  100.8090   48.6310 O.2   412  ARG412     -0.2867
    203  CB        69.7560  102.4290   49.7170 C.3   412  ARG412      0.0307
    204  CG        70.8810  103.0980   50.5250 C.3   412  ARG412      0.0489
    205  CD        72.2910  102.9730   49.9240 C.3   412  ARG412      0.2205
    206  NE        72.6520  101.5870   49.6810 N.pl3 412  ARG412     -0.0865
    207  CZ        72.9090  100.6800   50.6260 C.cat 412  ARG412      0.5346
    208  NH1       72.9340  100.9970   51.9160 N.pl3 412  ARG412      0.1354
    209  NH2       73.1370   99.4330   50.2610 N.pl3 412  ARG412      0.1354
@<TRIPOS>BOND
     1     1     2    1
     2     5     2    1
     3     5     6    1
     4     2     3    1
     5    49    50    1
     6     6     8   ar
     7     6     7   ar
     8   129   128    2
     9    11     8   ar
    10    11    13   ar
    11     3    15   am
    12     3     4    2
    13    52    51    2
    14     8    10   ar
    15    15    16    1
    16     7     9   ar
    17    50    51    1
    18    50    53    1
    19    51    60   am
    20    13    14   ar
    21   128   127    1
    22    64    65    1
    23    64    61    1
    24   167   166    2
    25    10     9   ar
    26    10    12   ar
    27    53    54    1
    28    60    61    1
    29    19    16    1
    30    19    20    1
    31    16    17    1
    32    61    62    1
    33   127   130    1
    34   127   126    1
    35    14    12   ar
    36    22    21    1
    37   166   165    1
    38   130   131    1
    39    21    20    1
    40    18    17    2
    41   126   132    1
    42    17    23   am
    43    54    56   ar
    44    54    55   ar
    45    62    66   am
    46    62    63    2
    47    66    67    1
    48    56    58   ar
    49    55    57   ar
    50   165   168    1
    51   165   164    1
    52   131   132    1
    53    23    24    1
    54   168   169    1
    55   162   163    1
    56   162   161    1
    57    69    68    2
    58    67    70    1
    59    67    68    1
    60    70    71    1
    61    58    59   ar
    62    27    24    1
    63    27    28    1
    64   169   170   ar
    65   169   171   ar
    66    24    25    1
    67    57    59   ar
    68    68    74   am
    69   158   157    2
    70   170   172   ar
    71   161   160    1
    72   174   171   ar
    73   174   176   ar
    74   171   173   ar
    75    73    71    1
    76    71    72    1
    77    42    41    1
    78    42    43    2
    79    74    75    1
    80    41    40    1
    81    41    44    1
    82    25    29   am
    83    25    26    2
    84   172   173   ar
    85   160   159    1
    86   173   175   ar
    87   176   177   ar
    88   157   156    1
    89    29    30    1
    90    75    78    1
    91    75    76    1
    92    80    78    1
    93    45    44    1
    94    45    46    1
    95   177   175   ar
    96   156   159    1
    97   156   155    1
    98   150   149    2
    99    78    79    1
   100    46    48   am
   101    46    47    2
   102    76    77    2
   103   133   134    1
   104    31    30    1
   105    31    32    2
   106    30    33    1
   107    33    34    1
   108   149   155   am
   109   149   148    1
   110   136   135    2
   111   125   124    1
   112   121   120    2
   113   134   137    1
   114   134   135    1
   115   137   138    1
   116   154   152    1
   117   124   123    1
   118   191   190    2
   119   123   122    1
   120   152   151    1
   121   120   119    1
   122    34    35    1
   123   148   151    1
   124   148   147    1
   125    35    36    1
   126   142   141    2
   127   114   112   ar
   128   114   116   ar
   129   151   153    1
   130   190   189    1
   131   122   119    1
   132   112   111   ar
   133   119   118    1
   134    89    87   ar
   135    89    91   ar
   136    87    86   ar
   137    38    37    1
   138   117   116    1
   139   109   108    2
   140    36    37    2
   141   116   115   ar
   142   141   140    1
   143   139   140    1
   144    37    39    1
   145   189   192    1
   146   189   188    1
   147    91    90   ar
   148    86    85    1
   149    86    88   ar
   150   192   193    1
   151    85    82    1
   152   111   110    1
   153   111   113   ar
   154   194   193   ar
   155   194   196   ar
   156   140   143    1
   157   108   107    1
   158   110   107    1
   159   143   144    1
   160    81    82    1
   161    82    83    1
   162   193   195   ar
   163   115   113   ar
   164   107   106    1
   165   181   180    2
   166   196   198   ar
   167    90    88   ar
   168   188   180   am
   169   144   145    1
   170   144   146    1
   171   180   179    1
   172   100    99    2
   173   195   197   ar
   174   198   197   ar
   175    83    84    2
   176   106    99   am
   177    99    98    1
   178   187   186   ar
   179   187   185   ar
   180   179   178    1
   181   179   182    1
   182   186   184   ar
   183   185   183   ar
   184   184   183   ar
   185   183   182    1
   186   202   201    2
   187    96    93    1
   188    98   101    1
   189    98    97    1
   190   101   102    1
   191    95    94    2
   192   206   205    1
   193   206   207    2
   194   203   204    1
   195   203   200    1
   196   201   200    1
   197    94    93    1
   198   205   204    1
   199    93    92    1
   200   209   207    1
   201   200   199    1
   202   207   208    1
   203   102   103    1
   204   104   103    2
   205   103   105   am
