@<TRIPOS>MOLECULE
tmp/4cdnB02.pdb
 216 212 0 0 0
SMALL
GASTEIGER

@<TRIPOS>ATOM
      1  N         31.4510  114.7350   53.3050 N.3    29  TRP29      -0.1227
      2  CA        32.4050  115.3660   52.3940 C.3    29  TRP29       0.1737
      3  C         31.8610  115.2360   50.9650 C.2    29  TRP29       0.2595
      4  O         31.9610  114.1900   50.3190 O.2    29  TRP29      -0.2718
      5  CB        33.7950  114.7760   52.5410 C.3    29  TRP29       0.0564
      6  CG        34.7360  115.1320   51.4330 C.ar   29  TRP29       0.0003
      7  CD1       34.7340  116.2660   50.6780 C.ar   29  TRP29       0.0946
      8  CD2       35.8160  114.3360   50.9630 C.ar   29  TRP29       0.0152
      9  NE1       35.7710  116.2320   49.7670 N.ar   29  TRP29      -0.2442
     10  CE2       36.4320  115.0430   49.9070 C.ar   29  TRP29       0.0810
     11  CE3       36.3170  113.0720   51.3170 C.ar   29  TRP29       0.0012
     12  CZ2       37.5190  114.5320   49.2010 C.ar   29  TRP29       0.0191
     13  CZ3       37.4080  112.5690   50.6220 C.ar   29  TRP29       0.0001
     14  CH2       38.0020  113.3050   49.5810 C.ar   29  TRP29       0.0015
     15  N         31.2660  116.3280   50.5000 N.am   30  MET30      -0.1965
     16  CA        30.6380  116.3760   49.1960 C.3    30  MET30       0.1736
     17  C         31.6880  116.6990   48.1440 C.2    30  MET30       0.2617
     18  O         32.5000  117.6030   48.3370 O.2    30  MET30      -0.2715
     19  CB        29.5730  117.4580   49.1950 C.3    30  MET30       0.0427
     20  CG        28.8910  117.6810   47.8630 C.3    30  MET30       0.0599
     21  SD        27.7210  119.0420   47.9530 S.3    30  MET30      -0.1393
     22  CE        26.3270  118.2560   48.7270 C.3    30  MET30       0.0692
     23  N         31.6540  115.9690   47.0250 N.am   31  SER31      -0.1936
     24  CA        32.5900  116.2290   45.9260 C.3    31  SER31       0.2055
     25  C         31.9110  116.0990   44.5690 C.2    31  SER31       0.2642
     26  O         31.7620  117.0940   43.8380 O.2    31  SER31      -0.2714
     27  CB        33.8210  115.3290   46.0490 C.3    31  SER31       0.2130
     28  OG        34.8020  115.6540   45.0770 O.3    31  SER31      -0.2179
     29  N         31.4960  114.8890   44.2270 N.am   32  ARG32      -0.1977
     30  CA        30.8660  114.6350   42.9430 C.3    32  ARG32       0.1597
     31  C         29.3990  115.0800   42.8830 C.2    32  ARG32       0.2287
     32  O         28.9380  115.5940   41.8630 O.2    32  ARG32      -0.2864
     33  CB        30.9520  113.1380   42.6010 C.3    32  ARG32       0.0334
     34  CG        30.6000  112.8560   41.1380 C.3    32  ARG32       0.0492
     35  CD        30.7030  111.3790   40.8560 C.3    32  ARG32       0.2205
     36  NE        30.6270  111.0480   39.4300 N.pl3  32  ARG32      -0.0865
     37  CZ        30.6620  109.8070   38.9660 C.cat  32  ARG32       0.5346
     38  NH1       30.7890  108.7670   39.8030 N.pl3  32  ARG32       0.1354
     39  NH2       30.5990  109.5920   37.6560 N.pl3  32  ARG32       0.1354
     40  N         26.7720  117.3540   43.8430 N.3    34  GLN34      -0.1245
     41  CA        26.5700  118.6960   44.3760 C.3    34  GLN34       0.1566
     42  C         25.1180  119.1380   44.3020 C.2    34  GLN34       0.2260
     43  O         24.7350  119.9950   43.5060 O.2    34  GLN34      -0.2867
     44  CB        27.4950  119.6830   43.6810 C.3    34  GLN34       0.0367
     45  CG        28.9500  119.2520   43.7280 C.3    34  GLN34       0.0905
     46  CD        29.8840  120.1670   42.9550 C.2    34  GLN34       0.2608
     47  OE1       29.4980  121.2460   42.5190 O.2    34  GLN34      -0.2717
     48  NE2       31.1280  119.7440   42.8030 N.am   34  GLN34      -0.0878
     49  N         32.8570  120.9250   51.7330 N.3    60  PHE60      -0.1227
     50  CA        33.3260  120.8790   50.3610 C.3    60  PHE60       0.1736
     51  C         34.6940  121.5480   50.3770 C.2    60  PHE60       0.2596
     52  O         34.8620  122.6030   51.0010 O.2    60  PHE60      -0.2718
     53  CB        32.3470  121.6330   49.4310 C.3    60  PHE60       0.0547
     54  CG        32.7650  121.6350   47.9860 C.ar   60  PHE60      -0.0202
     55  CD1       33.6080  122.6260   47.4860 C.ar   60  PHE60      -0.0042
     56  CD2       32.3320  120.6260   47.1190 C.ar   60  PHE60      -0.0042
     57  CE1       34.0100  122.6130   46.1620 C.ar   60  PHE60      -0.0003
     58  CE2       32.7490  120.6000   45.8040 C.ar   60  PHE60      -0.0003
     59  CZ        33.5830  121.5960   45.3180 C.ar   60  PHE60      -0.0000
     60  N         35.6700  120.9330   49.6990 N.am   61  CYS61      -0.1956
     61  CA        36.9910  121.5410   49.5560 C.3    61  CYS61       0.1843
     62  C         37.2420  121.9670   48.1070 C.2    61  CYS61       0.2625
     63  O         37.3180  121.1300   47.2030 O.2    61  CYS61      -0.2714
     64  CB        38.0960  120.5990   50.0470 C.3    61  CYS61       0.0997
     65  SG        39.7450  121.3400   49.9740 S.3    61  CYS61      -0.0797
     66  N         37.3560  123.2740   47.8960 N.am   62  LEU62      -0.1963
     67  CA        37.6370  123.8500   46.5690 C.3    62  LEU62       0.1728
     68  C         39.1250  123.7850   46.2380 C.2    62  LEU62       0.2616
     69  O         39.9360  124.4000   46.9160 O.2    62  LEU62      -0.2715
     70  CB        37.1590  125.3090   46.5180 C.3    62  LEU62       0.0311
     71  CG        37.4290  126.0740   45.2160 C.3    62  LEU62       0.0022
     72  CD1       36.5560  125.5550   44.0800 C.3    62  LEU62       0.0001
     73  CD2       37.2240  127.5700   45.4220 C.3    62  LEU62       0.0001
     74  N         39.4840  123.0230   45.2130 N.am   63  THR63      -0.1951
     75  CA        40.8770  122.9240   44.7580 C.3    63  THR63       0.1897
     76  C         41.2030  124.0820   43.8310 C.2    63  THR63       0.2313
     77  O         40.3260  124.6320   43.2030 O.2    63  THR63      -0.2863
     78  CB        41.1130  121.6350   43.9580 C.3    63  THR63       0.1794
     79  OG1       40.2350  121.6080   42.8250 O.3    63  THR63      -0.2208
     80  CG2       40.8080  120.4430   44.7870 C.3    63  THR63       0.0378
     81  N         41.7870  121.4930   38.7910 N.3    66  PHE66      -0.1241
     82  CA        41.1130  120.2160   38.6760 C.3    66  PHE66       0.1605
     83  C         41.1050  119.7090   37.2390 C.2    66  PHE66       0.2264
     84  O         40.2400  120.0910   36.4350 O.2    66  PHE66      -0.2867
     85  CB        39.6680  120.2910   39.2170 C.3    66  PHE66       0.0534
     86  CG        38.9980  118.9530   39.2620 C.ar   66  PHE66      -0.0203
     87  CD1       39.2490  118.0820   40.3100 C.ar   66  PHE66      -0.0042
     88  CD2       38.1800  118.5280   38.2230 C.ar   66  PHE66      -0.0042
     89  CE1       38.6900  116.8130   40.3280 C.ar   66  PHE66      -0.0003
     90  CE2       37.6030  117.2760   38.2440 C.ar   66  PHE66      -0.0003
     91  CZ        37.8590  116.4160   39.2970 C.ar   66  PHE66      -0.0000
     92  N         40.3380  121.9780   34.1840 N.3    69  ALA69      -0.1245
     93  CA        39.1800  122.8600   34.2620 C.3    69  ALA69       0.1562
     94  C         39.6470  124.3070   34.3100 C.2    69  ALA69       0.2260
     95  O         40.6630  124.6120   34.9170 O.2    69  ALA69      -0.2867
     96  CB        38.3410  122.5480   35.4880 C.3    69  ALA69       0.0290
     97  N         34.1420  126.2140   33.8640 N.3    73  GLN73      -0.1231
     98  CA        33.6360  125.1480   34.7060 C.3    73  GLN73       0.1698
     99  C         33.5700  125.5580   36.1800 C.2    73  GLN73       0.2592
    100  O         32.5760  125.3050   36.8530 O.2    73  GLN73      -0.2718
    101  CB        34.5070  123.9060   34.5810 C.3    73  GLN73       0.0381
    102  CG        34.4810  123.2870   33.1990 C.3    73  GLN73       0.0905
    103  CD        35.5880  123.7410   32.2920 C.2    73  GLN73       0.2608
    104  OE1       36.3660  124.6630   32.6040 O.2    73  GLN73      -0.2717
    105  NE2       35.6270  123.1330   31.1010 N.am   73  GLN73      -0.0878
    106  N         34.6250  126.1930   36.6800 N.am   74  TYR74      -0.1976
    107  CA        34.6240  126.6460   38.0800 C.3    74  TYR74       0.1639
    108  C         33.4800  127.6070   38.3920 C.2    74  TYR74       0.2290
    109  O         32.8770  127.5350   39.4610 O.2    74  TYR74      -0.2864
    110  CB        35.9740  127.2740   38.4640 C.3    74  TYR74       0.0560
    111  CG        37.0190  126.2630   38.9480 C.ar   74  TYR74      -0.0198
    112  CD1       37.0510  125.8480   40.2730 C.ar   74  TYR74      -0.0009
    113  CD2       37.9850  125.7500   38.0890 C.ar   74  TYR74      -0.0009
    114  CE1       38.0110  124.9470   40.7360 C.ar   74  TYR74       0.0417
    115  CE2       38.9420  124.8410   38.5440 C.ar   74  TYR74       0.0417
    116  CZ        38.9500  124.4440   39.8660 C.ar   74  TYR74       0.1957
    117  OH        39.9120  123.5380   40.3230 O.3    74  TYR74      -0.2866
    118  N         30.2500  125.5630   38.5210 N.3    77  MET77      -0.1245
    119  CA        30.2280  124.8240   39.7440 C.3    77  MET77       0.1570
    120  C         29.9130  125.7290   40.9330 C.2    77  MET77       0.2261
    121  O         29.0850  125.3830   41.7880 O.2    77  MET77      -0.2867
    122  CB        31.5770  124.1480   39.9600 C.3    77  MET77       0.0387
    123  CG        31.5870  123.2660   41.1900 C.3    77  MET77       0.0595
    124  SD        33.1250  122.3610   41.4170 S.3    77  MET77      -0.1393
    125  CE        34.0740  123.6480   42.2170 C.3    77  MET77       0.0692
    126  N         42.1290  118.6070   48.9980 N.3   102  PRO102     -0.2116
    127  CA        41.1300  117.9490   49.8230 C.3   102  PRO102      0.1372
    128  C         41.7240  116.9190   50.7670 C.2   102  PRO102      0.2244
    129  O         41.2660  116.8080   51.9020 O.2   102  PRO102     -0.2868
    130  CB        40.2020  117.3010   48.8010 C.3   102  PRO102      0.0268
    131  CG        40.3310  118.1880   47.6150 C.3   102  PRO102      0.0207
    132  CD        41.7870  118.4990   47.5700 C.3   102  PRO102      0.0892
    133  N         33.3590  108.4360   43.2730 N.3   123  SER123     -0.1217
    134  CA        33.8840  108.6890   41.9470 C.3   123  SER123      0.1889
    135  C         35.0000  107.7210   41.6520 C.2   123  SER123      0.2288
    136  O         35.8710  107.5110   42.5150 O.2   123  SER123     -0.2866
    137  CB        34.4680  110.0820   41.8440 C.3   123  SER123      0.2089
    138  OG        35.2740  110.1430   40.6570 O.3   123  SER123     -0.2183
    139  N         37.3980  108.2010   39.5050 N.3   125  LEU125     -0.1245
    140  CA        38.5730  108.8820   38.9950 C.3   125  LEU125      0.1561
    141  C         39.7720  108.7560   39.9500 C.2   125  LEU125      0.2260
    142  O         39.6230  108.7320   41.1750 O.2   125  LEU125     -0.2867
    143  CB        38.3060  110.3530   38.7150 C.3   125  LEU125      0.0270
    144  CG        37.1620  110.6740   37.7490 C.3   125  LEU125      0.0019
    145  CD1       37.0290  112.1800   37.5780 C.3   125  LEU125      0.0001
    146  CD2       37.3720  109.9770   36.4080 C.3   125  LEU125      0.0001
    147  N         42.0920  110.8550   40.8100 N.3   127  ILE127     -0.1231
    148  CA        42.2360  111.9950   41.7260 C.3   127  ILE127      0.1692
    149  C         41.4780  111.8140   43.0430 C.2   127  ILE127      0.2591
    150  O         42.0000  112.1090   44.1140 O.2   127  ILE127     -0.2718
    151  CB        41.8610  113.3340   41.0170 C.3   127  ILE127      0.0266
    152  CG1       42.2190  114.5650   41.8400 C.3   127  ILE127      0.0019
    153  CG2       40.3920  113.4300   40.6470 C.3   127  ILE127      0.0020
    154  CD1       43.6850  114.7180   42.0760 C.3   127  ILE127      0.0001
    155  N         40.2470  111.3300   42.9560 N.am  128  LYS128     -0.1980
    156  CA        39.4510  111.0640   44.1480 C.3   128  LYS128      0.1596
    157  C         40.1050  109.9740   45.0110 C.2   128  LYS128      0.2287
    158  O         40.1420  110.1300   46.2290 O.2   128  LYS128     -0.2864
    159  CB        38.0230  110.6570   43.7870 C.3   128  LYS128      0.0298
    160  CG        37.1020  110.4350   45.0000 C.3   128  LYS128      0.0038
    161  CD        36.9780  111.6810   45.8790 C.3   128  LYS128      0.0206
    162  CE        36.0260  111.5090   47.0660 C.3   128  LYS128      0.1093
    163  NZ        34.7910  110.6990   46.8050 N.3   128  LYS128     -0.1314
    164  N         42.9400  111.5530   46.9030 N.3   131  TRP131     -0.1241
    165  CA        42.4200  112.3450   48.0260 C.3   131  TRP131      0.1605
    166  C         41.9590  111.4450   49.1750 C.2   131  TRP131      0.2264
    167  O         42.2860  111.6860   50.3460 O.2   131  TRP131     -0.2867
    168  CB        41.2190  113.2050   47.5950 C.3   131  TRP131      0.0550
    169  CG        41.5170  114.2950   46.6020 C.ar  131  TRP131      0.0003
    170  CD1       42.7260  114.8490   46.3200 C.ar  131  TRP131      0.0946
    171  CD2       40.5560  114.9940   45.8070 C.ar  131  TRP131      0.0152
    172  NE1       42.5860  115.8270   45.3650 N.ar  131  TRP131     -0.2442
    173  CE2       41.2640  115.9400   45.0330 C.ar  131  TRP131      0.0810
    174  CE3       39.1740  114.8890   45.6520 C.ar  131  TRP131      0.0012
    175  CZ2       40.6270  116.7830   44.1180 C.ar  131  TRP131      0.0191
    176  CZ3       38.5320  115.7300   44.7570 C.ar  131  TRP131      0.0001
    177  CH2       39.2540  116.6630   43.9970 C.ar  131  TRP131      0.0015
    178  N         27.0260  115.9040   35.3500 N.3   248  HIS248     -0.1226
    179  CA        28.4530  115.8500   35.6520 C.3   248  HIS248      0.1752
    180  C         28.7650  116.4120   37.0270 C.2   248  HIS248      0.2596
    181  O         29.5090  115.7990   37.7930 O.2   248  HIS248     -0.2718
    182  CB        29.2780  116.6180   34.6170 C.3   248  HIS248      0.0759
    183  CG        30.6710  116.9080   35.0890 C.ar  248  HIS248      0.0818
    184  ND1       31.5980  115.9100   35.3190 N.ar  248  HIS248     -0.2268
    185  CD2       31.2660  118.0670   35.4540 C.ar  248  HIS248      0.1154
    186  CE1       32.7040  116.4470   35.7970 C.ar  248  HIS248      0.1986
    187  NE2       32.5210  117.7490   35.9040 N.ar  248  HIS248     -0.2212
    188  N         28.2070  117.5920   37.3250 N.am  249  PHE249     -0.1976
    189  CA        28.4110  118.2430   38.6160 C.3   249  PHE249      0.1639
    190  C         27.5140  117.7000   39.7250 C.2   249  PHE249      0.2290
    191  O         27.6300  118.1170   40.8670 O.2   249  PHE249     -0.2864
    192  CB        28.2570  119.7700   38.5030 C.3   249  PHE249      0.0560
    193  CG        29.4250  120.4370   37.8320 C.ar  249  PHE249     -0.0200
    194  CD1       30.6560  120.5530   38.4920 C.ar  249  PHE249     -0.0042
    195  CD2       29.3080  120.9500   36.5390 C.ar  249  PHE249     -0.0042
    196  CE1       31.7480  121.1620   37.8660 C.ar  249  PHE249     -0.0003
    197  CE2       30.3880  121.5540   35.9150 C.ar  249  PHE249     -0.0003
    198  CZ        31.6100  121.6590   36.5720 C.ar  249  PHE249     -0.0000
    199  N         35.9420  115.9730   32.2740 N.3   387  ARG387     -0.1245
    200  CA        36.6770  115.5630   33.4630 C.3   387  ARG387      0.1563
    201  C         35.7690  114.5720   34.1670 C.2   387  ARG387      0.2260
    202  O         35.4430  114.7250   35.3400 O.2   387  ARG387     -0.2867
    203  CB        37.0400  116.7700   34.3300 C.3   387  ARG387      0.0307
    204  CG        37.8690  117.8370   33.5920 C.3   387  ARG387      0.0489
    205  CD        37.6640  119.2460   34.1090 C.3   387  ARG387      0.2205
    206  NE        36.2480  119.5600   34.2600 N.pl3 387  ARG387     -0.0865
    207  CZ        35.4000  119.8090   33.2590 C.cat 387  ARG387      0.5346
    208  NH1       35.8100  119.8420   31.9940 N.pl3 387  ARG387      0.1354
    209  NH2       34.1280  120.0120   33.5360 N.pl3 387  ARG387      0.1354
    210  N         34.0000  110.3250   33.9830 N.3   389  PRO389     -0.2116
    211  CA        34.1050  108.9870   33.4480 C.3   389  PRO389      0.1372
    212  C         33.4570  108.8390   32.0620 C.2   389  PRO389      0.2244
    213  O         33.9990  108.1240   31.2160 O.2   389  PRO389     -0.2868
    214  CB        33.3560  108.1570   34.4990 C.3   389  PRO389      0.0268
    215  CG        33.6840  108.8540   35.7770 C.3   389  PRO389      0.0207
    216  CD        33.5300  110.3020   35.3880 C.3   389  PRO389      0.0892
@<TRIPOS>BOND
     1   105   103   am
     2   213   212    2
     3   208   207    1
     4   212   211    1
     5   199   200    1
     6   103   104    2
     7   103   102    1
     8   102   101    1
     9   207   209    1
    10   207   206    2
    11   211   210    1
    12   211   214    1
    13   200   201    1
    14   200   203    1
    15   204   205    1
    16   204   203    1
    17    97    98    1
    18   210   216    1
    19   205   206    1
    20   201   202    2
    21    92    93    1
    22    93    94    1
    23    93    96    1
    24    94    95    2
    25   214   215    1
    26   101    98    1
    27   182   183    1
    28   182   179    1
    29    98    99    1
    30   183   184   ar
    31   183   185   ar
    32   184   186   ar
    33   178   179    1
    34   216   215    1
    35   185   187   ar
    36   179   180    1
    37   186   187   ar
    38   197   195   ar
    39   197   198   ar
    40    99   106   am
    41    99   100    2
    42   146   144    1
    43    84    83    2
    44   195   193   ar
    45   198   196   ar
    46   106   107    1
    47   180   188   am
    48   180   181    2
    49    83    82    1
    50   188   189    1
    51   145   144    1
    52    39    37    1
    53   144   143    1
    54   193   194   ar
    55   193   192    1
    56   196   194   ar
    57   107   108    1
    58   107   110    1
    59   113   115   ar
    60   113   111   ar
    61    88    90   ar
    62    88    86   ar
    63    90    91   ar
    64   108   109    2
    65   110   111    1
    66   192   189    1
    67   118   119    1
    68   115   116   ar
    69   189   190    1
    70    82    81    1
    71    82    85    1
    72   143   140    1
    73   111   112   ar
    74    37    36    2
    75    37    38    1
    76   140   139    1
    77   140   141    1
    78    85    86    1
    79    86    87   ar
    80    91    89   ar
    81    36    35    1
    82   190   191    2
    83   119   122    1
    84   119   120    1
    85   116   117    1
    86   116   114   ar
    87   141   142    2
    88   122   123    1
    89   112   114   ar
    90    87    89   ar
    91   153   151    1
    92   138   137    1
    93   147   148    1
    94    35    34    1
    95   120   121    2
    96   151   148    1
    97   151   152    1
    98    34    33    1
    99   123   124    1
   100   124   125    1
   101   135   134    1
   102   135   136    2
   103   148   149    1
   104   152   154    1
   105   137   134    1
   106    32    31    2
   107   134   133    1
   108    47    46    2
   109    33    30    1
   110    48    46   am
   111    79    78    1
   112    31    30    1
   113    30    29    1
   114    46    45    1
   115   155   149   am
   116   155   156    1
   117   149   150    2
   118    77    76    2
   119    43    42    2
   120    44    45    1
   121    44    41    1
   122   159   156    1
   123   159   160    1
   124    76    75    1
   125    26    25    2
   126    40    41    1
   127    78    75    1
   128    78    80    1
   129   177   175   ar
   130   177   176   ar
   131    72    71    1
   132   175   173   ar
   133   156   157    1
   134    29    25   am
   135    42    41    1
   136    25    24    1
   137   176   174   ar
   138    75    74    1
   139   160   161    1
   140   157   158    2
   141   173   172   ar
   142   173   171   ar
   143    28    27    1
   144    74    68   am
   145    71    73    1
   146    71    70    1
   147    59    58   ar
   148    59    57   ar
   149   172   170   ar
   150   174   171   ar
   151    58    56   ar
   152   171   169   ar
   153   161   162    1
   154    24    27    1
   155    24    23    1
   156    57    55   ar
   157    68    67    1
   158    68    69    2
   159   170   169   ar
   160    70    67    1
   161    67    66    1
   162   169   168    1
   163   163   162    1
   164   164   165    1
   165    23    17   am
   166    56    54   ar
   167    63    62    2
   168    55    54   ar
   169   132   131    1
   170   132   126    1
   171   168   165    1
   172   131   130    1
   173    20    21    1
   174    20    19    1
   175    66    62   am
   176    21    22    1
   177    54    53    1
   178   165   166    1
   179    62    61    1
   180    17    18    2
   181    17    16    1
   182   130   127    1
   183   126   127    1
   184   166   167    2
   185    19    16    1
   186    16    15    1
   187    12    14   ar
   188    12    10   ar
   189    53    50    1
   190    61    60    1
   191    61    64    1
   192    14    13   ar
   193    60    51   am
   194     9    10   ar
   195     9     7   ar
   196   127   128    1
   197    10     8   ar
   198    65    64    1
   199     4     3    2
   200    50    51    1
   201    50    49    1
   202    51    52    2
   203    15     3   am
   204    13    11   ar
   205     7     6   ar
   206   128   129    2
   207     8    11   ar
   208     8     6   ar
   209     3     2    1
   210     6     5    1
   211     2     5    1
   212     2     1    1
