@<TRIPOS>MOLECULE
tmp/4cdnA04.pdb
 85 80 0 0 0
SMALL
GASTEIGER

@<TRIPOS>ATOM
      1  N         81.6980  100.7670   50.8590 N.3    72  ARG72      -0.1245
      2  CA        81.3800   99.3680   51.1580 C.3    72  ARG72       0.1563
      3  C         80.2870   98.7770   50.2510 C.2    72  ARG72       0.2260
      4  O         80.3410   97.5960   49.8520 O.2    72  ARG72      -0.2867
      5  CB        81.0490   99.1800   52.6390 C.3    72  ARG72       0.0307
      6  CG        79.7330   99.7840   53.0900 C.3    72  ARG72       0.0489
      7  CD        79.3640   99.3980   54.5130 C.3    72  ARG72       0.2205
      8  NE        80.2570   99.9250   55.5310 N.pl3  72  ARG72      -0.0865
      9  CZ        80.1070   99.6940   56.8310 C.cat  72  ARG72       0.5346
     10  NH1       79.0970   98.9440   57.2690 N.pl3  72  ARG72       0.1354
     11  NH2       80.9770  100.2020   57.6980 N.pl3  72  ARG72       0.1354
     12  N         83.9450  109.4230   53.8390 N.3   221  ASN221     -0.1240
     13  CA        84.1950  108.4190   54.8690 C.3   221  ASN221      0.1653
     14  C         85.1350  107.3190   54.3900 C.2   221  ASN221      0.2266
     15  O         84.8070  106.5580   53.4610 O.2   221  ASN221     -0.2867
     16  CB        82.8760  107.8110   55.3460 C.3   221  ASN221      0.1155
     17  CG        82.9750  107.2400   56.7470 C.2   221  ASN221      0.2627
     18  OD1       83.9400  106.5590   57.0900 O.2   221  ASN221     -0.2716
     19  ND2       81.9770  107.5310   57.5720 N.am  221  ASN221     -0.0877
     20  N         85.8280  104.8300   56.2170 N.3   223  ASP223     -0.1225
     21  CA        85.1230  103.6150   56.6480 C.3   223  ASP223      0.1790
     22  C         86.1140  102.6490   57.2560 C.2   223  ASP223      0.2440
     23  O         86.2430  101.5010   56.7990 O.2   223  ASP223     -0.2733
     24  CB        84.3740  102.9650   55.4660 C.3   223  ASP223      0.1423
     25  CG        83.3100  101.9500   55.9190 C.2   223  ASP223      0.3668
     26  OD1       83.0760  101.8030   57.1450 O.co2 223  ASP223     -0.2456
     27  OD2       82.6890  101.3240   55.0340 O.co2 223  ASP223     -0.2456
     28  N         86.8350  103.1100   58.2950 N.am  224  PRO224     -0.2718
     29  CA        87.9270  102.3110   58.8290 C.3   224  PRO224      0.1535
     30  C         87.4930  100.9870   59.4660 C.2   224  PRO224      0.2598
     31  O         88.2490  100.0280   59.4220 O.2   224  PRO224     -0.2715
     32  CB        88.5720  103.2490   59.8830 C.3   224  PRO224      0.0310
     33  CG        87.4750  104.1500   60.3050 C.3   224  PRO224      0.0237
     34  CD        86.6630  104.3680   59.0460 C.3   224  PRO224      0.0939
     35  N         86.2920  100.9120   60.0220 N.am  225  LEU225     -0.1978
     36  CA        85.8860   99.7060   60.7680 C.3   225  LEU225      0.1596
     37  C         85.3280   98.5700   59.9130 C.2   225  LEU225      0.2287
     38  O         85.2290   97.4430   60.3930 O.2   225  LEU225     -0.2864
     39  CB        84.8480  100.0830   61.8310 C.3   225  LEU225      0.0297
     40  CG        85.3050  101.0920   62.8960 C.3   225  LEU225      0.0022
     41  CD1       84.2560  101.2440   63.9870 C.3   225  LEU225      0.0001
     42  CD2       86.6440  100.6680   63.5040 C.3   225  LEU225      0.0001
     43  N         75.8950  112.0690   64.7830 N.3   349  GLU349     -0.1245
     44  CA        77.2790  111.6660   64.8810 C.3   349  GLU349      0.1567
     45  C         77.5290  110.7760   66.0910 C.2   349  GLU349      0.2260
     46  O         78.3560  109.8700   66.0460 O.2   349  GLU349     -0.2867
     47  CB        78.2010  112.8880   64.9120 C.3   349  GLU349      0.0388
     48  CG        78.2690  113.6720   63.5970 C.3   349  GLU349      0.1160
     49  CD        76.9970  114.4420   63.2290 C.2   349  GLU349      0.3649
     50  OE1       76.2450  114.9430   64.1180 O.co2 349  GLU349     -0.2457
     51  OE2       76.7410  114.5760   62.0080 O.co2 349  GLU349     -0.2457
     52  N         75.9720  107.4390   65.2950 N.3   352  GLU352     -0.1231
     53  CA        76.8140  106.8160   64.2390 C.3   352  GLU352      0.1699
     54  C         78.0670  106.1710   64.8140 C.2   352  GLU352      0.2592
     55  O         78.4950  105.0840   64.3860 O.2   352  GLU352     -0.2718
     56  CB        77.2160  107.8840   63.2190 C.3   352  GLU352      0.0402
     57  CG        78.1290  107.4230   62.1010 C.3   352  GLU352      0.1161
     58  CD        78.3720  108.5360   61.0970 C.2   352  GLU352      0.3649
     59  OE1       78.5890  109.6770   61.5510 O.co2 352  GLU352     -0.2457
     60  OE2       78.3380  108.2760   59.8680 O.co2 352  GLU352     -0.2457
     61  N         78.6650  106.8440   65.7840 N.am  353  ALA353     -0.1980
     62  CA        79.8720  106.3230   66.4200 C.3   353  ALA353      0.1597
     63  C         79.5880  105.3080   67.5190 C.2   353  ALA353      0.2287
     64  O         80.5310  104.8040   68.1250 O.2   353  ALA353     -0.2864
     65  CB        80.7410  107.4790   66.9700 C.3   353  ALA353      0.0319
     66  N         78.5510   98.7190   61.8090 N.3   369  LEU369     -0.1245
     67  CA        79.7850   99.3470   61.3410 C.3   369  LEU369      0.1561
     68  C         80.8480   98.3320   60.8980 C.2   369  LEU369      0.2260
     69  O         81.5110   98.5340   59.8730 O.2   369  LEU369     -0.2867
     70  CB        80.3670  100.2650   62.4300 C.3   369  LEU369      0.0270
     71  CG        79.5710  101.5040   62.8340 C.3   369  LEU369      0.0019
     72  CD1       80.2590  102.2580   63.9660 C.3   369  LEU369      0.0001
     73  CD2       79.3980  102.4270   61.6430 C.3   369  LEU369      0.0001
     74  N         75.2830  102.5560   56.0590 N.3   407  TYR407     -0.1241
     75  CA        76.0580  101.4200   56.5580 C.3   407  TYR407      0.1605
     76  C         75.5860  100.0040   56.2570 C.2   407  TYR407      0.2264
     77  O         76.4170   99.1060   56.2190 O.2   407  TYR407     -0.2867
     78  CB        76.3190  101.5780   58.0670 C.3   407  TYR407      0.0534
     79  CG        77.1570  102.7960   58.3650 C.ar  407  TYR407     -0.0201
     80  CD1       78.4880  102.8520   57.9840 C.ar  407  TYR407     -0.0009
     81  CD2       76.6140  103.9160   58.9890 C.ar  407  TYR407     -0.0009
     82  CE1       79.2620  103.9860   58.2510 C.ar  407  TYR407      0.0417
     83  CE2       77.3920  105.0450   59.2500 C.ar  407  TYR407      0.0417
     84  CZ        78.7180  105.0690   58.8800 C.ar  407  TYR407      0.1957
     85  OH        79.5020  106.2080   59.0910 O.3   407  TYR407     -0.2866
@<TRIPOS>BOND
     1     4     3    2
     2     3     2    1
     3     1     2    1
     4     2     5    1
     5     5     6    1
     6     6     7    1
     7    15    14    2
     8    12    13    1
     9    14    13    1
    10     7     8    1
    11    13    16    1
    12    27    25   ar
    13    16    17    1
    14    24    25    1
    15    24    21    1
    16     8     9    2
    17    25    26   ar
    18    74    75    1
    19    20    21    1
    20    77    76    2
    21    76    75    1
    22    75    78    1
    23    21    22    1
    24    17    18    2
    25    17    19   am
    26    23    22    2
    27     9    10    1
    28     9    11    1
    29    22    28   am
    30    80    82   ar
    31    80    79   ar
    32    78    79    1
    33    82    84   ar
    34    28    29    1
    35    28    34    1
    36    79    81   ar
    37    29    30    1
    38    29    32    1
    39    84    85    1
    40    84    83   ar
    41    81    83   ar
    42    34    33    1
    43    31    30    2
    44    30    35   am
    45    60    58   ar
    46    69    68    2
    47    32    33    1
    48    37    38    2
    49    37    36    1
    50    35    36    1
    51    36    39    1
    52    68    67    1
    53    58    59   ar
    54    58    57    1
    55    67    66    1
    56    67    70    1
    57    73    71    1
    58    39    40    1
    59    51    49   ar
    60    57    56    1
    61    70    71    1
    62    71    72    1
    63    40    42    1
    64    40    41    1
    65    56    53    1
    66    49    48    1
    67    49    50   ar
    68    48    47    1
    69    53    54    1
    70    53    52    1
    71    55    54    2
    72    43    44    1
    73    54    61   am
    74    44    47    1
    75    44    45    1
    76    61    62    1
    77    46    45    2
    78    62    65    1
    79    62    63    1
    80    63    64    2
