@<TRIPOS>MOLECULE
tmp/4cdpA00.pdb
 204 192 0 0 0
SMALL
GASTEIGER

@<TRIPOS>ATOM
      1  N         37.2210  -26.8470    0.5810 N.3    90  ALA90      -0.1231
      2  CA        36.1170  -25.9090    0.7470 C.3    90  ALA90       0.1694
      3  C         35.9500  -25.2450   -0.5980 C.2    90  ALA90       0.2593
      4  O         36.8470  -25.3280   -1.4510 O.2    90  ALA90      -0.2718
      5  CB        36.4700  -24.8770    1.7910 C.3    90  ALA90       0.0304
      6  N         34.7650  -24.6850   -0.8330 N.am   91  GLY91      -0.1942
      7  CA        34.4790  -24.1380   -2.1380 C.3    91  GLY91       0.2014
      8  C         34.6850  -22.6330   -2.1250 C.2    91  GLY91       0.2638
      9  O         34.6650  -21.9580   -1.0710 O.2    91  GLY91      -0.2714
     10  N         34.9500  -22.0890   -3.2970 N.am   92  LEU92      -0.1977
     11  CA        34.9340  -20.6400   -3.3850 C.3    92  LEU92       0.1596
     12  C         34.3750  -20.1020   -4.6850 C.2    92  LEU92       0.2287
     13  O         34.3870  -20.7820   -5.7350 O.2    92  LEU92      -0.2864
     14  CB        36.2240  -19.9660   -2.9340 C.3    92  LEU92       0.0297
     15  CG        37.4450  -20.0220   -3.8180 C.3    92  LEU92       0.0022
     16  CD1       38.3670  -18.9410   -3.2650 C.3    92  LEU92       0.0001
     17  CD2       38.0330  -21.4150   -3.6530 C.3    92  LEU92       0.0001
     18  N         35.1350  -16.7250   -6.4960 N.3    94  LEU94      -0.1245
     19  CA        36.2150  -15.7770   -6.2490 C.3    94  LEU94       0.1561
     20  C         36.0950  -14.5240   -7.1170 C.2    94  LEU94       0.2260
     21  O         36.4730  -14.5210   -8.3020 O.2    94  LEU94      -0.2867
     22  CB        37.5680  -16.4590   -6.5150 C.3    94  LEU94       0.0270
     23  CG        38.8090  -15.5780   -6.2620 C.3    94  LEU94       0.0019
     24  CD1       38.8710  -15.1160   -4.8100 C.3    94  LEU94       0.0001
     25  CD2       40.0760  -16.3600   -6.6110 C.3    94  LEU94       0.0001
     26  N         32.8740  -17.9840    0.3230 N.3   102  ARG102     -0.1231
     27  CA        33.6480  -19.1590    0.7390 C.3   102  ARG102      0.1694
     28  C         32.5950  -20.1370    1.2720 C.2   102  ARG102      0.2592
     29  O         31.7060  -19.7560    2.0400 O.2   102  ARG102     -0.2718
     30  CB        34.6690  -18.8110    1.8330 C.3   102  ARG102      0.0321
     31  CG        35.5990  -17.6460    1.4360 C.3   102  ARG102      0.0489
     32  CD        36.4740  -17.9470    0.2130 C.3   102  ARG102      0.2205
     33  NE        37.2870  -16.7750   -0.1870 N.pl3 102  ARG102     -0.0865
     34  CZ        37.0080  -15.9410   -1.1970 C.cat 102  ARG102      0.5346
     35  NH1       35.9870  -16.1440   -2.0040 N.pl3 102  ARG102      0.1354
     36  NH2       37.7340  -14.8600   -1.4020 N.pl3 102  ARG102      0.1354
     37  N         32.6550  -21.3730    0.7860 N.am  103  LEU103     -0.1966
     38  CA        31.5630  -22.3150    0.9620 C.3   103  LEU103      0.1728
     39  C         32.0260  -23.6040    1.6530 C.2   103  LEU103      0.2616
     40  O         33.0490  -24.2100    1.2720 O.2   103  LEU103     -0.2715
     41  CB        30.9370  -22.6380   -0.3870 C.3   103  LEU103      0.0311
     42  CG        30.7440  -21.4390   -1.3280 C.3   103  LEU103      0.0022
     43  CD1       30.4900  -21.9370   -2.7390 C.3   103  LEU103      0.0001
     44  CD2       29.5730  -20.6040   -0.8690 C.3   103  LEU103      0.0001
     45  N         31.2850  -24.0120    2.6810 N.am  104  PHE104     -0.1974
     46  CA        31.5620  -25.2850    3.3350 C.3   104  PHE104      0.1639
     47  C         30.4330  -26.2460    2.9820 C.2   104  PHE104      0.2290
     48  O         29.4250  -26.3370    3.6990 O.2   104  PHE104     -0.2864
     49  CB        31.7390  -25.0840    4.8360 C.3   104  PHE104      0.0560
     50  CG        32.7300  -23.9850    5.1680 C.ar  104  PHE104     -0.0200
     51  CD1       34.0540  -24.1020    4.8400 C.ar  104  PHE104     -0.0042
     52  CD2       32.2740  -22.7800    5.6850 C.ar  104  PHE104     -0.0042
     53  CE1       34.9400  -23.0900    5.1490 C.ar  104  PHE104     -0.0003
     54  CE2       33.1470  -21.7240    5.9190 C.ar  104  PHE104     -0.0003
     55  CZ        34.4680  -21.8680    5.5890 C.ar  104  PHE104     -0.0000
     56  N         50.5010  -18.7930    6.8780 N.3   187  ASP187     -0.1225
     57  CA        49.3400  -18.2910    6.1180 C.3   187  ASP187      0.1805
     58  C         48.1250  -18.3310    7.0220 C.2   187  ASP187      0.2598
     59  O         47.9830  -19.2790    7.8020 O.2   187  ASP187     -0.2718
     60  CB        49.1020  -19.2000    4.9030 C.3   187  ASP187      0.1424
     61  CG        48.1210  -18.6210    3.9160 C.2   187  ASP187      0.3668
     62  OD1       46.8930  -18.7130    4.1390 O.co2 187  ASP187     -0.2456
     63  OD2       48.5960  -18.0780    2.8940 O.co2 187  ASP187     -0.2456
     64  N         47.2420  -17.3180    6.9250 N.am  188  VAL188     -0.1966
     65  CA        46.0600  -17.2800    7.8200 C.3   188  VAL188      0.1727
     66  C         45.1250  -18.4540    7.6240 C.2   188  VAL188      0.2616
     67  O         44.3430  -18.7890    8.5260 O.2   188  VAL188     -0.2715
     68  CB        45.2480  -15.9790    7.6770 C.3   188  VAL188      0.0290
     69  CG1       46.1440  -14.7770    7.9540 C.3   188  VAL188      0.0023
     70  CG2       44.5740  -15.8990    6.3140 C.3   188  VAL188      0.0023
     71  N         45.1750  -19.0790    6.4450 N.am  189  HIS189     -0.1973
     72  CA        44.2570  -20.1870    6.1690 C.3   189  HIS189      0.1656
     73  C         44.6220  -21.4760    6.9260 C.2   189  HIS189      0.2291
     74  O         43.8680  -22.4630    6.8760 O.2   189  HIS189     -0.2864
     75  CB        44.1110  -20.4640    4.6700 C.3   189  HIS189      0.0771
     76  CG        43.5900  -19.2950    3.8950 C.ar  189  HIS189      0.0820
     77  ND1       44.4070  -18.3120    3.3790 N.ar  189  HIS189     -0.2267
     78  CD2       42.3130  -18.9040    3.6260 C.ar  189  HIS189      0.1154
     79  CE1       43.6710  -17.3740    2.8070 C.ar  189  HIS189      0.1986
     80  NE2       42.3930  -17.7030    2.9470 N.ar  189  HIS189     -0.2212
     81  N         44.9450  -21.3100   10.2180 N.3   191  PHE191     -0.1241
     82  CA        44.5120  -21.0550   11.5960 C.3   191  PHE191      0.1605
     83  C         43.3380  -21.9480   12.0080 C.2   191  PHE191      0.2264
     84  O         43.3130  -22.4560   13.1270 O.2   191  PHE191     -0.2867
     85  CB        44.1370  -19.5730   11.7920 C.3   191  PHE191      0.0534
     86  CG        43.8480  -19.2150   13.2220 C.ar  191  PHE191     -0.0203
     87  CD1       44.7990  -19.4300   14.2130 C.ar  191  PHE191     -0.0042
     88  CD2       42.6010  -18.6780   13.5870 C.ar  191  PHE191     -0.0042
     89  CE1       44.5410  -19.1040   15.5290 C.ar  191  PHE191     -0.0003
     90  CE2       42.3490  -18.2940   14.8940 C.ar  191  PHE191     -0.0003
     91  CZ        43.3120  -18.5130   15.8830 C.ar  191  PHE191     -0.0000
     92  N         37.6160  -19.9890   18.6880 N.3   202  ARG202     -0.1245
     93  CA        38.4760  -18.8320   18.4430 C.3   202  ARG202      0.1563
     94  C         38.7670  -18.1240   19.7510 C.2   202  ARG202      0.2260
     95  O         39.9060  -17.7770   20.0340 O.2   202  ARG202     -0.2867
     96  CB        37.8150  -17.8410   17.4520 C.3   202  ARG202      0.0307
     97  CG        37.5500  -18.4960   16.0920 C.3   202  ARG202      0.0489
     98  CD        37.0980  -17.4810   15.0510 C.3   202  ARG202      0.2205
     99  NE        38.1910  -16.6690   14.5480 N.pl3 202  ARG202     -0.0865
    100  CZ        39.0200  -17.0370   13.5710 C.cat 202  ARG202      0.5346
    101  NH1       39.0260  -18.2900   13.1180 N.pl3 202  ARG202      0.1354
    102  NH2       39.9510  -16.1910   13.1620 N.pl3 202  ARG202      0.1354
    103  N         38.2680   -5.2720    4.1090 N.3   237  MET237     -0.1245
    104  CA        37.4820   -6.4660    3.8600 C.3   237  MET237      0.1570
    105  C         36.5210   -6.6340    5.0290 C.2   237  MET237      0.2261
    106  O         36.9190   -6.4960    6.1960 O.2   237  MET237     -0.2867
    107  CB        38.3820   -7.7050    3.8350 C.3   237  MET237      0.0387
    108  CG        39.5070   -7.6400    2.7880 C.3   237  MET237      0.0595
    109  SD        40.6090   -9.0810    2.9430 S.3   237  MET237     -0.1393
    110  CE        39.6530  -10.3530    2.1290 C.3   237  MET237      0.0692
    111  N         34.0180   -9.5840    6.4630 N.3   239  PHE239     -0.1241
    112  CA        33.5930  -10.9980    6.3390 C.3   239  PHE239      0.1605
    113  C         32.3780  -11.1760    7.2380 C.2   239  PHE239      0.2264
    114  O         32.4310  -10.8490    8.4430 O.2   239  PHE239     -0.2867
    115  CB        34.6450  -11.9550    6.9430 C.3   239  PHE239      0.0534
    116  CG        35.9660  -12.0450    6.1830 C.ar  239  PHE239     -0.0203
    117  CD1       36.8430  -10.9320    6.0470 C.ar  239  PHE239     -0.0042
    118  CD2       36.3920  -13.2930    5.7110 C.ar  239  PHE239     -0.0042
    119  CE1       38.0790  -11.0640    5.4500 C.ar  239  PHE239     -0.0003
    120  CE2       37.6390  -13.4430    5.1180 C.ar  239  PHE239     -0.0003
    121  CZ        38.4740  -12.3250    4.9860 C.ar  239  PHE239     -0.0000
    122  N         30.4780  -17.9590    3.9220 N.3   246  VAL246     -0.1245
    123  CA        31.0060  -16.6460    4.3460 C.3   246  VAL246      0.1561
    124  C         31.0510  -15.7620    3.1020 C.2   246  VAL246      0.2260
    125  O         31.5010  -16.1860    2.0290 O.2   246  VAL246     -0.2867
    126  CB        32.4280  -16.7570    4.9010 C.3   246  VAL246      0.0252
    127  CG1       32.8600  -15.4040    5.4430 C.3   246  VAL246      0.0019
    128  CG2       32.4600  -17.7730    6.0190 C.3   246  VAL246      0.0019
    129  N         32.2150  -12.0160    1.5400 N.3   248  ILE248     -0.1245
    130  CA        33.3330  -11.1040    1.8240 C.3   248  ILE248      0.1561
    131  C         33.2150   -9.8620    0.9500 C.2   248  ILE248      0.2260
    132  O         33.2170   -9.9520   -0.2720 O.2   248  ILE248     -0.2867
    133  CB        34.6940  -11.7880    1.5730 C.3   248  ILE248      0.0252
    134  CG1       34.8230  -13.0480    2.4780 C.3   248  ILE248      0.0019
    135  CG2       35.8450  -10.8320    1.8550 C.3   248  ILE248      0.0019
    136  CD1       35.8510  -14.0480    2.0090 C.3   248  ILE248      0.0001
    137  N         48.1460  -12.5020   12.6690 N.3   287  LYS287     -0.1245
    138  CA        48.4730  -13.8420   12.1570 C.3   287  LYS287      0.1561
    139  C         49.4800  -13.7250   11.0200 C.2   287  LYS287      0.2260
    140  O         49.4300  -12.7840   10.2310 O.2   287  LYS287     -0.2867
    141  CB        47.2120  -14.5390   11.6570 C.3   287  LYS287      0.0271
    142  CG        46.1630  -14.6910   12.7450 C.3   287  LYS287      0.0035
    143  CD        44.9780  -15.5210   12.2410 C.3   287  LYS287      0.0206
    144  CE        43.7490  -15.3160   13.1310 C.3   287  LYS287      0.1093
    145  NZ        42.9550  -14.1400   12.6960 N.3   287  LYS287     -0.1314
    146  N         51.5050  -14.1750    7.4990 N.3   289  THR289     -0.1218
    147  CA        51.3580  -14.5520    6.0940 C.3   289  THR289      0.1862
    148  C         52.7360  -14.9500    5.5980 C.2   289  THR289      0.2287
    149  O         53.7120  -14.8740    6.3440 O.2   289  THR289     -0.2866
    150  CB        50.8750  -13.3660    5.2430 C.3   289  THR289      0.1770
    151  OG1       51.9540  -12.4300    5.0790 O.3   289  THR289     -0.2211
    152  CG2       49.6930  -12.6600    5.9100 C.3   289  THR289      0.0375
    153  N         49.3300  -10.1370    9.1970 N.3   294  VAL294     -0.1245
    154  CA        48.1230   -9.3140    9.0030 C.3   294  VAL294      0.1561
    155  C         47.3420   -9.2120   10.2960 C.2   294  VAL294      0.2260
    156  O         47.4260  -10.0650   11.1890 O.2   294  VAL294     -0.2867
    157  CB        47.2280   -9.8610    7.8680 C.3   294  VAL294      0.0252
    158  CG1       47.8410   -9.5250    6.5000 C.3   294  VAL294      0.0019
    159  CG2       46.9800  -11.3780    8.0180 C.3   294  VAL294      0.0019
    160  N         34.1940  -10.2260   10.8090 N.3   309  GLN309     -0.1245
    161  CA        35.6270  -10.0380   10.9250 C.3   309  GLN309      0.1566
    162  C         36.0400   -9.0360    9.8740 C.2   309  GLN309      0.2260
    163  O         35.5150   -9.0640    8.7580 O.2   309  GLN309     -0.2867
    164  CB        36.3060  -11.4110   10.6600 C.3   309  GLN309      0.0367
    165  CG        37.7810  -11.4060   10.5040 C.3   309  GLN309      0.0905
    166  CD        38.3700  -12.7860   10.5040 C.2   309  GLN309      0.2608
    167  OE1       37.7170  -13.8140   10.1380 O.2   309  GLN309     -0.2717
    168  NE2       39.6000  -12.8430   10.9360 N.am  309  GLN309     -0.0878
    169  N         39.4880   -7.0220    7.8960 N.3   311  TYR311     -0.1227
    170  CA        40.9070   -6.9200    7.5540 C.3   311  TYR311      0.1736
    171  C         41.0640   -5.7000    6.6650 C.2   311  TYR311      0.2596
    172  O         40.0870   -5.1170    6.1900 O.2   311  TYR311     -0.2718
    173  CB        41.3400   -8.1520    6.7360 C.3   311  TYR311      0.0548
    174  CG        41.8140   -9.3400    7.5490 C.ar  311  TYR311     -0.0200
    175  CD1       43.0990   -9.3500    8.0820 C.ar  311  TYR311     -0.0009
    176  CD2       41.0370  -10.5020    7.6830 C.ar  311  TYR311     -0.0009
    177  CE1       43.5930  -10.4480    8.7610 C.ar  311  TYR311      0.0417
    178  CE2       41.5630  -11.6400    8.3240 C.ar  311  TYR311      0.0417
    179  CZ        42.8250  -11.5620    8.8830 C.ar  311  TYR311      0.1957
    180  OH        43.3510  -12.6680    9.5010 O.3   311  TYR311     -0.2866
    181  N         42.3150   -5.3100    6.4130 N.am  312  GLY312     -0.1957
    182  CA        42.5890   -4.4100    5.2860 C.3   312  GLY312      0.1869
    183  C         42.5600   -5.1860    3.9930 C.2   312  GLY312      0.2309
    184  O         42.7930   -6.4090    3.9830 O.2   312  GLY312     -0.2863
    185  N         44.2420   -6.7360    0.8370 N.3   314  ARG314     -0.1245
    186  CA        45.6470   -7.1650    0.5970 C.3   314  ARG314      0.1563
    187  C         45.7170   -8.1820   -0.5170 C.2   314  ARG314      0.2260
    188  O         44.8870   -9.0840   -0.5740 O.2   314  ARG314     -0.2867
    189  CB        46.2800   -7.7750    1.8770 C.3   314  ARG314      0.0307
    190  CG        47.8110   -7.8830    1.7780 C.3   314  ARG314      0.0489
    191  CD        48.3720   -8.6350    2.9920 C.3   314  ARG314      0.2205
    192  NE        48.0340  -10.0530    2.9890 N.pl3 314  ARG314     -0.0865
    193  CZ        48.7740  -11.0070    2.4260 C.cat 314  ARG314      0.5346
    194  NH1       49.8480  -10.6780    1.7270 N.pl3 314  ARG314      0.1354
    195  NH2       48.3330  -12.2730    2.4570 N.pl3 314  ARG314      0.1354
    196  N         48.1500  -11.0110   -2.5560 N.3   316  GLU316     -0.1245
    197  CA        49.2240  -11.9490   -2.3410 C.3   316  GLU316      0.1567
    198  C         50.5240  -11.2640   -2.7500 C.2   316  GLU316      0.2260
    199  O         50.6210  -10.6900   -3.8340 O.2   316  GLU316     -0.2867
    200  CB        49.0120  -13.2250   -3.1750 C.3   316  GLU316      0.0388
    201  CG        47.7610  -13.9880   -2.8180 C.3   316  GLU316      0.1160
    202  CD        47.7510  -14.5910   -1.4500 C.2   316  GLU316      0.3649
    203  OE1       48.8220  -14.7150   -0.7990 O.co2 316  GLU316     -0.2457
    204  OE2       46.6600  -15.0470   -1.0740 O.co2 316  GLU316     -0.2457
@<TRIPOS>BOND
     1    21    20    2
     2    20    19    1
     3    25    23    1
     4    22    23    1
     5    22    19    1
     6    18    19    1
     7    23    24    1
     8    13    12    2
     9    12    11    1
    10   199   198    2
    11    15    17    1
    12    15    16    1
    13    15    14    1
    14    11    10    1
    15    11    14    1
    16    10     8   am
    17   200   201    1
    18   200   197    1
    19   201   202    1
    20   198   197    1
    21    43    42    1
    22   196   197    1
    23     7     8    1
    24     7     6    1
    25     8     9    2
    26    35    34    1
    27     4     3    2
    28   202   204   ar
    29   202   203   ar
    30    36    34    1
    31    42    44    1
    32    42    41    1
    33    34    33    2
    34     6     3   am
    35     3     2    1
    36   188   187    2
    37   187   186    1
    38    41    38    1
    39   132   131    2
    40    33    32    1
    41    32    31    1
    42    26    27    1
    43     1     2    1
    44   186   185    1
    45   186   189    1
    46    27    28    1
    47    27    30    1
    48     2     5    1
    49    37    38    1
    50    37    28   am
    51   131   130    1
    52    38    39    1
    53    28    29    2
    54    40    39    2
    55    31    30    1
    56   129   130    1
    57   133   130    1
    58   133   135    1
    59   133   134    1
    60    39    45   am
    61   194   193    1
    62   190   189    1
    63   190   191    1
    64   136   134    1
    65   125   124    2
    66   110   109    1
    67   193   195    1
    68   193   192    2
    69    45    46    1
    70   108   109    1
    71   108   107    1
    72    79    80   ar
    73    79    77   ar
    74    63    61   ar
    75    80    78   ar
    76    47    46    1
    77    47    48    2
    78   192   191    1
    79   124   123    1
    80    46    49    1
    81    77    76   ar
    82    78    76   ar
    83   107   104    1
    84   104   103    1
    85   104   105    1
    86    76    75    1
    87    61    62   ar
    88    61    60    1
    89   122   123    1
    90   184   183    2
    91   183   182    1
    92   123   126    1
    93    75    72    1
    94    49    50    1
    95    51    53   ar
    96    51    50   ar
    97   126   127    1
    98   126   128    1
    99    60    57    1
   100   121   120   ar
   101   121   119   ar
   102   105   106    2
   103   151   150    1
   104   120   118   ar
   105    53    55   ar
   106    50    52   ar
   107   150   152    1
   108   150   147    1
   109   182   181    1
   110   119   117   ar
   111    55    54   ar
   112   148   147    1
   113   148   149    2
   114    52    54   ar
   115   118   116   ar
   116   117   116   ar
   117   147   146    1
   118    57    56    1
   119    57    58    1
   120    72    71    1
   121    72    73    1
   122   116   115    1
   123   172   171    2
   124    70    68    1
   125   112   111    1
   126   112   115    1
   127   112   113    1
   128   181   171   am
   129    71    66   am
   130   158   157    1
   131   171   170    1
   132   173   174    1
   133   173   170    1
   134    74    73    2
   135    64    58   am
   136    64    65    1
   137    58    59    2
   138   113   114    2
   139   174   176   ar
   140   174   175   ar
   141   170   169    1
   142    66    65    1
   143    66    67    2
   144    68    65    1
   145    68    69    1
   146   176   178   ar
   147   157   159    1
   148   157   154    1
   149   175   177   ar
   150   178   179   ar
   151   163   162    2
   152   177   179   ar
   153   179   180    1
   154   154   153    1
   155   154   155    1
   156   162   161    1
   157   167   166    2
   158    81    82    1
   159   140   139    2
   160   155   156    2
   161   166   165    1
   162   166   168   am
   163   165   164    1
   164   164   161    1
   165   160   161    1
   166   139   138    1
   167    82    85    1
   168    82    83    1
   169   141   138    1
   170   141   142    1
   171    85    86    1
   172    83    84    2
   173   138   137    1
   174   143   142    1
   175   143   144    1
   176   145   144    1
   177   101   100    1
   178   102   100    1
   179    86    88   ar
   180    86    87   ar
   181   100    99    2
   182    88    90   ar
   183    87    89   ar
   184    99    98    1
   185    90    91   ar
   186    98    97    1
   187    89    91   ar
   188    97    96    1
   189    96    93    1
   190    93    92    1
   191    93    94    1
   192    94    95    2
