@<TRIPOS>MOLECULE
tmp/4cdqA00.pdb
 239 234 0 0 0
SMALL
GASTEIGER

@<TRIPOS>ATOM
      1  N         98.0530  270.3930   97.5520 N.3   109  TRP109     -0.1241
      2  CA        99.4810  270.5850   97.7360 C.3   109  TRP109      0.1605
      3  C        100.2200  269.4590   97.0430 C.2   109  TRP109      0.2264
      4  O         99.9420  268.2840   97.2710 O.2   109  TRP109     -0.2867
      5  CB        99.8400  270.5830   99.2180 C.3   109  TRP109      0.0550
      6  CG       101.2980  270.7940   99.4670 C.ar  109  TRP109      0.0003
      7  CD1      102.0220  271.9120   99.1710 C.ar  109  TRP109      0.0946
      8  CD2      102.2180  269.8660  100.0640 C.ar  109  TRP109      0.0152
      9  NE1      103.3350  271.7420   99.5470 N.ar  109  TRP109     -0.2442
     10  CE2      103.4840  270.4970  100.0970 C.ar  109  TRP109      0.0810
     11  CE3      102.0960  268.5670  100.5730 C.ar  109  TRP109      0.0012
     12  CZ2      104.6230  269.8730  100.6190 C.ar  109  TRP109      0.0191
     13  CZ3      103.2330  267.9460  101.0930 C.ar  109  TRP109      0.0001
     14  CH2      104.4790  268.6030  101.1110 C.ar  109  TRP109      0.0015
     15  N        103.0300  267.0330   96.6770 N.3   111  ILE111     -0.1231
     16  CA       103.9800  266.4680   97.6260 C.3   111  ILE111      0.1692
     17  C        105.4180  266.5320   97.1360 C.2   111  ILE111      0.2592
     18  O        105.9050  265.6420   96.4270 O.2   111  ILE111     -0.2718
     19  CB       103.6020  265.0230   97.9720 C.3   111  ILE111      0.0266
     20  CG1      102.1530  264.9920   98.4740 C.3   111  ILE111      0.0019
     21  CG2      104.5460  264.4730   99.0430 C.3   111  ILE111      0.0020
     22  CD1      101.6190  263.6090   98.7410 C.3   111  ILE111      0.0001
     23  N        106.0840  267.6090   97.5430 N.am  112  ASP112     -0.1960
     24  CA       107.4690  267.9050   97.2020 C.3   112  ASP112      0.1840
     25  C        108.0350  268.6680   98.4110 C.2   112  ASP112      0.2622
     26  O        107.5570  269.7530   98.7550 O.2   112  ASP112     -0.2715
     27  CB       107.5040  268.7850   95.9490 C.3   112  ASP112      0.1450
     28  CG       108.9080  269.1610   95.5360 C.2   112  ASP112      0.3671
     29  OD1      109.8100  269.1560   96.4020 O.co2 112  ASP112     -0.2456
     30  OD2      109.1150  269.4810   94.3460 O.co2 112  ASP112     -0.2456
     31  N        109.0510  268.1220   99.0640 N.am  113  ILE113     -0.1963
     32  CA       109.5920  268.8040  100.2350 C.3   113  ILE113      0.1727
     33  C        110.7060  269.8090   99.9470 C.2   113  ILE113      0.2616
     34  O        111.2750  270.3680  100.8800 O.2   113  ILE113     -0.2715
     35  CB       110.1710  267.8060  101.2360 C.3   113  ILE113      0.0290
     36  CG1      111.4510  267.2090  100.6490 C.3   113  ILE113      0.0022
     37  CG2      109.1590  266.7220  101.5470 C.3   113  ILE113      0.0023
     38  CD1      112.2340  266.3940  101.6170 C.3   113  ILE113      0.0001
     39  N        111.0210  270.0550   98.6800 N.am  114  THR114     -0.1951
     40  CA       112.1190  270.9670   98.3660 C.3   114  THR114      0.1897
     41  C        111.8500  272.4710   98.4410 C.2   114  THR114      0.2313
     42  O        112.6650  273.2630   97.9720 O.2   114  THR114     -0.2863
     43  CB       112.7290  270.6440   96.9720 C.3   114  THR114      0.1794
     44  OG1      111.7350  270.8130   95.9550 O.3   114  THR114     -0.2208
     45  CG2      113.2400  269.2060   96.9340 C.3   114  THR114      0.0378
     46  N        113.3310  255.6310  102.6050 N.3   131  PHE131     -0.1241
     47  CA       112.8920  255.7920  103.9850 C.3   131  PHE131      0.1605
     48  C        111.3820  255.8040  104.1600 C.2   131  PHE131      0.2264
     49  O        110.6350  255.9830  103.2010 O.2   131  PHE131     -0.2867
     50  CB       113.4600  257.1080  104.5360 C.3   131  PHE131      0.0534
     51  CG       113.0790  258.3210  103.7170 C.ar  131  PHE131     -0.0203
     52  CD1      111.8250  258.9170  103.8580 C.ar  131  PHE131     -0.0042
     53  CD2      113.9590  258.8470  102.7700 C.ar  131  PHE131     -0.0042
     54  CE1      111.4530  260.0160  103.0630 C.ar  131  PHE131     -0.0003
     55  CE2      113.5910  259.9440  101.9740 C.ar  131  PHE131     -0.0003
     56  CZ       112.3380  260.5250  102.1230 C.ar  131  PHE131     -0.0000
     57  N        104.4130  261.9840  109.1630 N.3   135  PHE135     -0.1241
     58  CA       103.9660  263.3330  108.8400 C.3   135  PHE135      0.1605
     59  C        103.0100  263.8560  109.9000 C.2   135  PHE135      0.2264
     60  O        102.0950  263.1560  110.3380 O.2   135  PHE135     -0.2867
     61  CB       103.2950  263.3720  107.4660 C.3   135  PHE135      0.0534
     62  CG       104.2650  263.5080  106.3310 C.ar  135  PHE135     -0.0203
     63  CD1      105.0490  262.4320  105.9340 C.ar  135  PHE135     -0.0042
     64  CD2      104.4280  264.7300  105.6840 C.ar  135  PHE135     -0.0042
     65  CE1      105.9910  262.5720  104.9060 C.ar  135  PHE135     -0.0003
     66  CE2      105.3630  264.8810  104.6580 C.ar  135  PHE135     -0.0003
     67  CZ       106.1480  263.7980  104.2690 C.ar  135  PHE135     -0.0000
     68  N        100.5310  267.2220  110.9800 N.3   137  PHE137     -0.1241
     69  CA        99.8220  268.3880  110.4500 C.3   137  PHE137      0.1605
     70  C         99.3500  269.3360  111.5360 C.2   137  PHE137      0.2264
     71  O         98.4880  268.9900  112.3380 O.2   137  PHE137     -0.2867
     72  CB        98.6410  267.9070  109.6180 C.3   137  PHE137      0.0534
     73  CG        99.0360  266.9170  108.5720 C.ar  137  PHE137     -0.0203
     74  CD1       99.6810  267.3340  107.4140 C.ar  137  PHE137     -0.0042
     75  CD2       98.8630  265.5580  108.7850 C.ar  137  PHE137     -0.0042
     76  CE1      100.1540  266.4100  106.4840 C.ar  137  PHE137     -0.0003
     77  CE2       99.3350  264.6240  107.8590 C.ar  137  PHE137     -0.0003
     78  CZ        99.9820  265.0520  106.7080 C.ar  137  PHE137     -0.0000
     79  N         91.7390  265.8480  105.3780 N.3   153  TYR153     -0.1227
     80  CA        92.9850  265.7710  104.6280 C.3   153  TYR153      0.1736
     81  C         92.8690  264.4960  103.8050 C.2   153  TYR153      0.2595
     82  O         92.4530  263.4590  104.3210 O.2   153  TYR153     -0.2718
     83  CB        94.1980  265.6220  105.5420 C.3   153  TYR153      0.0548
     84  CG        94.3920  266.6910  106.5860 C.ar  153  TYR153     -0.0200
     85  CD1       94.2830  268.0420  106.2690 C.ar  153  TYR153     -0.0009
     86  CD2       94.7510  266.3510  107.8840 C.ar  153  TYR153     -0.0009
     87  CE1       94.5340  269.0260  107.2250 C.ar  153  TYR153      0.0417
     88  CE2       95.0040  267.3230  108.8420 C.ar  153  TYR153      0.0417
     89  CZ        94.8950  268.6540  108.5070 C.ar  153  TYR153      0.1957
     90  OH        95.1610  269.6070  109.4560 O.3   153  TYR153     -0.2866
     91  N         93.2240  264.5530  102.5300 N.am  154  MET154     -0.1965
     92  CA        93.1530  263.3520  101.7110 C.3   154  MET154      0.1736
     93  C         94.4060  263.1840  100.8700 C.2   154  MET154      0.2616
     94  O         94.9120  264.1440  100.2990 O.2   154  MET154     -0.2715
     95  CB        91.9150  263.3850  100.8130 C.3   154  MET154      0.0427
     96  CG        91.8090  262.1910   99.8850 C.3   154  MET154      0.0599
     97  SD        90.2300  262.0790   99.0160 S.3   154  MET154     -0.1393
     98  CE        90.4210  263.3780   97.7710 C.3   154  MET154      0.0692
     99  N         94.9250  261.9640  100.8220 N.am  155  PHE155     -0.1974
    100  CA        96.1020  261.6880  100.0200 C.3   155  PHE155      0.1639
    101  C         95.5930  261.2060   98.6720 C.2   155  PHE155      0.2290
    102  O         94.8540  260.2290   98.5890 O.2   155  PHE155     -0.2864
    103  CB        96.9680  260.6220  100.6890 C.3   155  PHE155      0.0560
    104  CG        98.0740  260.0940   99.8120 C.ar  155  PHE155     -0.0200
    105  CD1       98.8250  260.9540   99.0140 C.ar  155  PHE155     -0.0042
    106  CD2       98.3820  258.7340   99.8010 C.ar  155  PHE155     -0.0042
    107  CE1       99.8710  260.4630   98.2140 C.ar  155  PHE155     -0.0003
    108  CE2       99.4230  258.2370   99.0070 C.ar  155  PHE155     -0.0003
    109  CZ       100.1680  259.1030   98.2130 C.ar  155  PHE155     -0.0000
    110  N         93.3230  257.3650  101.2650 N.3   177  PRO177     -0.2102
    111  CA        93.2370  257.5000  102.7180 C.3   177  PRO177      0.1504
    112  C         92.9450  258.9620  103.0670 C.2   177  PRO177      0.2576
    113  O         93.5250  259.8690  102.4750 O.2   177  PRO177     -0.2718
    114  CB        94.6150  257.0360  103.1910 C.3   177  PRO177      0.0282
    115  CG        95.4970  257.2940  102.0280 C.3   177  PRO177      0.0208
    116  CD        94.6520  256.8790  100.8610 C.3   177  PRO177      0.0893
    117  N         92.0170  259.1870  103.9950 N.am  178  SER178     -0.1938
    118  CA        91.6660  260.5400  104.4400 C.3   178  SER178      0.2055
    119  C         91.7590  260.6090  105.9530 C.2   178  SER178      0.2642
    120  O         91.6680  259.5910  106.6370 O.2   178  SER178     -0.2714
    121  CB        90.2290  260.9180  104.0480 C.3   178  SER178      0.2130
    122  OG        90.1260  261.3200  102.6990 O.3   178  SER178     -0.2179
    123  N         91.9460  261.8160  106.4690 N.am  179  VAL179     -0.1977
    124  CA        91.9910  262.0420  107.9070 C.3   179  VAL179      0.1596
    125  C         91.0100  263.1650  108.2190 C.2   179  VAL179      0.2287
    126  O         91.0300  264.2120  107.5750 O.2   179  VAL179     -0.2864
    127  CB        93.3940  262.4730  108.3950 C.3   179  VAL179      0.0276
    128  CG1       93.3160  262.9440  109.8400 C.3   179  VAL179      0.0022
    129  CG2       94.3580  261.3110  108.2880 C.3   179  VAL179      0.0022
    130  N        100.4780  260.6850  111.0180 N.3   190  VAL190     -0.1245
    131  CA       100.4000  259.3650  110.4050 C.3   190  VAL190      0.1561
    132  C        101.7430  258.8560  109.9200 C.2   190  VAL190      0.2260
    133  O        102.6980  259.6200  109.7950 O.2   190  VAL190     -0.2867
    134  CB        99.4390  259.3700  109.1860 C.3   190  VAL190      0.0252
    135  CG1       98.0410  259.8250  109.6160 C.3   190  VAL190      0.0019
    136  CG2      100.0010  260.2720  108.0790 C.3   190  VAL190      0.0019
    137  N        103.8730  256.9800  106.8920 N.3   192  VAL192     -0.1245
    138  CA       103.8720  256.8290  105.4530 C.3   192  VAL192      0.1561
    139  C        105.0140  255.8900  105.0770 C.2   192  VAL192      0.2260
    140  O        106.1360  256.0360  105.5630 O.2   192  VAL192     -0.2867
    141  CB       104.0710  258.2060  104.7950 C.3   192  VAL192      0.0252
    142  CG1      104.2430  258.0590  103.3080 C.3   192  VAL192      0.0019
    143  CG2      102.8710  259.0880  105.0950 C.3   192  VAL192      0.0019
    144  N        107.1240  254.7480   99.0820 N.3   195  MET195     -0.1245
    145  CA       106.2310  254.5080   97.9470 C.3   195  MET195      0.1570
    146  C        106.7280  254.5940   96.5160 C.2   195  MET195      0.2261
    147  O        105.9420  254.4300   95.5820 O.2   195  MET195     -0.2867
    148  CB       105.0220  255.4310   98.0740 C.3   195  MET195      0.0387
    149  CG       104.3810  255.3920   99.4370 C.3   195  MET195      0.0595
    150  SD       103.0980  256.6190   99.5840 S.3   195  MET195     -0.1393
    151  CE       104.0750  258.0490   99.9550 C.3   195  MET195      0.0692
    152  N        114.3480  257.0450   96.3710 N.3   201  TYR201     -0.1227
    153  CA       114.0080  258.3450   95.8100 C.3   201  TYR201      0.1736
    154  C        115.3840  258.9030   95.4540 C.2   201  TYR201      0.2595
    155  O        116.4030  258.4230   95.9600 O.2   201  TYR201     -0.2718
    156  CB       113.4180  259.2850   96.8630 C.3   201  TYR201      0.0548
    157  CG       112.1280  258.8590   97.5100 C.ar  201  TYR201     -0.0200
    158  CD1      110.9840  258.6190   96.7480 C.ar  201  TYR201     -0.0009
    159  CD2      112.0360  258.7440   98.9000 C.ar  201  TYR201     -0.0009
    160  CE1      109.7800  258.2780   97.3520 C.ar  201  TYR201      0.0417
    161  CE2      110.8390  258.4030   99.5140 C.ar  201  TYR201      0.0417
    162  CZ       109.7170  258.1710   98.7350 C.ar  201  TYR201      0.1957
    163  OH       108.5320  257.8240   99.3390 O.3   201  TYR201     -0.2866
    164  N        115.4300  259.9040   94.5890 N.am  202  GLN202     -0.1965
    165  CA       116.7060  260.5170   94.2750 C.3   202  GLN202      0.1733
    166  C        116.4870  262.0160   94.1510 C.2   202  GLN202      0.2616
    167  O        115.5820  262.4710   93.4480 O.2   202  GLN202     -0.2715
    168  CB       117.3190  259.9100   93.0110 C.3   202  GLN202      0.0408
    169  CG       116.6770  260.2570   91.7030 C.3   202  GLN202      0.0908
    170  CD       117.1900  259.3550   90.5920 C.2   202  GLN202      0.2608
    171  OE1      116.6710  258.2560   90.3850 O.2   202  GLN202     -0.2717
    172  NE2      118.2320  259.8030   89.8870 N.am  202  GLN202     -0.0878
    173  N        117.2990  262.7760   94.8760 N.am  203  TRP203     -0.1974
    174  CA       117.1960  264.2270   94.8860 C.3   203  TRP203      0.1640
    175  C        117.7750  264.8470   93.6280 C.2   203  TRP203      0.2290
    176  O        117.5970  266.0360   93.3850 O.2   203  TRP203     -0.2864
    177  CB       117.9040  264.7850   96.1240 C.3   203  TRP203      0.0576
    178  CG       117.3700  264.1860   97.3800 C.ar  203  TRP203      0.0006
    179  CD1      118.0040  263.2960   98.2040 C.ar  203  TRP203      0.0946
    180  CD2      116.0440  264.3450   97.9060 C.ar  203  TRP203      0.0152
    181  NE1      117.1530  262.8870   99.2050 N.ar  203  TRP203     -0.2442
    182  CE2      115.9440  263.5150   99.0460 C.ar  203  TRP203      0.0810
    183  CE3      114.9280  265.1070   97.5220 C.ar  203  TRP203      0.0012
    184  CZ2      114.7720  263.4230   99.8060 C.ar  203  TRP203      0.0191
    185  CZ3      113.7590  265.0170   98.2790 C.ar  203  TRP203      0.0001
    186  CH2      113.6920  264.1800   99.4070 C.ar  203  TRP203      0.0015
    187  N        115.5970  266.9000   84.4730 N.3   223  GLY223     -0.1225
    188  CA       115.7780  266.6480   85.8890 C.3   223  GLY223      0.1811
    189  C        114.5270  266.1590   86.5940 C.2   223  GLY223      0.2280
    190  O        114.5630  265.8840   87.7880 O.2   223  GLY223     -0.2866
    191  N        109.9010  260.2410   91.8540 N.3   228  ASN228     -0.1240
    192  CA       109.9250  261.1180   93.0280 C.3   228  ASN228      0.1653
    193  C        108.5830  261.8010   93.2790 C.2   228  ASN228      0.2266
    194  O        108.3730  262.4300   94.3270 O.2   228  ASN228     -0.2867
    195  CB       110.9700  262.2210   92.8680 C.3   228  ASN228      0.1155
    196  CG       112.3880  261.6970   92.8340 C.2   228  ASN228      0.2627
    197  OD1      112.7770  260.8730   93.6590 O.2   228  ASN228     -0.2716
    198  ND2      113.1810  262.1940   91.8870 N.am  228  ASN228     -0.0877
    199  N        105.1510  261.5250   94.3430 N.3   230  MET230     -0.1245
    200  CA       104.2320  260.6530   95.0600 C.3   230  MET230      0.1570
    201  C        102.7600  261.0340   95.0420 C.2   230  MET230      0.2261
    202  O        101.9180  260.2680   95.5110 O.2   230  MET230     -0.2867
    203  CB       104.7150  260.4920   96.5010 C.3   230  MET230      0.0387
    204  CG       106.0690  259.7990   96.5990 C.3   230  MET230      0.0595
    205  SD       106.0500  258.1640   95.7900 S.3   230  MET230     -0.1393
    206  CE       106.6720  258.5290   94.1470 C.3   230  MET230      0.0692
    207  N         98.3840  266.1340   98.1520 N.3   233  PHE233     -0.1241
    208  CA        97.8180  266.1370   99.4920 C.3   233  PHE233      0.1605
    209  C         96.7350  267.2120   99.4240 C.2   233  PHE233      0.2264
    210  O         97.0420  268.3840   99.2280 O.2   233  PHE233     -0.2867
    211  CB        98.8720  266.5400  100.5150 C.3   233  PHE233      0.0534
    212  CG        98.3610  266.5800  101.9250 C.ar  233  PHE233     -0.0203
    213  CD1       98.1270  265.4010  102.6300 C.ar  233  PHE233     -0.0042
    214  CD2       98.1090  267.7970  102.5530 C.ar  233  PHE233     -0.0042
    215  CE1       97.6470  265.4310  103.9510 C.ar  233  PHE233     -0.0003
    216  CE2       97.6280  267.8420  103.8720 C.ar  233  PHE233     -0.0003
    217  CZ        97.3970  266.6570  104.5720 C.ar  233  PHE233     -0.0000
    218  N        107.7100  266.7900  108.4660 N.3   253  MET253     -0.1245
    219  CA       108.1360  265.4520  108.0910 C.3   253  MET253      0.1570
    220  C        109.2780  264.9450  108.9490 C.2   253  MET253      0.2261
    221  O        110.2750  265.6380  109.1700 O.2   253  MET253     -0.2867
    222  CB       108.5820  265.4030  106.6350 C.3   253  MET253      0.0387
    223  CG       109.1220  264.0470  106.2540 C.3   253  MET253      0.0595
    224  SD       109.8250  263.9760  104.6180 S.3   253  MET253     -0.1393
    225  CE       111.4170  264.7320  104.8970 C.3   253  MET253      0.0692
    226  N        112.2870  275.0010   93.4460 N.3   274  LYS274     -0.1231
    227  CA       112.1880  273.6450   93.9660 C.3   274  LYS274      0.1693
    228  C        112.7390  272.5990   93.0050 C.2   274  LYS274      0.2591
    229  O        113.4550  271.6730   93.3940 O.2   274  LYS274     -0.2718
    230  CB       110.7370  273.2670   94.2180 C.3   274  LYS274      0.0285
    231  CG       109.9380  274.1850   95.0700 C.3   274  LYS274      0.0035
    232  CD       108.5610  273.5860   95.2130 C.3   274  LYS274      0.0206
    233  CE       107.5680  274.6140   95.6770 C.3   274  LYS274      0.1093
    234  NZ       106.2310  273.9840   95.8620 N.3   274  LYS274     -0.1314
    235  N        112.3770  272.7510   91.7440 N.am  275  ALA275     -0.1980
    236  CA       112.7430  271.7960   90.7210 C.3   275  ALA275      0.1597
    237  C        114.1680  271.7620   90.2290 C.2   275  ALA275      0.2287
    238  O        114.5150  270.8870   89.4440 O.2   275  ALA275     -0.2864
    239  CB       111.8150  271.9650   89.5290 C.3   275  ALA275      0.0319
@<TRIPOS>BOND
     1   187   188    1
     2   188   189    1
     3   189   190    2
     4   238   237    2
     5   239   236    1
     6   172   170   am
     7   237   236    1
     8   171   170    2
     9   170   169    1
    10   236   235    1
    11   169   168    1
    12   235   228   am
    13   191   192    1
    14   198   196   am
    15   196   195    1
    16   196   197    2
    17   195   192    1
    18   228   229    2
    19   228   227    1
    20   168   165    1
    21   192   193    1
    22   193   194    2
    23   176   175    2
    24   226   227    1
    25   167   166    2
    26   175   174    1
    27   227   230    1
    28   206   205    1
    29   166   165    1
    30   166   173   am
    31   230   231    1
    32   165   164    1
    33   199   200    1
    34    30    28   ar
    35   164   154   am
    36   173   174    1
    37   174   177    1
    38   201   200    1
    39   201   202    2
    40   200   203    1
    41   231   232    1
    42   232   233    1
    43   154   153    1
    44   154   155    2
    45    28    27    1
    46    28    29   ar
    47   147   146    2
    48   233   234    1
    49   205   204    1
    50   153   152    1
    51   153   156    1
    52    27    24    1
    53    44    43    1
    54   177   178    1
    55    18    17    2
    56   203   204    1
    57   146   145    1
    58    15    16    1
    59   158   160   ar
    60   158   157   ar
    61   156   157    1
    62    45    43    1
    63    43    40    1
    64     3     4    2
    65     3     2    1
    66    17    23   am
    67    17    16    1
    68    24    23    1
    69    24    25    1
    70   160   162   ar
    71   178   180   ar
    72   178   179   ar
    73   157   159   ar
    74   183   180   ar
    75   183   185   ar
    76     1     2    1
    77    16    19    1
    78     2     5    1
    79    98    97    1
    80   180   182   ar
    81   145   148    1
    82   145   144    1
    83    42    41    2
    84    19    20    1
    85    19    21    1
    86   148   149    1
    87   207   208    1
    88   179   181   ar
    89   109   107   ar
    90   109   108   ar
    91   107   105   ar
    92   185   186   ar
    93    40    41    1
    94    40    39    1
    95    25    26    2
    96    25    31   am
    97    20    22    1
    98   102   101    2
    99   101   100    1
   100    39    33   am
   101   162   163    1
   102   162   161   ar
   103   159   161   ar
   104   108   106   ar
   105   105   104   ar
   106    97    96    1
   107   182   181   ar
   108   182   184   ar
   109    31    32    1
   110     7     6   ar
   111     7     9   ar
   112     5     6    1
   113   210   209    2
   114   186   184   ar
   115   209   208    1
   116   149   150    1
   117     6     8   ar
   118   208   211    1
   119     9    10   ar
   120   150   151    1
   121   106   104   ar
   122   104   103    1
   123    96    95    1
   124    33    32    1
   125    33    34    2
   126   100   103    1
   127   100    99    1
   128     8    10   ar
   129     8    11   ar
   130    10    12   ar
   131    32    35    1
   132    94    93    2
   133   211   212    1
   134    11    13   ar
   135    12    14   ar
   136    36    35    1
   137    36    38    1
   138    95    92    1
   139    99    93   am
   140   116   110    1
   141   116   115    1
   142    93    92    1
   143    13    14   ar
   144    35    37    1
   145   110   111    1
   146    92    91    1
   147   212   214   ar
   148   212   213   ar
   149    55    56   ar
   150    55    53   ar
   151   115   114    1
   152    56    54   ar
   153   113   112    2
   154    91    81   am
   155   214   216   ar
   156    46    47    1
   157   213   215   ar
   158   122   121    1
   159   111   112    1
   160   111   114    1
   161    53    51   ar
   162    54    52   ar
   163   112   117   am
   164    49    48    2
   165   142   141    1
   166    51    52   ar
   167    51    50    1
   168    81    82    2
   169    81    80    1
   170   216   217   ar
   171   215   217   ar
   172    47    48    1
   173    47    50    1
   174   117   118    1
   175   121   118    1
   176    67    66   ar
   177    67    65   ar
   178   118   119    1
   179   224   225    1
   180   224   223    1
   181    80    79    1
   182    80    83    1
   183    66    64   ar
   184   141   143    1
   185   141   138    1
   186    65    63   ar
   187   139   138    1
   188   139   140    2
   189   138   137    1
   190    83    84    1
   191    64    62   ar
   192    63    62   ar
   193   119   123   am
   194   119   120    2
   195   223   222    1
   196    85    84   ar
   197    85    87   ar
   198    62    61    1
   199   123   124    1
   200    76    78   ar
   201    76    74   ar
   202    84    86   ar
   203   222   219    1
   204    78    77   ar
   205    87    89   ar
   206    74    73   ar
   207    61    58    1
   208   126   125    2
   209    77    75   ar
   210    86    88   ar
   211   124   125    1
   212   124   127    1
   213   136   134    1
   214   219   218    1
   215   219   220    1
   216   129   127    1
   217   127   128    1
   218    89    88   ar
   219    89    90    1
   220    73    75   ar
   221    73    72    1
   222    58    57    1
   223    58    59    1
   224   220   221    2
   225   134   135    1
   226   134   131    1
   227    72    69    1
   228   133   132    2
   229    59    60    2
   230   132   131    1
   231   131   130    1
   232    69    68    1
   233    69    70    1
   234    70    71    2
