@<TRIPOS>MOLECULE
tmp/4cdrA00.pdb
 216 216 0 0 0
SMALL
GASTEIGER

@<TRIPOS>ATOM
      1  N        118.1540  -34.7770   38.3460 N.3   185  HIS185     -0.1241
      2  CA       119.3740  -35.5580   38.3120 C.3   185  HIS185      0.1621
      3  C        120.2430  -35.1020   39.4660 C.2   185  HIS185      0.2264
      4  O        120.2940  -33.9180   39.7450 O.2   185  HIS185     -0.2867
      5  CB       120.0810  -35.3490   36.9750 C.3   185  HIS185      0.0745
      6  CG       121.2130  -36.2890   36.7260 C.ar  185  HIS185      0.0817
      7  ND1      122.4300  -36.1770   37.3580 N.ar  185  HIS185     -0.2268
      8  CD2      121.3230  -37.3400   35.8880 C.ar  185  HIS185      0.1154
      9  CE1      123.2370  -37.1290   36.9340 C.ar  185  HIS185      0.1986
     10  NE2      122.5920  -37.8440   36.0330 N.ar  185  HIS185     -0.2212
     11  N        123.2990  -34.5400   39.6610 N.3   187  HIS187     -0.1226
     12  CA       124.2760  -33.5300   39.2530 C.3   187  HIS187      0.1752
     13  C        123.6400  -32.1560   39.0080 C.2   187  HIS187      0.2596
     14  O        124.3440  -31.1690   38.8640 O.2   187  HIS187     -0.2718
     15  CB       125.1140  -34.0100   38.0540 C.3   187  HIS187      0.0759
     16  CG       126.2210  -33.0760   37.6720 C.ar  187  HIS187      0.0818
     17  ND1      127.2150  -32.6990   38.5460 N.ar  187  HIS187     -0.2268
     18  CD2      126.4810  -32.4260   36.5130 C.ar  187  HIS187      0.1154
     19  CE1      128.0440  -31.8630   37.9440 C.ar  187  HIS187      0.1986
     20  NE2      127.6180  -31.6800   36.7090 N.ar  187  HIS187     -0.2212
     21  N        122.3120  -32.0920   38.9870 N.am  188  HIS188     -0.1975
     22  CA       121.5940  -30.8270   38.8360 C.3   188  HIS188      0.1656
     23  C        120.9440  -30.3740   40.1190 C.2   188  HIS188      0.2291
     24  O        120.5360  -29.2270   40.2120 O.2   188  HIS188     -0.2864
     25  CB       120.4710  -30.9220   37.8200 C.3   188  HIS188      0.0771
     26  CG       120.9110  -31.3500   36.4680 C.ar  188  HIS188      0.0820
     27  ND1      120.0740  -32.0150   35.5990 N.ar  188  HIS188     -0.2267
     28  CD2      122.1020  -31.2260   35.8370 C.ar  188  HIS188      0.1154
     29  CE1      120.7290  -32.2660   34.4790 C.ar  188  HIS188      0.1986
     30  NE2      121.9630  -31.8060   34.6010 N.ar  188  HIS188     -0.2212
     31  N        141.3940  -34.7490   27.5430 N.3   246  ASN246     -0.1225
     32  CA       141.0350  -33.3440   27.5490 C.3   246  ASN246      0.1785
     33  C        139.7130  -33.1610   28.2560 C.2   246  ASN246      0.2597
     34  O        138.6600  -33.1970   27.6140 O.2   246  ASN246     -0.2718
     35  CB       140.9500  -32.8030   26.1310 C.3   246  ASN246      0.1169
     36  CG       140.7990  -31.2970   26.0810 C.2   246  ASN246      0.2627
     37  OD1      140.8870  -30.6160   27.0930 O.2   246  ASN246     -0.2716
     38  ND2      140.5940  -30.7690   24.8900 N.am  246  ASN246     -0.0877
     39  N        139.7740  -32.9820   29.5810 N.am  247  HIS247     -0.1962
     40  CA       138.5980  -32.7520   30.4210 C.3   247  HIS247      0.1772
     41  C        139.0160  -31.9200   31.6210 C.2   247  HIS247      0.2462
     42  O        140.1390  -32.0600   32.0970 O.2   247  HIS247     -0.2730
     43  CB       138.0230  -34.0840   30.8650 C.3   247  HIS247      0.0785
     44  CG       136.7550  -33.9670   31.6440 C.ar  247  HIS247      0.0821
     45  ND1      136.7370  -33.7500   33.0060 N.ar  247  HIS247     -0.2267
     46  CD2      135.4570  -34.0300   31.2530 C.ar  247  HIS247      0.1154
     47  CE1      135.4800  -33.6890   33.4220 C.ar  247  HIS247      0.1986
     48  NE2      134.6820  -33.8530   32.3780 N.ar  247  HIS247     -0.2212
     49  N        138.1350  -31.0310   32.1130 N.am  248  PRO248     -0.2716
     50  CA       138.4400  -30.2170   33.2860 C.3   248  PRO248      0.1536
     51  C        139.1490  -30.9680   34.4130 C.2   248  PRO248      0.2599
     52  O        140.1130  -30.4520   34.9690 O.2   248  PRO248     -0.2715
     53  CB       137.0600  -29.7480   33.7530 C.3   248  PRO248      0.0310
     54  CG       136.1630  -29.8950   32.5890 C.3   248  PRO248      0.0237
     55  CD       136.8960  -30.5690   31.4760 C.3   248  PRO248      0.0939
     56  N        138.6720  -32.1730   34.7310 N.am  249  THR249     -0.1951
     57  CA       139.2620  -32.9990   35.7870 C.3   249  THR249      0.1897
     58  C        140.7620  -33.2440   35.5520 C.2   249  THR249      0.2313
     59  O        141.5660  -33.0990   36.4640 O.2   249  THR249     -0.2863
     60  CB       138.4550  -34.3150   35.9740 C.3   249  THR249      0.1794
     61  OG1      137.1440  -33.9970   36.4720 O.3   249  THR249     -0.2208
     62  CG2      139.1370  -35.2740   36.9470 C.3   249  THR249      0.0378
     63  N        142.6160  -31.2650   33.7670 N.3   251  HIS251     -0.1226
     64  CA       143.2470  -29.9330   33.8930 C.3   251  HIS251      0.1752
     65  C        143.5020  -29.5670   35.3530 C.2   251  HIS251      0.2595
     66  O        144.2620  -28.6420   35.6390 O.2   251  HIS251     -0.2718
     67  CB       142.4150  -28.8280   33.2450 C.3   251  HIS251      0.0759
     68  CG       141.9890  -29.1340   31.8470 C.ar  251  HIS251      0.0818
     69  ND1      140.8040  -28.6690   31.3120 N.ar  251  HIS251     -0.2268
     70  CD2      142.5830  -29.8680   30.8750 C.ar  251  HIS251      0.1154
     71  CE1      140.6870  -29.1030   30.0710 C.ar  251  HIS251      0.1986
     72  NE2      141.7540  -29.8310   29.7800 N.ar  251  HIS251     -0.2212
     73  N        142.8490  -30.2770   36.2690 N.am  252  LEU252     -0.1980
     74  CA       143.0290  -30.0180   37.6780 C.3   252  LEU252      0.1596
     75  C        144.1350  -30.9210   38.2020 C.2   252  LEU252      0.2287
     76  O        145.1410  -30.4240   38.7170 O.2   252  LEU252     -0.2864
     77  CB       141.7150  -30.2000   38.4490 C.3   252  LEU252      0.0297
     78  CG       140.5360  -29.2770   38.0940 C.3   252  LEU252      0.0022
     79  CD1      139.3680  -29.5740   38.9920 C.3   252  LEU252      0.0001
     80  CD2      140.8800  -27.7900   38.1670 C.3   252  LEU252      0.0001
     81  N        128.3280  -38.9280   39.6540 N.3   321  TYR321     -0.1227
     82  CA       127.2690  -39.1440   38.6890 C.3   321  TYR321      0.1736
     83  C        127.4720  -38.3250   37.4230 C.2   321  TYR321      0.2596
     84  O        126.5130  -37.8580   36.8240 O.2   321  TYR321     -0.2718
     85  CB       125.9000  -38.8960   39.3330 C.3   321  TYR321      0.0548
     86  CG       125.6530  -39.7980   40.5170 C.ar  321  TYR321     -0.0200
     87  CD1      125.7140  -41.1860   40.3830 C.ar  321  TYR321     -0.0009
     88  CD2      125.3760  -39.2850   41.7720 C.ar  321  TYR321     -0.0009
     89  CE1      125.4980  -42.0360   41.4760 C.ar  321  TYR321      0.0417
     90  CE2      125.1590  -40.1260   42.8690 C.ar  321  TYR321      0.0417
     91  CZ       125.2210  -41.4880   42.7050 C.ar  321  TYR321      0.1957
     92  OH       125.0090  -42.3250   43.7560 O.3   321  TYR321     -0.2866
     93  N        128.7170  -38.1550   37.0060 N.am  322  THR322     -0.1939
     94  CA       128.9730  -37.4710   35.7550 C.3   322  THR322      0.2028
     95  C        129.0040  -38.4760   34.6080 C.2   322  THR322      0.2642
     96  O        129.0620  -39.6740   34.8360 O.2   322  THR322     -0.2714
     97  CB       130.2690  -36.6400   35.8030 C.3   322  THR322      0.1808
     98  OG1      131.3720  -37.4870   36.1350 O.3   322  THR322     -0.2208
     99  CG2      130.1680  -35.5420   36.8460 C.3   322  THR322      0.0379
    100  N        128.9390  -37.9830   33.3760 N.am  323  LYS323     -0.1977
    101  CA       128.9680  -38.8230   32.1780 C.3   323  LYS323      0.1596
    102  C        130.2040  -39.7160   32.1530 C.2   323  LYS323      0.2287
    103  O        131.3180  -39.2650   32.4210 O.2   323  LYS323     -0.2864
    104  CB       128.8830  -37.9520   30.9040 C.3   323  LYS323      0.0298
    105  CG       129.2850  -38.6530   29.5860 C.3   323  LYS323      0.0038
    106  CD       128.1720  -38.5920   28.5110 C.3   323  LYS323      0.0206
    107  CE       128.1670  -37.2820   27.7230 C.3   323  LYS323      0.1093
    108  NZ       129.3640  -37.1830   26.8570 N.3   323  LYS323     -0.1314
    109  N        136.1330  -34.7500   41.2540 N.3   343  GLY343     -0.1225
    110  CA       135.4110  -34.6690   39.9960 C.3   343  GLY343      0.1811
    111  C        133.9430  -34.3630   40.1230 C.2   343  GLY343      0.2280
    112  O        133.3750  -33.7470   39.2110 O.2   343  GLY343     -0.2866
    113  N        130.8670  -32.6800   42.5440 N.3   345  PRO345     -0.2116
    114  CA       130.6500  -31.7370   43.6430 C.3   345  PRO345      0.1372
    115  C        129.3650  -32.0060   44.4450 C.2   345  PRO345      0.2244
    116  O        128.4800  -31.1590   44.5110 O.2   345  PRO345     -0.2868
    117  CB       130.5390  -30.3970   42.9060 C.3   345  PRO345      0.0268
    118  CG       129.9030  -30.7640   41.5730 C.3   345  PRO345      0.0207
    119  CD       130.1920  -32.2350   41.3070 C.3   345  PRO345      0.0892
    120  N        140.3240  -28.5420   46.5790 N.3   383  PHE383     -0.1241
    121  CA       140.4710  -28.2140   45.1930 C.3   383  PHE383      0.1605
    122  C        141.9310  -28.0430   44.8400 C.2   383  PHE383      0.2264
    123  O        142.7370  -27.7030   45.6870 O.2   383  PHE383     -0.2867
    124  CB       139.6540  -26.9930   44.8470 C.3   383  PHE383      0.0534
    125  CG       138.8020  -27.2090   43.6720 C.ar  383  PHE383     -0.0203
    126  CD1      137.6040  -27.9070   43.7990 C.ar  383  PHE383     -0.0042
    127  CD2      139.2140  -26.7880   42.4080 C.ar  383  PHE383     -0.0042
    128  CE1      136.7960  -28.1630   42.6840 C.ar  383  PHE383     -0.0003
    129  CE2      138.4190  -27.0280   41.2910 C.ar  383  PHE383     -0.0003
    130  CZ       137.2050  -27.7210   41.4290 C.ar  383  PHE383     -0.0000
    131  N        129.5560  -21.1620   32.5840 N.3   509  GLN509     -0.1245
    132  CA       128.3750  -21.4060   31.7780 C.3   509  GLN509      0.1566
    133  C        127.1740  -20.7040   32.4010 C.2   509  GLN509      0.2260
    134  O        127.0970  -20.5310   33.6090 O.2   509  GLN509     -0.2867
    135  CB       128.0500  -22.8940   31.7180 C.3   509  GLN509      0.0367
    136  CG       129.1560  -23.8590   31.2850 C.3   509  GLN509      0.0905
    137  CD       128.5780  -25.2210   30.9270 C.2   509  GLN509      0.2608
    138  OE1      128.0020  -25.3860   29.8680 O.2   509  GLN509     -0.2717
    139  NE2      128.7030  -26.1830   31.8240 N.am  509  GLN509     -0.0878
    140  N        124.0560  -21.4470   32.8720 N.3   511  TYR511     -0.1227
    141  CA       123.1030  -22.1660   33.7390 C.3   511  TYR511      0.1736
    142  C        123.3140  -21.8700   35.2140 C.2   511  TYR511      0.2595
    143  O        122.4050  -22.0870   36.0020 O.2   511  TYR511     -0.2718
    144  CB       123.0920  -23.6900   33.4890 C.3   511  TYR511      0.0548
    145  CG       124.2220  -24.4680   34.1620 C.ar  511  TYR511     -0.0200
    146  CD1      124.0910  -24.9370   35.4570 C.ar  511  TYR511     -0.0009
    147  CD2      125.4200  -24.7390   33.4940 C.ar  511  TYR511     -0.0009
    148  CE1      125.1230  -25.6310   36.0770 C.ar  511  TYR511      0.0417
    149  CE2      126.4500  -25.4280   34.1030 C.ar  511  TYR511      0.0417
    150  CZ       126.3010  -25.8700   35.3980 C.ar  511  TYR511      0.1957
    151  OH       127.3060  -26.5630   36.0420 O.3   511  TYR511     -0.2866
    152  N        124.4920  -21.3640   35.5770 N.am  512  LYS512     -0.1980
    153  CA       124.8210  -21.0670   36.9760 C.3   512  LYS512      0.1596
    154  C        124.2160  -19.7520   37.5040 C.2   512  LYS512      0.2287
    155  O        124.2130  -19.4860   38.7150 O.2   512  LYS512     -0.2864
    156  CB       126.3340  -21.0970   37.1810 C.3   512  LYS512      0.0298
    157  CG       126.9260  -22.4700   37.0810 C.3   512  LYS512      0.0038
    158  CD       128.4400  -22.4510   37.1790 C.3   512  LYS512      0.0206
    159  CE       128.9910  -23.8590   37.0270 C.3   512  LYS512      0.1093
    160  NZ       130.4550  -23.9150   37.2220 N.3   512  LYS512     -0.1314
    161  N        127.6570  -18.9690   26.3710 N.3   538  PHE538     -0.1241
    162  CA       127.9640  -20.2920   26.8740 C.3   538  PHE538      0.1605
    163  C        126.7300  -20.8920   27.5210 C.2   538  PHE538      0.2264
    164  O        126.7120  -21.0950   28.7350 O.2   538  PHE538     -0.2867
    165  CB       129.0300  -20.1340   27.9410 C.3   538  PHE538      0.0534
    166  CG       129.8880  -21.3410   28.1480 C.ar  538  PHE538     -0.0203
    167  CD1      129.6340  -22.5350   27.4870 C.ar  538  PHE538     -0.0042
    168  CD2      130.9640  -21.2930   29.0340 C.ar  538  PHE538     -0.0042
    169  CE1      130.4510  -23.6440   27.7040 C.ar  538  PHE538     -0.0003
    170  CE2      131.7690  -22.4030   29.2370 C.ar  538  PHE538     -0.0003
    171  CZ       131.5090  -23.5680   28.5780 C.ar  538  PHE538     -0.0000
    172  N        133.0960  -18.4420   23.5630 N.3   565  VAL565     -0.1231
    173  CA       133.8970  -19.3710   24.3500 C.3   565  VAL565      0.1692
    174  C        135.2270  -19.5290   23.6390 C.2   565  VAL565      0.2592
    175  O        135.2550  -19.6960   22.4200 O.2   565  VAL565     -0.2718
    176  CB       133.2140  -20.7310   24.4660 C.3   565  VAL565      0.0266
    177  CG1      134.0950  -21.6740   25.1700 C.3   565  VAL565      0.0020
    178  CG2      131.9030  -20.6070   25.2030 C.3   565  VAL565      0.0020
    179  N        136.3170  -19.4460   24.4000 N.am  566  ALA566     -0.1966
    180  CA       137.6870  -19.5290   23.8550 C.3   566  ALA566      0.1713
    181  C        138.3270  -20.9210   24.0350 C.2   566  ALA566      0.2458
    182  O        137.8400  -21.7520   24.8230 O.2   566  ALA566     -0.2730
    183  CB       138.5730  -18.4630   24.4840 C.3   566  ALA566      0.0333
    184  N        139.4250  -21.1920   23.3060 N.am  567  PRO567     -0.2716
    185  CA       140.2510  -22.3510   23.6480 C.3   567  PRO567      0.1536
    186  C        140.7740  -22.2290   25.0790 C.2   567  PRO567      0.2598
    187  O        140.8790  -21.1360   25.6110 O.2   567  PRO567     -0.2715
    188  CB       141.4090  -22.2300   22.6780 C.3   567  PRO567      0.0310
    189  CG       140.8570  -21.4520   21.5470 C.3   567  PRO567      0.0237
    190  CD       139.9600  -20.4590   22.1500 C.3   567  PRO567      0.0939
    191  N        141.1030  -23.3360   25.7070 N.am  568  LYS568     -0.1978
    192  CA       141.4770  -23.3000   27.1270 C.3   568  LYS568      0.1596
    193  C        142.5160  -22.2350   27.5060 C.2   568  LYS568      0.2287
    194  O        142.3120  -21.4840   28.4550 O.2   568  LYS568     -0.2864
    195  CB       141.9230  -24.6900   27.6130 C.3   568  LYS568      0.0298
    196  CG       142.3150  -24.7610   29.0910 C.3   568  LYS568      0.0038
    197  CD       141.1200  -25.0750   29.9670 C.3   568  LYS568      0.0206
    198  CE       141.5900  -25.3830   31.3510 C.3   568  LYS568      0.1093
    199  NZ       140.4900  -25.7260   32.2830 N.3   568  LYS568     -0.1314
    200  N        134.0390  -23.6840   39.5410 N.3   590  HIS590     -0.1226
    201  CA       134.9590  -24.6290   40.1600 C.3   590  HIS590      0.1752
    202  C        136.3170  -24.5950   39.5020 C.2   590  HIS590      0.2596
    203  O        137.2270  -23.9630   40.0090 O.2   590  HIS590     -0.2718
    204  CB       134.3750  -26.0310   40.2060 C.3   590  HIS590      0.0759
    205  CG       133.1260  -26.1180   41.0070 C.ar  590  HIS590      0.0818
    206  ND1      132.2400  -27.1640   40.8890 N.ar  590  HIS590     -0.2268
    207  CD2      132.5920  -25.2740   41.9210 C.ar  590  HIS590      0.1154
    208  CE1      131.2190  -26.9690   41.7080 C.ar  590  HIS590      0.1986
    209  NE2      131.4090  -25.8300   42.3480 N.ar  590  HIS590     -0.2212
    210  N        136.4580  -25.2740   38.3760 N.am  591  THR591     -0.1953
    211  CA       137.6580  -25.1550   37.5750 C.3   591  THR591      0.1897
    212  C        137.8130  -23.6860   37.1940 C.2   591  THR591      0.2313
    213  O        138.8990  -23.1180   37.2660 O.2   591  THR591     -0.2863
    214  CB       137.5210  -26.0020   36.3330 C.3   591  THR591      0.1794
    215  OG1      137.1370  -27.3090   36.7300 O.3   591  THR591     -0.2208
    216  CG2      138.8240  -26.0620   35.5490 C.3   591  THR591      0.0378
@<TRIPOS>BOND
     1   189   190    1
     2   189   188    1
     3   190   184    1
     4   175   174    2
     5   188   185    1
     6   184   185    1
     7   184   181   am
     8   172   173    1
     9   174   173    1
    10   174   179   am
    11   185   186    1
    12   180   181    1
    13   180   179    1
    14   180   183    1
    15   181   182    2
    16   173   176    1
    17   176   177    1
    18   176   178    1
    19    38    36   am
    20   186   187    2
    21   186   191   am
    22   191   192    1
    23    36    35    1
    24    36    37    2
    25    35    32    1
    26   161   162    1
    27   108   107    1
    28   162   163    1
    29   162   165    1
    30   192   193    1
    31   192   195    1
    32   167   169   ar
    33   167   166   ar
    34   193   194    2
    35   163   164    2
    36    31    32    1
    37    32    33    1
    38   195   196    1
    39    34    33    2
    40   169   171   ar
    41   107   106    1
    42   165   166    1
    43   166   168   ar
    44    33    39   am
    45   106   105    1
    46   171   170   ar
    47   168   170   ar
    48   196   197    1
    49    39    40    1
    50   105   104    1
    51    72    71   ar
    52    72    70   ar
    53   138   137    2
    54   197   198    1
    55    71    69   ar
    56    40    43    1
    57    40    41    1
    58    43    44    1
    59    70    68   ar
    60   104   101    1
    61   137   136    1
    62   137   139   am
    63    46    44   ar
    64    46    48   ar
    65   136   135    1
    66    69    68   ar
    67   198   199    1
    68    55    49    1
    69    55    54    1
    70    41    42    2
    71    41    49   am
    72    44    45   ar
    73   135   132    1
    74   132   133    1
    75   132   131    1
    76    68    67    1
    77    49    50    1
    78   102   101    1
    79   102   103    2
    80   101   100    1
    81    48    47   ar
    82   133   134    2
    83    54    53    1
    84   140   141    1
    85    45    47   ar
    86    67    64    1
    87    50    53    1
    88    50    51    1
    89   100    95   am
    90   144   141    1
    91   144   145    1
    92   147   149   ar
    93   147   145   ar
    94   141   142    1
    95    63    64    1
    96    64    65    1
    97   149   150   ar
    98   145   146   ar
    99    51    56   am
   100    51    52    2
   101    29    30   ar
   102    29    27   ar
   103    30    28   ar
   104    95    96    2
   105    95    94    1
   106    56    57    1
   107   142   152   am
   108   142   143    2
   109    65    66    2
   110    65    73   am
   111   150   151    1
   112   150   148   ar
   113   146   148   ar
   114   216   214    1
   115    58    57    1
   116    58    59    2
   117   152   153    1
   118    27    26   ar
   119    94    97    1
   120    94    93    1
   121    57    60    1
   122    97    98    1
   123    97    99    1
   124    28    26   ar
   125     8    10   ar
   126     8     6   ar
   127    60    61    1
   128    60    62    1
   129    10     9   ar
   130    73    74    1
   131   214   215    1
   132   214   211    1
   133    26    25    1
   134    18    20   ar
   135    18    16   ar
   136    20    19   ar
   137     6     5    1
   138     6     7   ar
   139    84    83    2
   140     9     7   ar
   141     5     2    1
   142   153   156    1
   143   153   154    1
   144    93    83   am
   145   159   158    1
   146   159   160    1
   147   157   158    1
   148   157   156    1
   149   212   213    2
   150   212   211    1
   151    83    82    1
   152   154   155    2
   153   211   210    1
   154    16    15    1
   155    16    17   ar
   156    74    75    1
   157    74    77    1
   158    25    22    1
   159    19    17   ar
   160    15    12    1
   161    78    80    1
   162    78    77    1
   163    78    79    1
   164    75    76    2
   165     2     1    1
   166     2     3    1
   167   210   202   am
   168    82    85    1
   169    82    81    1
   170    22    21    1
   171    22    23    1
   172    14    13    2
   173    21    13   am
   174    13    12    1
   175   112   111    2
   176    12    11    1
   177    85    86    1
   178     3     4    2
   179   202   203    2
   180   202   201    1
   181   200   201    1
   182   110   111    1
   183   110   109    1
   184    23    24    2
   185   201   204    1
   186   204   205    1
   187    87    86   ar
   188    87    89   ar
   189    86    88   ar
   190   206   205   ar
   191   206   208   ar
   192   205   207   ar
   193   129   130   ar
   194   129   127   ar
   195   119   118    1
   196   119   113    1
   197   130   128   ar
   198    89    91   ar
   199   118   117    1
   200   208   209   ar
   201    88    90   ar
   202   207   209   ar
   203   127   125   ar
   204   113   114    1
   205   128   126   ar
   206    91    90   ar
   207    91    92    1
   208   117   114    1
   209   114   115    1
   210   125   126   ar
   211   125   124    1
   212   115   116    2
   213   122   121    1
   214   122   123    2
   215   124   121    1
   216   121   120    1
