@<TRIPOS>MOLECULE
tmp/4cdwA00.pdb
 238 231 0 0 0
SMALL
GASTEIGER

@<TRIPOS>ATOM
      1  N         98.0970  270.3820   97.3750 N.3   109  TRP109     -0.1241
      2  CA        99.5320  270.5730   97.5290 C.3   109  TRP109      0.1605
      3  C        100.3260  269.4220   96.9310 C.2   109  TRP109      0.2264
      4  O        100.1520  268.2660   97.3240 O.2   109  TRP109     -0.2867
      5  CB        99.8830  270.7070   99.0110 C.3   109  TRP109      0.0550
      6  CG       101.3400  271.0100   99.2750 C.ar  109  TRP109      0.0003
      7  CD1      102.0110  272.1590   98.9620 C.ar  109  TRP109      0.0946
      8  CD2      102.2970  270.1500   99.9080 C.ar  109  TRP109      0.0152
      9  NE1      103.3230  272.0690   99.3610 N.ar  109  TRP109     -0.2442
     10  CE2      103.5250  270.8470   99.9440 C.ar  109  TRP109      0.0810
     11  CE3      102.2350  268.8590  100.4470 C.ar  109  TRP109      0.0012
     12  CZ2      104.6830  270.2950  100.4980 C.ar  109  TRP109      0.0191
     13  CZ3      103.3870  268.3110  100.9980 C.ar  109  TRP109      0.0001
     14  CH2      104.5950  269.0300  101.0180 C.ar  109  TRP109      0.0015
     15  N        103.1100  267.0110   96.6270 N.3   111  ILE111     -0.1231
     16  CA       104.0430  266.4760   97.5980 C.3   111  ILE111      0.1692
     17  C        105.4830  266.6020   97.1210 C.2   111  ILE111      0.2592
     18  O        105.9860  265.7640   96.3720 O.2   111  ILE111     -0.2718
     19  CB       103.6940  265.0110   97.9240 C.3   111  ILE111      0.0266
     20  CG1      102.2420  264.9410   98.4220 C.3   111  ILE111      0.0019
     21  CG2      104.6440  264.4640   98.9860 C.3   111  ILE111      0.0020
     22  CD1      101.7260  263.5420   98.6760 C.3   111  ILE111      0.0001
     23  N        106.1180  267.6840   97.5640 N.am  112  ASP112     -0.1960
     24  CA       107.5030  268.0110   97.2550 C.3   112  ASP112      0.1840
     25  C        108.0300  268.7750   98.4730 C.2   112  ASP112      0.2622
     26  O        107.4830  269.8140   98.8540 O.2   112  ASP112     -0.2715
     27  CB       107.5760  268.8980   96.0140 C.3   112  ASP112      0.1450
     28  CG       109.0000  269.1880   95.5870 C.2   112  ASP112      0.3671
     29  OD1      109.8970  269.1700   96.4550 O.co2 112  ASP112     -0.2456
     30  OD2      109.2270  269.4480   94.3880 O.co2 112  ASP112     -0.2456
     31  N        109.0910  268.2670   99.0840 N.am  113  ILE113     -0.1963
     32  CA       109.6370  268.9120  100.2680 C.3   113  ILE113      0.1727
     33  C        110.7790  269.8780   99.9850 C.2   113  ILE113      0.2616
     34  O        111.4190  270.3620  100.9160 O.2   113  ILE113     -0.2715
     35  CB       110.1580  267.8700  101.2470 C.3   113  ILE113      0.0290
     36  CG1      111.3620  267.1560  100.6310 C.3   113  ILE113      0.0022
     37  CG2      109.0710  266.8600  101.5540 C.3   113  ILE113      0.0023
     38  CD1      112.0380  266.1680  101.5650 C.3   113  ILE113      0.0001
     39  N        111.0310  270.1750   98.7160 N.am  114  THR114     -0.1951
     40  CA       112.1380  271.0610   98.3700 C.3   114  THR114      0.1897
     41  C        111.8530  272.5540   98.4270 C.2   114  THR114      0.2313
     42  O        112.6190  273.3520   97.8880 O.2   114  THR114     -0.2863
     43  CB       112.6870  270.7320   96.9800 C.3   114  THR114      0.1794
     44  OG1      111.6820  270.9800   95.9960 O.3   114  THR114     -0.2208
     45  CG2      113.0870  269.2710   96.9090 C.3   114  THR114      0.0378
     46  N        113.4130  255.5390  102.5980 N.3   131  PHE131     -0.1241
     47  CA       112.9650  255.6950  103.9760 C.3   131  PHE131      0.1605
     48  C        111.4510  255.7190  104.1280 C.2   131  PHE131      0.2264
     49  O        110.7150  255.8300  103.1470 O.2   131  PHE131     -0.2867
     50  CB       113.5450  256.9960  104.5430 C.3   131  PHE131      0.0534
     51  CG       113.1240  258.2330  103.7810 C.ar  131  PHE131     -0.0203
     52  CD1      111.9150  258.8660  104.0590 C.ar  131  PHE131     -0.0042
     53  CD2      113.9180  258.7420  102.7520 C.ar  131  PHE131     -0.0042
     54  CE1      111.5020  259.9850  103.3220 C.ar  131  PHE131     -0.0003
     55  CE2      113.5090  259.8630  102.0080 C.ar  131  PHE131     -0.0003
     56  CZ       112.3030  260.4790  102.2960 C.ar  131  PHE131     -0.0000
     57  N        108.3040  257.5020  106.6540 N.3   133  ALA133     -0.1245
     58  CA       108.2050  258.8160  107.2630 C.3   133  ALA133      0.1562
     59  C        106.9760  258.9780  108.1230 C.2   133  ALA133      0.2260
     60  O        105.9850  258.2610  107.9660 O.2   133  ALA133     -0.2867
     61  CB       108.2210  259.8890  106.1820 C.3   133  ALA133      0.0290
     62  N        104.3310  261.8930  109.2000 N.3   135  PHE135     -0.1241
     63  CA       103.8760  263.2430  108.9280 C.3   135  PHE135      0.1605
     64  C        102.9590  263.7940  110.0010 C.2   135  PHE135      0.2264
     65  O        102.0640  263.1030  110.4850 O.2   135  PHE135     -0.2867
     66  CB       103.1930  263.3090  107.5700 C.3   135  PHE135      0.0534
     67  CG       104.1540  263.3520  106.4320 C.ar  135  PHE135     -0.0203
     68  CD1      104.8460  262.2140  106.0480 C.ar  135  PHE135     -0.0042
     69  CD2      104.4100  264.5470  105.7750 C.ar  135  PHE135     -0.0042
     70  CE1      105.7880  262.2670  105.0190 C.ar  135  PHE135     -0.0003
     71  CE2      105.3470  264.6110  104.7480 C.ar  135  PHE135     -0.0003
     72  CZ       106.0380  263.4720  104.3680 C.ar  135  PHE135     -0.0000
     73  N        100.5360  267.2120  111.0100 N.3   137  PHE137     -0.1241
     74  CA        99.8520  268.3860  110.4820 C.3   137  PHE137      0.1605
     75  C         99.3670  269.3140  111.5700 C.2   137  PHE137      0.2264
     76  O         98.4740  268.9660  112.3370 O.2   137  PHE137     -0.2867
     77  CB        98.6770  267.9370  109.6300 C.3   137  PHE137      0.0534
     78  CG        99.0640  266.9730  108.5620 C.ar  137  PHE137     -0.0203
     79  CD1       99.7160  267.4120  107.4210 C.ar  137  PHE137     -0.0042
     80  CD2       98.8470  265.6140  108.7280 C.ar  137  PHE137     -0.0042
     81  CE1      100.1530  266.5040  106.4580 C.ar  137  PHE137     -0.0003
     82  CE2       99.2800  264.6990  107.7740 C.ar  137  PHE137     -0.0003
     83  CZ        99.9340  265.1400  106.6380 C.ar  137  PHE137     -0.0000
     84  N         91.8510  265.8860  105.4060 N.3   153  TYR153     -0.1227
     85  CA        93.0730  265.8090  104.6210 C.3   153  TYR153      0.1736
     86  C         92.9160  264.5320  103.8090 C.2   153  TYR153      0.2595
     87  O         92.4410  263.5230  104.3350 O.2   153  TYR153     -0.2718
     88  CB        94.3130  265.6590  105.5050 C.3   153  TYR153      0.0548
     89  CG        94.4820  266.6930  106.5880 C.ar  153  TYR153     -0.0200
     90  CD1       94.4900  268.0520  106.2960 C.ar  153  TYR153     -0.0009
     91  CD2       94.6970  266.3040  107.9050 C.ar  153  TYR153     -0.0009
     92  CE1       94.7160  268.9950  107.2950 C.ar  153  TYR153      0.0417
     93  CE2       94.9220  267.2330  108.9060 C.ar  153  TYR153      0.0417
     94  CZ        94.9330  268.5720  108.5950 C.ar  153  TYR153      0.1957
     95  OH        95.1810  269.4790  109.5950 O.3   153  TYR153     -0.2866
     96  N         93.2880  264.5640  102.5350 N.am  154  MET154     -0.1965
     97  CA        93.1860  263.3620  101.7200 C.3   154  MET154      0.1736
     98  C         94.3970  263.1920  100.8270 C.2   154  MET154      0.2616
     99  O         94.8870  264.1550  100.2360 O.2   154  MET154     -0.2715
    100  CB        91.9220  263.3740  100.8610 C.3   154  MET154      0.0427
    101  CG        91.8650  262.2050   99.8880 C.3   154  MET154      0.0599
    102  SD        90.2770  262.0250   99.0930 S.3   154  MET154     -0.1393
    103  CE        90.2480  263.5000   98.0750 C.3   154  MET154      0.0692
    104  N         94.8790  261.9590  100.7360 N.am  155  PHE155     -0.1974
    105  CA        96.0340  261.6550   99.9150 C.3   155  PHE155      0.1639
    106  C         95.5490  261.2110   98.5490 C.2   155  PHE155      0.2290
    107  O         94.8470  260.2030   98.4220 O.2   155  PHE155     -0.2864
    108  CB        96.8670  260.5520  100.5740 C.3   155  PHE155      0.0560
    109  CG        98.0120  260.0610   99.7310 C.ar  155  PHE155     -0.0200
    110  CD1       98.8050  260.9520   99.0140 C.ar  155  PHE155     -0.0042
    111  CD2       98.3140  258.7030   99.6800 C.ar  155  PHE155     -0.0042
    112  CE1       99.8870  260.4940   98.2580 C.ar  155  PHE155     -0.0003
    113  CE2       99.3920  258.2340   98.9280 C.ar  155  PHE155     -0.0003
    114  CZ       100.1810  259.1290   98.2160 C.ar  155  PHE155     -0.0000
    115  N         93.3180  257.3360  101.2100 N.3   177  PRO177     -0.2116
    116  CA        93.2690  257.4790  102.6680 C.3   177  PRO177      0.1372
    117  C         92.9670  258.9380  103.0200 C.2   177  PRO177      0.2244
    118  O         93.5250  259.8490  102.4120 O.2   177  PRO177     -0.2868
    119  CB        94.6670  257.0320  103.1150 C.3   177  PRO177      0.0268
    120  CG        95.5300  257.3560  101.9330 C.3   177  PRO177      0.0207
    121  CD        94.6650  256.9350  100.7640 C.3   177  PRO177      0.0892
    122  N         91.9530  261.7700  106.4550 N.3   179  VAL179     -0.1245
    123  CA        92.0230  262.0000  107.8900 C.3   179  VAL179      0.1561
    124  C         91.0990  263.1440  108.2350 C.2   179  VAL179      0.2260
    125  O         91.2260  264.2340  107.6880 O.2   179  VAL179     -0.2867
    126  CB        93.4420  262.4010  108.3560 C.3   179  VAL179      0.0252
    127  CG1       93.4040  262.8360  109.8210 C.3   179  VAL179      0.0019
    128  CG2       94.4010  261.2390  108.1830 C.3   179  VAL179      0.0019
    129  N        100.5050  260.6040  111.0600 N.3   190  VAL190     -0.1245
    130  CA       100.4000  259.2910  110.4380 C.3   190  VAL190      0.1561
    131  C        101.7380  258.8060  109.9140 C.2   190  VAL190      0.2260
    132  O        102.6630  259.5950  109.7270 O.2   190  VAL190     -0.2867
    133  CB        99.4220  259.3130  109.2460 C.3   190  VAL190      0.0252
    134  CG1       98.0470  259.7250  109.7060 C.3   190  VAL190      0.0019
    135  CG2       99.9230  260.2680  108.1800 C.3   190  VAL190      0.0019
    136  N        103.8870  256.9550  106.8870 N.3   192  VAL192     -0.1245
    137  CA       103.8740  256.7900  105.4430 C.3   192  VAL192      0.1561
    138  C        104.9990  255.8360  105.0550 C.2   192  VAL192      0.2260
    139  O        106.1090  255.9350  105.5730 O.2   192  VAL192     -0.2867
    140  CB       104.0800  258.1560  104.7570 C.3   192  VAL192      0.0252
    141  CG1      104.1940  257.9850  103.2570 C.3   192  VAL192      0.0019
    142  CG2      102.9200  259.0740  105.1020 C.3   192  VAL192      0.0019
    143  N        107.0740  254.6990   99.0820 N.3   195  MET195     -0.1245
    144  CA       106.2020  254.4710   97.9260 C.3   195  MET195      0.1570
    145  C        106.7010  254.5880   96.4870 C.2   195  MET195      0.2261
    146  O        105.9010  254.5010   95.5590 O.2   195  MET195     -0.2867
    147  CB       104.9810  255.3770   98.0590 C.3   195  MET195      0.0387
    148  CG       104.3380  255.3570   99.4310 C.3   195  MET195      0.0595
    149  SD       103.1310  256.6730   99.5690 S.3   195  MET195     -0.1393
    150  CE       104.2030  258.0640   99.8350 C.3   195  MET195      0.0692
    151  N        114.2400  257.0060   96.4070 N.3   201  TYR201     -0.1227
    152  CA       113.9430  258.3240   95.8720 C.3   201  TYR201      0.1736
    153  C        115.3260  258.8680   95.5330 C.2   201  TYR201      0.2595
    154  O        116.3340  258.3630   96.0320 O.2   201  TYR201     -0.2718
    155  CB       113.3290  259.2430   96.9360 C.3   201  TYR201      0.0548
    156  CG       112.0350  258.7960   97.5860 C.ar  201  TYR201     -0.0200
    157  CD1      110.8750  258.5930   96.8370 C.ar  201  TYR201     -0.0009
    158  CD2      111.9560  258.6470   98.9660 C.ar  201  TYR201     -0.0009
    159  CE1      109.6690  258.2570   97.4530 C.ar  201  TYR201      0.0417
    160  CE2      110.7620  258.3130   99.5900 C.ar  201  TYR201      0.0417
    161  CZ       109.6230  258.1200   98.8300 C.ar  201  TYR201      0.1957
    162  OH       108.4480  257.7940   99.4650 O.3   201  TYR201     -0.2866
    163  N        115.3890  259.8830   94.6840 N.am  202  GLN202     -0.1965
    164  CA       116.6730  260.4840   94.3610 C.3   202  GLN202      0.1733
    165  C        116.4500  261.9740   94.1690 C.2   202  GLN202      0.2616
    166  O        115.5480  262.3920   93.4430 O.2   202  GLN202     -0.2715
    167  CB       117.2920  259.8420   93.1180 C.3   202  GLN202      0.0408
    168  CG       116.6250  260.1610   91.8120 C.3   202  GLN202      0.0908
    169  CD       117.1780  259.3130   90.6870 C.2   202  GLN202      0.2608
    170  OE1      116.7290  258.1900   90.4630 O.2   202  GLN202     -0.2717
    171  NE2      118.1730  259.8390   89.9850 N.am  202  GLN202     -0.0878
    172  N        117.2610  262.7670   94.8590 N.am  203  TRP203     -0.1974
    173  CA       117.1560  264.2170   94.8150 C.3   203  TRP203      0.1640
    174  C        117.7840  264.8100   93.5680 C.2   203  TRP203      0.2290
    175  O        117.6680  266.0060   93.3160 O.2   203  TRP203     -0.2864
    176  CB       117.8140  264.8080   96.0610 C.3   203  TRP203      0.0576
    177  CG       117.3070  264.1770   97.3070 C.ar  203  TRP203      0.0006
    178  CD1      117.9650  263.2870   98.1060 C.ar  203  TRP203      0.0946
    179  CD2      115.9950  264.3250   97.8610 C.ar  203  TRP203      0.0152
    180  NE1      117.1400  262.8660   99.1240 N.ar  203  TRP203     -0.2442
    181  CE2      115.9240  263.4880   98.9960 C.ar  203  TRP203      0.0810
    182  CE3      114.8690  265.0830   97.5060 C.ar  203  TRP203      0.0012
    183  CZ2      114.7650  263.3870   99.7820 C.ar  203  TRP203      0.0191
    184  CZ3      113.7190  264.9820   98.2860 C.ar  203  TRP203      0.0001
    185  CH2      113.6770  264.1390   99.4100 C.ar  203  TRP203      0.0015
    186  N        115.5210  266.8480   84.4880 N.3   223  GLY223     -0.1225
    187  CA       115.7020  266.6040   85.9070 C.3   223  GLY223      0.1811
    188  C        114.4460  266.1330   86.6060 C.2   223  GLY223      0.2280
    189  O        114.4520  265.9020   87.8140 O.2   223  GLY223     -0.2866
    190  N        109.8820  260.2460   91.8860 N.3   228  ASN228     -0.1240
    191  CA       109.9070  261.1040   93.0740 C.3   228  ASN228      0.1653
    192  C        108.5570  261.7820   93.3130 C.2   228  ASN228      0.2266
    193  O        108.3160  262.3550   94.3800 O.2   228  ASN228     -0.2867
    194  CB       110.9680  262.2010   92.9400 C.3   228  ASN228      0.1155
    195  CG       112.3850  261.6610   92.8730 C.2   228  ASN228      0.2627
    196  OD1      112.7890  260.8260   93.6830 O.2   228  ASN228     -0.2716
    197  ND2      113.1580  262.1620   91.9140 N.am  228  ASN228     -0.0877
    198  N        105.1220  261.4780   94.2820 N.3   230  MET230     -0.1245
    199  CA       104.2060  260.5970   94.9950 C.3   230  MET230      0.1570
    200  C        102.7330  260.9660   94.9840 C.2   230  MET230      0.2261
    201  O        101.9010  260.2030   95.4700 O.2   230  MET230     -0.2867
    202  CB       104.6820  260.4450   96.4370 C.3   230  MET230      0.0387
    203  CG       106.0370  259.7630   96.5520 C.3   230  MET230      0.0595
    204  SD       106.0410  258.0840   95.8690 S.3   230  MET230     -0.1393
    205  CE       106.4530  258.4000   94.1600 C.3   230  MET230      0.0692
    206  N         98.3740  266.1290   98.0590 N.3   233  PHE233     -0.1241
    207  CA        97.8120  266.1460   99.4060 C.3   233  PHE233      0.1605
    208  C         96.7360  267.2310   99.3900 C.2   233  PHE233      0.2264
    209  O         97.0410  268.4140   99.2270 O.2   233  PHE233     -0.2867
    210  CB        98.9070  266.4770  100.4320 C.3   233  PHE233      0.0534
    211  CG        98.3920  266.7220  101.8290 C.ar  233  PHE233     -0.0203
    212  CD1       98.0180  268.0000  102.2350 C.ar  233  PHE233     -0.0042
    213  CD2       98.2680  265.6710  102.7360 C.ar  233  PHE233     -0.0042
    214  CE1       97.5280  268.2290  103.5250 C.ar  233  PHE233     -0.0003
    215  CE2       97.7790  265.8900  104.0270 C.ar  233  PHE233     -0.0003
    216  CZ        97.4080  267.1710  104.4210 C.ar  233  PHE233     -0.0000
    217  N        107.6540  266.7620  108.4660 N.3   253  MET253     -0.1245
    218  CA       108.0730  265.4130  108.1100 C.3   253  MET253      0.1570
    219  C        109.2340  264.9180  108.9460 C.2   253  MET253      0.2261
    220  O        110.2350  265.6090  109.1190 O.2   253  MET253     -0.2867
    221  CB       108.4890  265.3310  106.6430 C.3   253  MET253      0.0387
    222  CG       109.0480  263.9630  106.2700 C.3   253  MET253      0.0595
    223  SD       109.7370  263.8860  104.6130 S.3   253  MET253     -0.1393
    224  CE       111.3850  264.5020  104.9020 C.3   253  MET253      0.0692
    225  N        112.3000  274.9360   93.5080 N.3   274  LYS274     -0.1231
    226  CA       112.1840  273.5690   93.9940 C.3   274  LYS274      0.1693
    227  C        112.7580  272.5740   92.9880 C.2   274  LYS274      0.2591
    228  O        113.6070  271.7440   93.3080 O.2   274  LYS274     -0.2718
    229  CB       110.7220  273.2100   94.2130 C.3   274  LYS274      0.0285
    230  CG       109.9480  274.1050   95.1370 C.3   274  LYS274      0.0035
    231  CD       108.5240  273.6110   95.1620 C.3   274  LYS274      0.0206
    232  CE       107.6160  274.5220   95.9350 C.3   274  LYS274      0.1093
    233  NZ       106.2230  274.0050   95.8800 N.3   274  LYS274     -0.1314
    234  N        112.2730  272.6780   91.7610 N.am  275  ALA275     -0.1980
    235  CA       112.6600  271.7890   90.6810 C.3   275  ALA275      0.1597
    236  C        114.1180  271.7280   90.2230 C.2   275  ALA275      0.2287
    237  O        114.4810  270.8120   89.4930 O.2   275  ALA275     -0.2864
    238  CB       111.7770  272.0760   89.4830 C.3   275  ALA275      0.0319
@<TRIPOS>BOND
     1   186   187    1
     2   187   188    1
     3   188   189    2
     4   238   235    1
     5   237   236    2
     6   171   169   am
     7   236   235    1
     8   170   169    2
     9   235   234    1
    10   169   168    1
    11   234   227   am
    12   168   167    1
    13   190   191    1
    14   197   195   am
    15   195   194    1
    16   195   196    2
    17   194   191    1
    18   227   228    2
    19   227   226    1
    20   191   192    1
    21   167   164    1
    22   192   193    2
    23   175   174    2
    24   166   165    2
    25   225   226    1
    26   174   173    1
    27   226   229    1
    28   205   204    1
    29   165   164    1
    30   165   172   am
    31   229   230    1
    32   198   199    1
    33   164   163    1
    34    30    28   ar
    35   163   153   am
    36   173   172    1
    37   173   176    1
    38   200   199    1
    39   200   201    2
    40   199   202    1
    41   230   231    1
    42   231   232    1
    43   153   152    1
    44   153   154    2
    45   146   145    2
    46    28    27    1
    47    28    29   ar
    48   204   203    1
    49   152   151    1
    50   152   155    1
    51   233   232    1
    52    44    43    1
    53    27    24    1
    54   176   177    1
    55    18    17    2
    56   202   203    1
    57   145   144    1
    58    15    16    1
    59   157   159   ar
    60   157   156   ar
    61    45    43    1
    62     3     4    2
    63     3     2    1
    64   155   156    1
    65    43    40    1
    66    17    23   am
    67    17    16    1
    68    24    23    1
    69    24    25    1
    70   177   179   ar
    71   177   178   ar
    72     1     2    1
    73   159   161   ar
    74   182   179   ar
    75   182   184   ar
    76     2     5    1
    77   156   158   ar
    78    16    19    1
    79   179   181   ar
    80    42    41    2
    81    19    20    1
    82    19    21    1
    83   144   147    1
    84   144   143    1
    85   206   207    1
    86   147   148    1
    87   103   102    1
    88   178   180   ar
    89   114   112   ar
    90   114   113   ar
    91   112   110   ar
    92   184   185   ar
    93    40    41    1
    94    40    39    1
    95   107   106    2
    96    20    22    1
    97    25    26    2
    98    25    31   am
    99   106   105    1
   100    39    33   am
   101   161   162    1
   102   161   160   ar
   103   113   111   ar
   104     7     6   ar
   105     7     9   ar
   106   158   160   ar
   107   181   180   ar
   108   181   183   ar
   109     5     6    1
   110   110   109   ar
   111    31    32    1
   112   102   101    1
   113   209   208    2
   114     6     8   ar
   115     9    10   ar
   116   208   207    1
   117   207   210    1
   118   185   183   ar
   119   148   149    1
   120   149   150    1
   121   111   109   ar
   122   109   108    1
   123   101   100    1
   124     8    10   ar
   125     8    11   ar
   126   105   108    1
   127   105   104    1
   128    10    12   ar
   129    33    32    1
   130    33    34    2
   131    99    98    2
   132    32    35    1
   133   210   211    1
   134    11    13   ar
   135    12    14   ar
   136    36    35    1
   137    36    38    1
   138   104    98   am
   139   121   115    1
   140   121   120    1
   141    98    97    1
   142   100    97    1
   143    13    14   ar
   144   115   116    1
   145    35    37    1
   146    97    96    1
   147   211   212   ar
   148   211   213   ar
   149   120   119    1
   150    55    56   ar
   151    55    53   ar
   152   212   214   ar
   153    56    54   ar
   154   118   117    2
   155    96    86   am
   156    46    47    1
   157   116   117    1
   158   116   119    1
   159   213   215   ar
   160    53    51   ar
   161    49    48    2
   162   141   140    1
   163    54    52   ar
   164   214   216   ar
   165    51    52   ar
   166    51    50    1
   167    86    87    2
   168    86    85    1
   169    47    48    1
   170    47    50    1
   171   215   216   ar
   172    72    71   ar
   173    72    70   ar
   174   223   224    1
   175   223   222    1
   176    85    84    1
   177    85    88    1
   178    71    69   ar
   179   140   142    1
   180   140   137    1
   181    70    68   ar
   182   138   137    1
   183   138   139    2
   184   137   136    1
   185    88    89    1
   186    69    67   ar
   187    68    67   ar
   188    61    58    1
   189   222   221    1
   190    90    89   ar
   191    90    92   ar
   192    67    66    1
   193   122   123    1
   194    81    83   ar
   195    81    79   ar
   196    89    91   ar
   197    83    82   ar
   198   221   218    1
   199    57    58    1
   200    58    59    1
   201    92    94   ar
   202    79    78   ar
   203    66    63    1
   204   125   124    2
   205    82    80   ar
   206   123   124    1
   207   123   126    1
   208    91    93   ar
   209    60    59    2
   210   218   217    1
   211   218   219    1
   212   135   133    1
   213   128   126    1
   214   126   127    1
   215    78    80   ar
   216    78    77    1
   217    94    93   ar
   218    94    95    1
   219    63    62    1
   220    63    64    1
   221   219   220    2
   222   133   134    1
   223   133   130    1
   224    77    74    1
   225   132   131    2
   226   131   130    1
   227    64    65    2
   228   130   129    1
   229    74    73    1
   230    74    75    1
   231    75    76    2
