@<TRIPOS>MOLECULE
tmp/4cdxA00.pdb
 240 235 0 0 0
SMALL
GASTEIGER

@<TRIPOS>ATOM
      1  N         98.1290  270.3770   97.1900 N.3   109  TRP109     -0.1241
      2  CA        99.5600  270.5890   97.3320 C.3   109  TRP109      0.1605
      3  C        100.3650  269.4180   96.8130 C.2   109  TRP109      0.2264
      4  O        100.2540  268.3090   97.3260 O.2   109  TRP109     -0.2867
      5  CB        99.8970  270.8020   98.8030 C.3   109  TRP109      0.0550
      6  CG       101.3370  271.1060   99.0660 C.ar  109  TRP109      0.0003
      7  CD1      102.0110  272.2390   98.7270 C.ar  109  TRP109      0.0946
      8  CD2      102.2680  270.2790   99.7650 C.ar  109  TRP109      0.0152
      9  NE1      103.3050  272.1760   99.1780 N.ar  109  TRP109     -0.2442
     10  CE2      103.4900  270.9810   99.8200 C.ar  109  TRP109      0.0810
     11  CE3      102.1890  269.0120  100.3540 C.ar  109  TRP109      0.0012
     12  CZ2      104.6260  270.4600  100.4430 C.ar  109  TRP109      0.0191
     13  CZ3      103.3220  268.4950  100.9730 C.ar  109  TRP109      0.0001
     14  CH2      104.5230  269.2200  101.0110 C.ar  109  TRP109      0.0015
     15  N        103.0830  266.9880   96.6730 N.3   111  ILE111     -0.1231
     16  CA       104.0040  266.5140   97.6830 C.3   111  ILE111      0.1692
     17  C        105.4590  266.5830   97.2300 C.2   111  ILE111      0.2592
     18  O        105.9820  265.6520   96.6100 O.2   111  ILE111     -0.2718
     19  CB       103.6290  265.0800   98.0980 C.3   111  ILE111      0.0266
     20  CG1      102.1780  265.0580   98.6060 C.3   111  ILE111      0.0019
     21  CG2      104.5640  264.5840   99.1910 C.3   111  ILE111      0.0020
     22  CD1      101.6290  263.6780   98.8300 C.3   111  ILE111      0.0001
     23  N        106.0900  267.7100   97.5570 N.am  112  ASP112     -0.1960
     24  CA       107.4860  268.0030   97.2420 C.3   112  ASP112      0.1840
     25  C        108.0390  268.7600   98.4430 C.2   112  ASP112      0.2622
     26  O        107.5480  269.8350   98.7910 O.2   112  ASP112     -0.2715
     27  CB       107.5730  268.8960   96.0060 C.3   112  ASP112      0.1450
     28  CG       109.0000  269.1880   95.5960 C.2   112  ASP112      0.3671
     29  OD1      109.8870  269.1330   96.4720 O.co2 112  ASP112     -0.2456
     30  OD2      109.2330  269.4840   94.4030 O.co2 112  ASP112     -0.2456
     31  N        109.0690  268.2250   99.0760 N.am  113  ILE113     -0.1963
     32  CA       109.6120  268.8920  100.2460 C.3   113  ILE113      0.1727
     33  C        110.7480  269.8570   99.9610 C.2   113  ILE113      0.2616
     34  O        111.3900  270.3260  100.8890 O.2   113  ILE113     -0.2715
     35  CB       110.1410  267.8790  101.2420 C.3   113  ILE113      0.0290
     36  CG1      111.4310  267.2730  100.6920 C.3   113  ILE113      0.0022
     37  CG2      109.1120  266.7880  101.4690 C.3   113  ILE113      0.0023
     38  CD1      112.1570  266.4160  101.6890 C.3   113  ILE113      0.0001
     39  N        110.9980  270.1710   98.6990 N.am  114  THR114     -0.1951
     40  CA       112.1120  271.0530   98.3810 C.3   114  THR114      0.1897
     41  C        111.8560  272.5430   98.4570 C.2   114  THR114      0.2313
     42  O        112.6590  273.3280   97.9700 O.2   114  THR114     -0.2863
     43  CB       112.6780  270.7490   96.9970 C.3   114  THR114      0.1794
     44  OG1      111.6520  270.9280   96.0210 O.3   114  THR114     -0.2208
     45  CG2      113.1750  269.3210   96.9280 C.3   114  THR114      0.0378
     46  N        113.3370  255.6200  102.6370 N.3   131  PHE131     -0.1241
     47  CA       112.8740  255.7870  104.0050 C.3   131  PHE131      0.1605
     48  C        111.3660  255.7750  104.1660 C.2   131  PHE131      0.2264
     49  O        110.6170  255.9060  103.1970 O.2   131  PHE131     -0.2867
     50  CB       113.3950  257.1130  104.5480 C.3   131  PHE131      0.0534
     51  CG       112.9660  258.3060  103.7370 C.ar  131  PHE131     -0.0203
     52  CD1      111.6870  258.8330  103.8670 C.ar  131  PHE131     -0.0042
     53  CD2      113.8360  258.8900  102.8200 C.ar  131  PHE131     -0.0042
     54  CE1      111.2830  259.9240  103.0950 C.ar  131  PHE131     -0.0003
     55  CE2      113.4370  259.9820  102.0420 C.ar  131  PHE131     -0.0003
     56  CZ       112.1610  260.4960  102.1810 C.ar  131  PHE131     -0.0000
     57  N        108.2540  257.5140  106.6710 N.3   133  ALA133     -0.1245
     58  CA       108.1630  258.8310  107.2780 C.3   133  ALA133      0.1562
     59  C        106.9260  259.0180  108.1310 C.2   133  ALA133      0.2260
     60  O        105.9100  258.3480  107.9460 O.2   133  ALA133     -0.2867
     61  CB       108.2100  259.9100  106.1930 C.3   133  ALA133      0.0290
     62  N        104.3310  261.9260  109.2040 N.3   135  PHE135     -0.1241
     63  CA       103.8770  263.2730  108.9040 C.3   135  PHE135      0.1605
     64  C        102.9400  263.8270  109.9550 C.2   135  PHE135      0.2264
     65  O        102.0390  263.1370  110.4280 O.2   135  PHE135     -0.2867
     66  CB       103.1950  263.3200  107.5480 C.3   135  PHE135      0.0534
     67  CG       104.1510  263.4010  106.4100 C.ar  135  PHE135     -0.0203
     68  CD1      104.8230  262.2710  105.9680 C.ar  135  PHE135     -0.0042
     69  CD2      104.4160  264.6220  105.8020 C.ar  135  PHE135     -0.0042
     70  CE1      105.7510  262.3550  104.9330 C.ar  135  PHE135     -0.0003
     71  CE2      105.3380  264.7170  104.7720 C.ar  135  PHE135     -0.0003
     72  CZ       106.0090  263.5810  104.3350 C.ar  135  PHE135     -0.0000
     73  N        100.4640  267.2230  110.9120 N.3   137  PHE137     -0.1241
     74  CA        99.7460  268.3780  110.3740 C.3   137  PHE137      0.1605
     75  C         99.2810  269.3090  111.4760 C.2   137  PHE137      0.2264
     76  O         98.4260  268.9510  112.2900 O.2   137  PHE137     -0.2867
     77  CB        98.5520  267.8920  109.5640 C.3   137  PHE137      0.0534
     78  CG        98.9310  266.9080  108.5040 C.ar  137  PHE137     -0.0203
     79  CD1       99.6290  267.3200  107.3790 C.ar  137  PHE137     -0.0042
     80  CD2       98.6580  265.5590  108.6600 C.ar  137  PHE137     -0.0042
     81  CE1      100.0570  266.3960  106.4220 C.ar  137  PHE137     -0.0003
     82  CE2       99.0830  264.6240  107.7070 C.ar  137  PHE137     -0.0003
     83  CZ        99.7820  265.0420  106.5900 C.ar  137  PHE137     -0.0000
     84  N         91.8060  265.8460  105.3670 N.3   153  TYR153     -0.1227
     85  CA        93.0410  265.7810  104.6000 C.3   153  TYR153      0.1736
     86  C         92.9310  264.4940  103.8150 C.2   153  TYR153      0.2595
     87  O         92.6020  263.4470  104.3770 O.2   153  TYR153     -0.2718
     88  CB        94.2730  265.6800  105.4930 C.3   153  TYR153      0.0548
     89  CG        94.4260  266.7570  106.5330 C.ar  153  TYR153     -0.0200
     90  CD1       94.3810  268.1060  106.1930 C.ar  153  TYR153     -0.0009
     91  CD2       94.6720  266.4220  107.8580 C.ar  153  TYR153     -0.0009
     92  CE1       94.5820  269.0930  107.1570 C.ar  153  TYR153      0.0417
     93  CE2       94.8740  267.3930  108.8230 C.ar  153  TYR153      0.0417
     94  CZ        94.8290  268.7220  108.4690 C.ar  153  TYR153      0.1957
     95  OH        95.0400  269.6680  109.4430 O.3   153  TYR153     -0.2866
     96  N         93.1970  264.5550  102.5190 N.am  154  MET154     -0.1965
     97  CA        93.1140  263.3540  101.7080 C.3   154  MET154      0.1736
     98  C         94.3490  263.1980  100.8500 C.2   154  MET154      0.2616
     99  O         94.7970  264.1480  100.2090 O.2   154  MET154     -0.2715
    100  CB        91.8690  263.3840  100.8190 C.3   154  MET154      0.0427
    101  CG        91.7910  262.2200   99.8510 C.3   154  MET154      0.0599
    102  SD        90.1950  262.0930   99.0280 S.3   154  MET154     -0.1393
    103  CE        90.3290  263.4130   97.8440 C.3   154  MET154      0.0692
    104  N         94.9060  261.9960  100.8510 N.am  155  PHE155     -0.1974
    105  CA        96.0820  261.7170  100.0540 C.3   155  PHE155      0.1639
    106  C         95.5990  261.2890   98.6760 C.2   155  PHE155      0.2290
    107  O         94.8780  260.3010   98.5520 O.2   155  PHE155     -0.2864
    108  CB        96.9020  260.6050  100.7160 C.3   155  PHE155      0.0560
    109  CG        98.0200  260.0840   99.8680 C.ar  155  PHE155     -0.0200
    110  CD1       98.8760  260.9520   99.2080 C.ar  155  PHE155     -0.0042
    111  CD2       98.2130  258.7190   99.7200 C.ar  155  PHE155     -0.0042
    112  CE1       99.9160  260.4620   98.4010 C.ar  155  PHE155     -0.0003
    113  CE2       99.2470  258.2200   98.9190 C.ar  155  PHE155     -0.0003
    114  CZ       100.0970  259.0930   98.2580 C.ar  155  PHE155     -0.0000
    115  N         93.2710  257.3620  101.2690 N.3   177  PRO177     -0.2102
    116  CA        93.1960  257.4630  102.7300 C.3   177  PRO177      0.1504
    117  C         92.9540  258.9210  103.1080 C.2   177  PRO177      0.2576
    118  O         93.5720  259.8190  102.5410 O.2   177  PRO177     -0.2718
    119  CB        94.5660  256.9610  103.1850 C.3   177  PRO177      0.0282
    120  CG        95.4610  257.3870  102.0760 C.3   177  PRO177      0.0208
    121  CD        94.6460  257.0590  100.8340 C.3   177  PRO177      0.0893
    122  N         92.0450  259.1620  104.0450 N.am  178  SER178     -0.1938
    123  CA        91.7580  260.5210  104.4860 C.3   178  SER178      0.2055
    124  C         91.8120  260.5910  105.9990 C.2   178  SER178      0.2642
    125  O         91.6880  259.5770  106.6890 O.2   178  SER178     -0.2714
    126  CB        90.3660  260.9710  104.0240 C.3   178  SER178      0.2130
    127  OG        90.3300  261.2450  102.6350 O.3   178  SER178     -0.2179
    128  N         91.9930  261.8030  106.5060 N.am  179  VAL179     -0.1977
    129  CA        92.0340  262.0440  107.9410 C.3   179  VAL179      0.1596
    130  C         91.0750  263.1750  108.2640 C.2   179  VAL179      0.2287
    131  O         91.1910  264.2620  107.7170 O.2   179  VAL179     -0.2864
    132  CB        93.4440  262.4630  108.4120 C.3   179  VAL179      0.0276
    133  CG1       93.4160  262.8280  109.8850 C.3   179  VAL179      0.0022
    134  CG2       94.4160  261.3330  108.1860 C.3   179  VAL179      0.0022
    135  N        100.5210  260.5900  111.0280 N.3   190  VAL190     -0.1245
    136  CA       100.4160  259.2900  110.3800 C.3   190  VAL190      0.1561
    137  C        101.7510  258.8070  109.8710 C.2   190  VAL190      0.2260
    138  O        102.6770  259.5930  109.6920 O.2   190  VAL190     -0.2867
    139  CB        99.4720  259.3320  109.1700 C.3   190  VAL190      0.0252
    140  CG1       98.0810  259.7190  109.6000 C.3   190  VAL190      0.0019
    141  CG2      100.0010  260.3070  108.1500 C.3   190  VAL190      0.0019
    142  N        103.9210  256.9200  106.8650 N.3   192  VAL192     -0.1245
    143  CA       103.9040  256.7300  105.4290 C.3   192  VAL192      0.1561
    144  C        105.0460  255.8090  105.0350 C.2   192  VAL192      0.2260
    145  O        106.1730  255.9720  105.4960 O.2   192  VAL192     -0.2867
    146  CB       104.0660  258.0800  104.7120 C.3   192  VAL192      0.0252
    147  CG1      104.0790  257.8710  103.2180 C.3   192  VAL192      0.0019
    148  CG2      102.9360  259.0100  105.1180 C.3   192  VAL192      0.0019
    149  N        107.1630  254.7160   99.1070 N.3   195  MET195     -0.1245
    150  CA       106.2800  254.4830   97.9560 C.3   195  MET195      0.1570
    151  C        106.7720  254.5970   96.5070 C.2   195  MET195      0.2261
    152  O        105.9690  254.5050   95.5820 O.2   195  MET195     -0.2867
    153  CB       105.0500  255.3850   98.1090 C.3   195  MET195      0.0387
    154  CG       104.4850  255.4020   99.5150 C.3   195  MET195      0.0595
    155  SD       103.1630  256.5840   99.6620 S.3   195  MET195     -0.1393
    156  CE       104.1010  258.0870   99.9150 C.3   195  MET195      0.0692
    157  N        114.2870  257.0060   96.4110 N.3   201  TYR201     -0.1227
    158  CA       113.9580  258.3210   95.8750 C.3   201  TYR201      0.1736
    159  C        115.3410  258.8610   95.5230 C.2   201  TYR201      0.2595
    160  O        116.3480  258.3460   96.0170 O.2   201  TYR201     -0.2718
    161  CB       113.3610  259.2530   96.9440 C.3   201  TYR201      0.0548
    162  CG       112.0460  258.8370   97.5730 C.ar  201  TYR201     -0.0200
    163  CD1      110.9070  258.6130   96.7970 C.ar  201  TYR201     -0.0009
    164  CD2      111.9320  258.7030   98.9550 C.ar  201  TYR201     -0.0009
    165  CE1      109.6850  258.2640   97.3840 C.ar  201  TYR201      0.0417
    166  CE2      110.7180  258.3560   99.5510 C.ar  201  TYR201      0.0417
    167  CZ       109.6020  258.1360   98.7620 C.ar  201  TYR201      0.1957
    168  OH       108.4120  257.7740   99.3540 O.3   201  TYR201     -0.2866
    169  N        115.4100  259.8780   94.6750 N.am  202  GLN202     -0.1965
    170  CA       116.7010  260.4680   94.3520 C.3   202  GLN202      0.1733
    171  C        116.4870  261.9650   94.1970 C.2   202  GLN202      0.2616
    172  O        115.5960  262.4070   93.4730 O.2   202  GLN202     -0.2715
    173  CB       117.3100  259.8370   93.0860 C.3   202  GLN202      0.0408
    174  CG       116.6610  260.1940   91.7580 C.3   202  GLN202      0.0908
    175  CD       117.1670  259.3200   90.6170 C.2   202  GLN202      0.2608
    176  OE1      116.6910  258.2050   90.4160 O.2   202  GLN202     -0.2717
    177  NE2      118.1480  259.8190   89.8790 N.am  202  GLN202     -0.0878
    178  N        117.2850  262.7420   94.9160 N.am  203  TRP203     -0.1974
    179  CA       117.1600  264.1880   94.8850 C.3   203  TRP203      0.1640
    180  C        117.7670  264.7820   93.6340 C.2   203  TRP203      0.2290
    181  O        117.6240  265.9690   93.3800 O.2   203  TRP203     -0.2864
    182  CB       117.8280  264.7940   96.1170 C.3   203  TRP203      0.0576
    183  CG       117.3340  264.2020   97.3830 C.ar  203  TRP203      0.0006
    184  CD1      118.0230  263.3810   98.2240 C.ar  203  TRP203      0.0946
    185  CD2      116.0120  264.3130   97.9200 C.ar  203  TRP203      0.0152
    186  NE1      117.2090  262.9630   99.2510 N.ar  203  TRP203     -0.2442
    187  CE2      115.9680  263.5210   99.0880 C.ar  203  TRP203      0.0810
    188  CE3      114.8560  265.0020   97.5250 C.ar  203  TRP203      0.0012
    189  CZ2      114.8120  263.3980   99.8680 C.ar  203  TRP203      0.0191
    190  CZ3      113.7040  264.8800   98.3030 C.ar  203  TRP203      0.0001
    191  CH2      113.6930  264.0830   99.4590 C.ar  203  TRP203      0.0015
    192  N        109.9160  260.2530   91.9090 N.3   228  ASN228     -0.1240
    193  CA       109.9540  261.1080   93.0930 C.3   228  ASN228      0.1653
    194  C        108.6070  261.8030   93.3460 C.2   228  ASN228      0.2266
    195  O        108.3930  262.4040   94.4080 O.2   228  ASN228     -0.2867
    196  CB       111.0340  262.1850   92.9520 C.3   228  ASN228      0.1155
    197  CG       112.4470  261.6240   92.9400 C.2   228  ASN228      0.2627
    198  OD1      112.8010  260.7640   93.7460 O.2   228  ASN228     -0.2716
    199  ND2      113.2720  262.1390   92.0380 N.am  228  ASN228     -0.0877
    200  N        105.1700  261.5440   94.3940 N.3   230  MET230     -0.1245
    201  CA       104.2620  260.6670   95.1150 C.3   230  MET230      0.1570
    202  C        102.7960  261.0280   95.1230 C.2   230  MET230      0.2261
    203  O        101.9650  260.2390   95.5620 O.2   230  MET230     -0.2867
    204  CB       104.7610  260.4950   96.5440 C.3   230  MET230      0.0387
    205  CG       106.0810  259.7480   96.5970 C.3   230  MET230      0.0595
    206  SD       105.9710  258.1130   95.8220 S.3   230  MET230     -0.1393
    207  CE       106.4150  258.4550   94.1600 C.3   230  MET230      0.0692
    208  N         98.3880  266.2920   98.0900 N.3   233  PHE233     -0.1241
    209  CA        97.8340  266.3820   99.4310 C.3   233  PHE233      0.1605
    210  C         96.6950  267.3870   99.3220 C.2   233  PHE233      0.2264
    211  O         96.9300  268.5660   99.0590 O.2   233  PHE233     -0.2867
    212  CB        98.9010  266.8870  100.4120 C.3   233  PHE233      0.0534
    213  CG        98.3460  267.3840  101.7240 C.ar  233  PHE233     -0.0203
    214  CD1       97.8490  268.6800  101.8480 C.ar  233  PHE233     -0.0042
    215  CD2       98.3140  266.5550  102.8350 C.ar  233  PHE233     -0.0042
    216  CE1       97.3230  269.1460  103.0680 C.ar  233  PHE233     -0.0003
    217  CE2       97.7910  267.0080  104.0640 C.ar  233  PHE233     -0.0003
    218  CZ        97.2960  268.3060  104.1760 C.ar  233  PHE233     -0.0000
    219  N        107.6280  266.7660  108.4260 N.3   253  MET253     -0.1245
    220  CA       108.0390  265.4130  108.0750 C.3   253  MET253      0.1570
    221  C        109.1820  264.9020  108.9310 C.2   253  MET253      0.2261
    222  O        110.1870  265.5850  109.1200 O.2   253  MET253     -0.2867
    223  CB       108.4790  265.3320  106.6160 C.3   253  MET253      0.0387
    224  CG       109.0850  263.9850  106.2600 C.3   253  MET253      0.0595
    225  SD       109.7080  263.8870  104.5850 S.3   253  MET253     -0.1393
    226  CE       111.2530  264.7230  104.7420 C.3   253  MET253      0.0692
    227  N        112.2630  274.9790   93.4810 N.3   274  LYS274     -0.1231
    228  CA       112.1370  273.6290   93.9960 C.3   274  LYS274      0.1693
    229  C        112.7040  272.6090   93.0290 C.2   274  LYS274      0.2591
    230  O        113.4900  271.7460   93.3960 O.2   274  LYS274     -0.2718
    231  CB       110.6760  273.2750   94.2150 C.3   274  LYS274      0.0285
    232  CG       109.9040  274.1860   95.1060 C.3   274  LYS274      0.0035
    233  CD       108.5130  273.6340   95.2010 C.3   274  LYS274      0.0206
    234  CE       107.5720  274.6050   95.8360 C.3   274  LYS274      0.1093
    235  NZ       106.2200  274.0010   95.8700 N.3   274  LYS274     -0.1314
    236  N        112.2900  272.7240   91.7800 N.am  275  ALA275     -0.1980
    237  CA       112.6830  271.7780   90.7590 C.3   275  ALA275      0.1597
    238  C        114.1270  271.7420   90.2770 C.2   275  ALA275      0.2287
    239  O        114.5060  270.8010   89.5940 O.2   275  ALA275     -0.2864
    240  CB       111.7660  271.9350   89.5710 C.3   275  ALA275      0.0319
@<TRIPOS>BOND
     1   240   237    1
     2   239   238    2
     3   177   175   am
     4   238   237    1
     5   176   175    2
     6   175   174    1
     7   237   236    1
     8   174   173    1
     9   236   229   am
    10   192   193    1
    11   199   197   am
    12   197   196    1
    13   197   198    2
    14   196   193    1
    15   229   230    2
    16   229   228    1
    17   173   170    1
    18   193   194    1
    19   194   195    2
    20   181   180    2
    21   172   171    2
    22   227   228    1
    23   180   179    1
    24   228   231    1
    25   207   206    1
    26   171   170    1
    27   171   178   am
    28   231   232    1
    29   170   169    1
    30   200   201    1
    31    30    28   ar
    32   169   159   am
    33   179   178    1
    34   179   182    1
    35   232   233    1
    36   201   202    1
    37   201   204    1
    38   202   203    2
    39   233   234    1
    40   159   158    1
    41   159   160    2
    42   152   151    2
    43    28    27    1
    44    28    29   ar
    45   206   205    1
    46   234   235    1
    47   158   157    1
    48   158   161    1
    49    27    24    1
    50    44    43    1
    51   182   183    1
    52   151   150    1
    53   204   205    1
    54    18    17    2
    55    15    16    1
    56   163   165   ar
    57   163   162   ar
    58     3     4    2
    59     3     2    1
    60    45    43    1
    61   161   162    1
    62    43    40    1
    63     1     2    1
    64    17    23   am
    65    17    16    1
    66    24    23    1
    67    24    25    1
    68     2     5    1
    69   183   185   ar
    70   183   184   ar
    71   165   167   ar
    72   188   185   ar
    73   188   190   ar
    74   162   164   ar
    75    16    19    1
    76   103   102    1
    77   185   187   ar
    78   150   153    1
    79   150   149    1
    80    42    41    2
    81   208   209    1
    82    19    20    1
    83    19    21    1
    84   153   154    1
    85   184   186   ar
    86   114   112   ar
    87   114   113   ar
    88   190   191   ar
    89    40    41    1
    90    40    39    1
    91   112   110   ar
    92    25    26    2
    93    25    31   am
    94   107   106    2
    95    20    22    1
    96   106   105    1
    97    39    33   am
    98     7     6   ar
    99     7     9   ar
   100   167   168    1
   101   167   166   ar
   102     5     6    1
   103   113   111   ar
   104   164   166   ar
   105   102   101    1
   106   211   210    2
   107     6     8   ar
   108    31    32    1
   109   187   186   ar
   110   187   189   ar
   111     9    10   ar
   112   110   109   ar
   113   210   209    1
   114   209   212    1
   115   191   189   ar
   116   154   155    1
   117   155   156    1
   118   111   109   ar
   119     8    10   ar
   120     8    11   ar
   121    10    12   ar
   122   101   100    1
   123   109   108    1
   124    33    32    1
   125    33    34    2
   126   105   108    1
   127   105   104    1
   128    99    98    2
   129    32    35    1
   130    11    13   ar
   131   212   213    1
   132    12    14   ar
   133    36    35    1
   134    36    38    1
   135   100    97    1
   136   121   115    1
   137   121   120    1
   138    98   104   am
   139    98    97    1
   140    13    14   ar
   141    35    37    1
   142   115   116    1
   143    97    96    1
   144   213   214   ar
   145   213   215   ar
   146   214   216   ar
   147    55    56   ar
   148    55    53   ar
   149   120   119    1
   150    56    54   ar
   151    96    86   am
   152   118   117    2
   153   127   126    1
   154    46    47    1
   155   116   117    1
   156   116   119    1
   157    53    51   ar
   158   215   217   ar
   159   216   218   ar
   160    54    52   ar
   161   117   122   am
   162    49    48    2
   163   147   146    1
   164    51    52   ar
   165    51    50    1
   166    86    87    2
   167    86    85    1
   168    47    48    1
   169    47    50    1
   170   126   123    1
   171   122   123    1
   172   217   218   ar
   173    72    71   ar
   174    72    70   ar
   175   123   124    1
   176   225   226    1
   177   225   224    1
   178    85    84    1
   179    85    88    1
   180   146   148    1
   181   146   143    1
   182    71    69   ar
   183    70    68   ar
   184   144   143    1
   185   144   145    2
   186   143   142    1
   187    88    89    1
   188    69    67   ar
   189    68    67   ar
   190   124   128   am
   191   124   125    2
   192    61    58    1
   193    90    89   ar
   194    90    92   ar
   195   224   223    1
   196    67    66    1
   197    81    83   ar
   198    81    79   ar
   199   128   129    1
   200    89    91   ar
   201    83    82   ar
   202   223   220    1
   203    57    58    1
   204    92    94   ar
   205    58    59    1
   206    79    78   ar
   207    66    63    1
   208    82    80   ar
   209   131   130    2
   210    91    93   ar
   211   129   130    1
   212   129   132    1
   213    60    59    2
   214   220   219    1
   215   220   221    1
   216   141   139    1
   217   134   132    1
   218   132   133    1
   219    94    93   ar
   220    94    95    1
   221    78    80   ar
   222    78    77    1
   223    63    62    1
   224    63    64    1
   225   221   222    2
   226   139   140    1
   227   139   136    1
   228    77    74    1
   229   138   137    2
   230   137   136    1
   231    64    65    2
   232    74    73    1
   233    74    75    1
   234   136   135    1
   235    75    76    2
