@<TRIPOS>MOLECULE
tmp/4ce0A00.pdb
 203 198 0 0 0
SMALL
GASTEIGER

@<TRIPOS>ATOM
      1  N         24.3360   51.5940   24.3900 N.3    26  HIS26      -0.1226
      2  CA        25.7160   51.1210   24.4790 C.3    26  HIS26       0.1752
      3  C         26.2680   50.6210   23.1570 C.2    26  HIS26       0.2597
      4  O         27.4780   50.3860   23.0170 O.2    26  HIS26      -0.2718
      5  CB        25.8350   50.0500   25.5460 C.3    26  HIS26       0.0759
      6  CG        25.7220   50.5890   26.9370 C.ar   26  HIS26       0.0818
      7  ND1       25.1610   49.8730   27.9790 N.ar   26  HIS26      -0.2268
      8  CD2       26.0650   51.7910   27.4590 C.ar   26  HIS26       0.1154
      9  CE1       25.1930   50.6000   29.0780 C.ar   26  HIS26       0.1986
     10  NE2       25.7270   51.7800   28.7840 N.ar   26  HIS26      -0.2212
     11  N         25.3870   50.4720   22.1870 N.am   27  THR27      -0.1939
     12  CA        25.8140   50.2470   20.8130 C.3    27  THR27       0.2028
     13  C         24.9920   51.0810   19.8550 C.2    27  THR27       0.2642
     14  O         23.8280   51.3760   20.1250 O.2    27  THR27      -0.2714
     15  CB        25.6950   48.7520   20.3890 C.3    27  THR27       0.1808
     16  OG1       26.2790   48.5910   19.0970 O.3    27  THR27      -0.2208
     17  CG2       24.2430   48.2920   20.3320 C.3    27  THR27       0.0379
     18  N         25.6180   51.4290   18.7260 N.am   28  MET28      -0.1962
     19  CA        24.9930   52.1990   17.6820 C.3    28  MET28       0.1736
     20  C         24.5970   51.3060   16.4940 C.2    28  MET28       0.2616
     21  O         23.9630   51.7720   15.5360 O.2    28  MET28      -0.2715
     22  CB        25.9170   53.3560   17.2540 C.3    28  MET28       0.0427
     23  CG        27.1100   52.9610   16.3860 C.3    28  MET28       0.0599
     24  SD        28.0330   54.3890   15.7720 S.3    28  MET28      -0.1393
     25  CE        28.7940   55.0670   17.2480 C.3    28  MET28       0.0692
     26  N         24.9110   50.0070   16.5600 N.am   29  ILE29      -0.1977
     27  CA        24.7140   49.1740   15.3700 C.3    29  ILE29       0.1596
     28  C         23.2980   48.6980   15.0630 C.2    29  ILE29       0.2287
     29  O         23.0730   48.1750   13.9750 O.2    29  ILE29      -0.2864
     30  CB        25.6950   47.9500   15.3170 C.3    29  ILE29       0.0276
     31  CG1       25.2890   46.8790   16.3130 C.3    29  ILE29       0.0022
     32  CG2       27.1070   48.4280   15.5080 C.3    29  ILE29       0.0022
     33  CD1       26.1050   45.5660   16.2250 C.3    29  ILE29       0.0001
     34  N         36.5650   42.8380   18.4590 N.3    55  GLU55      -0.1245
     35  CA        36.0120   43.9880   17.7340 C.3    55  GLU55       0.1567
     36  C         36.9790   45.1620   17.7400 C.2    55  GLU55       0.2260
     37  O         37.4450   45.6200   18.7920 O.2    55  GLU55      -0.2867
     38  CB        34.6240   44.4390   18.2310 C.3    55  GLU55       0.0388
     39  CG        33.9780   45.5320   17.2840 C.3    55  GLU55       0.1160
     40  CD        32.7340   46.1790   17.8360 C.2    55  GLU55       0.3649
     41  OE1       32.7200   46.4640   19.0650 O.co2  55  GLU55      -0.2457
     42  OE2       31.7730   46.4190   17.0460 O.co2  55  GLU55      -0.2457
     43  N         37.0020   48.7140   17.1170 N.3    57  GLY57      -0.1210
     44  CA        36.0750   49.8390   17.1190 C.3    57  GLY57       0.1956
     45  C         34.8470   49.4830   17.9530 C.2    57  GLY57       0.2612
     46  O         33.9220   48.8260   17.4500 O.2    57  GLY57      -0.2717
     47  N         34.8570   49.9090   19.2190 N.am   58  VAL58      -0.1965
     48  CA        33.8810   49.4610   20.2170 C.3    58  VAL58       0.1727
     49  C         32.9710   50.5540   20.7800 C.2    58  VAL58       0.2616
     50  O         31.8890   50.2440   21.2770 O.2    58  VAL58      -0.2715
     51  CB        34.5870   48.7090   21.3780 C.3    58  VAL58       0.0290
     52  CG1       35.6170   47.7820   20.8150 C.3    58  VAL58       0.0023
     53  CG2       35.2220   49.6750   22.4360 C.3    58  VAL58       0.0023
     54  N         33.3780   51.8220   20.6500 N.am   59  TRP59      -0.1974
     55  CA        32.6080   52.9500   21.1880 C.3    59  TRP59       0.1640
     56  C         32.2650   52.6450   22.6360 C.2    59  TRP59       0.2290
     57  O         33.1760   52.4640   23.4570 O.2    59  TRP59      -0.2864
     58  CB        31.3670   53.2220   20.3460 C.3    59  TRP59       0.0576
     59  CG        30.6450   54.4900   20.6210 C.ar   59  TRP59       0.0006
     60  CD1       31.2000   55.7300   20.7480 C.ar   59  TRP59       0.0946
     61  CD2       29.2190   54.6740   20.7260 C.ar   59  TRP59       0.0152
     62  NE1       30.2140   56.6680   20.9660 N.ar   59  TRP59      -0.2442
     63  CE2       28.9960   56.0500   20.9580 C.ar   59  TRP59       0.0810
     64  CE3       28.1220   53.8120   20.6680 C.ar   59  TRP59       0.0012
     65  CZ2       27.7140   56.5800   21.1400 C.ar   59  TRP59       0.0191
     66  CZ3       26.8450   54.3410   20.8650 C.ar   59  TRP59       0.0001
     67  CH2       26.6590   55.7100   21.1120 C.ar   59  TRP59       0.0015
     68  N         28.5180   46.1090   21.3750 N.3    63  ALA63      -0.1245
     69  CA        28.6750   44.9220   20.5440 C.3    63  ALA63       0.1562
     70  C         29.5540   43.8910   21.2330 C.2    63  ALA63       0.2260
     71  O         29.3020   42.7000   21.1640 O.2    63  ALA63      -0.2867
     72  CB        29.2480   45.2940   19.1990 C.3    63  ALA63       0.0290
     73  N         40.3200   49.2310   20.8660 N.3    85  ASP85      -0.1225
     74  CA        39.9470   50.5890   20.5480 C.3    85  ASP85       0.1805
     75  C         41.0380   51.5540   20.9840 C.2    85  ASP85       0.2598
     76  O         41.9300   51.1920   21.7600 O.2    85  ASP85      -0.2718
     77  CB        38.6430   50.9320   21.2670 C.3    85  ASP85       0.1424
     78  CG        37.9240   52.1090   20.6310 C.2    85  ASP85       0.3668
     79  OD1       38.3310   53.2700   20.8750 O.co2  85  ASP85      -0.2456
     80  OD2       36.9380   51.8730   19.9090 O.co2  85  ASP85      -0.2456
     81  N         40.9680   52.7910   20.5030 N.am   86  SER86      -0.1952
     82  CA        41.8150   53.8500   21.0690 C.3    86  SER86       0.1924
     83  C         41.2990   54.2800   22.4470 C.2    86  SER86       0.2314
     84  O         42.0750   54.6780   23.3020 O.2    86  SER86      -0.2863
     85  CB        41.8080   55.0740   20.1720 C.3    86  SER86       0.2116
     86  OG        40.5030   55.5950   20.1410 O.3    86  SER86      -0.2180
     87  N         38.3560   57.8760   20.7200 N.3    89  GLY89      -0.1210
     88  CA        37.6670   58.2180   19.4880 C.3    89  GLY89       0.1956
     89  C         38.5710   58.0750   18.2820 C.2    89  GLY89       0.2612
     90  O         39.5980   57.3820   18.3380 O.2    89  GLY89      -0.2717
     91  N         38.1750   58.7420   17.2030 N.am   90  MET90      -0.1965
     92  CA        38.8080   58.6200   15.8870 C.3    90  MET90       0.1721
     93  C         40.1310   59.3910   15.8290 C.2    90  MET90       0.2458
     94  O         40.2600   60.4290   16.4600 O.2    90  MET90      -0.2730
     95  CB        37.8870   59.2080   14.8250 C.3    90  MET90       0.0427
     96  CG        36.4130   58.8630   14.9980 C.3    90  MET90       0.0599
     97  SD        36.0120   57.1080   14.8240 S.3    90  MET90      -0.1393
     98  CE        36.5640   56.7540   13.1600 C.3    90  MET90       0.0692
     99  N         41.1010   58.8940   15.0490 N.am   91  PRO91      -0.2727
    100  CA        42.3420   59.6520   14.8050 C.3    91  PRO91       0.1402
    101  C         42.1430   60.8150   13.8120 C.2    91  PRO91       0.2269
    102  O         41.0690   60.9140   13.2100 O.2    91  PRO91      -0.2865
    103  CB        43.2820   58.5950   14.2100 C.3    91  PRO91       0.0296
    104  CG        42.3620   57.6100   13.5270 C.3    91  PRO91       0.0237
    105  CD        41.0910   57.5900   14.3520 C.3    91  PRO91       0.0939
    106  N         32.5670   60.2930   19.9230 N.3   103  LEU103     -0.1245
    107  CA        32.8650   58.8990   19.6630 C.3   103  LEU103      0.1561
    108  C         33.9920   58.4310   20.5780 C.2   103  LEU103      0.2260
    109  O         34.3950   57.2580   20.5450 O.2   103  LEU103     -0.2867
    110  CB        33.2950   58.7560   18.2170 C.3   103  LEU103      0.0270
    111  CG        32.1720   59.1280   17.2600 C.3   103  LEU103      0.0019
    112  CD1       32.7440   59.5400   15.8990 C.3   103  LEU103      0.0001
    113  CD2       31.2660   57.9450   17.1470 C.3   103  LEU103      0.0001
    114  N         35.1440   57.3770   23.9760 N.3   105  VAL105     -0.1245
    115  CA        34.6620   56.7980   25.2210 C.3   105  VAL105      0.1561
    116  C         35.8260   56.0980   25.9090 C.2   105  VAL105      0.2260
    117  O         36.4150   55.1420   25.3610 O.2   105  VAL105     -0.2867
    118  CB        33.5250   55.8010   24.9490 C.3   105  VAL105      0.0252
    119  CG1       32.9620   55.2190   26.2720 C.3   105  VAL105      0.0019
    120  CG2       32.4300   56.4580   24.1140 C.3   105  VAL105      0.0019
    121  N         44.7540   51.5910   22.3550 N.3   129  GLY129     -0.1210
    122  CA        45.7740   52.2400   21.5540 C.3   129  GLY129      0.1956
    123  C         45.2440   52.4510   20.1640 C.2   129  GLY129      0.2612
    124  O         44.1480   51.9870   19.8380 O.2   129  GLY129     -0.2717
    125  N         45.9930   53.1860   19.3520 N.am  130  TRP130     -0.1962
    126  CA        45.6880   53.2820   17.9350 C.3   130  TRP130      0.1771
    127  C         46.0220   51.9440   17.3090 C.2   130  TRP130      0.2620
    128  O         47.0390   51.3500   17.6330 O.2   130  TRP130     -0.2715
    129  CB        46.4830   54.4370   17.3050 C.3   130  TRP130      0.0590
    130  CG        46.2250   55.7050   18.0460 C.ar  130  TRP130      0.0006
    131  CD1       47.0550   56.3350   18.9330 C.ar  130  TRP130      0.0946
    132  CD2       45.0200   56.4700   18.0110 C.ar  130  TRP130      0.0152
    133  NE1       46.4410   57.4540   19.4390 N.ar  130  TRP130     -0.2442
    134  CE2       45.1930   57.5660   18.8790 C.ar  130  TRP130      0.0810
    135  CE3       43.8090   56.3420   17.3200 C.ar  130  TRP130      0.0012
    136  CZ2       44.2010   58.5290   19.0690 C.ar  130  TRP130      0.0191
    137  CZ3       42.8320   57.3010   17.5090 C.ar  130  TRP130      0.0001
    138  CH2       43.0290   58.3730   18.3810 C.ar  130  TRP130      0.0015
    139  N         45.1480   51.4560   16.4330 N.am  131  PHE131     -0.1960
    140  CA        45.3640   50.1600   15.7710 C.3   131  PHE131      0.1771
    141  C         46.7770   50.0020   15.1590 C.2   131  PHE131      0.2619
    142  O         47.4150   48.9400   15.2470 O.2   131  PHE131     -0.2715
    143  CB        44.3280   49.9690   14.6670 C.3   131  PHE131      0.0574
    144  CG        42.9100   49.9310   15.1620 C.ar  131  PHE131     -0.0200
    145  CD1       42.6170   49.6310   16.4900 C.ar  131  PHE131     -0.0042
    146  CD2       41.8660   50.2220   14.2960 C.ar  131  PHE131     -0.0042
    147  CE1       41.2900   49.5950   16.9390 C.ar  131  PHE131     -0.0003
    148  CE2       40.5430   50.2030   14.7300 C.ar  131  PHE131     -0.0003
    149  CZ        40.2470   49.8830   16.0570 C.ar  131  PHE131     -0.0000
    150  N         47.2650   51.0580   14.5440 N.am  132  ARG132     -0.1977
    151  CA        48.5940   50.9930   13.9180 C.3   132  ARG132      0.1597
    152  C         49.7160   50.7110   14.9400 C.2   132  ARG132      0.2287
    153  O         50.7390   50.1080   14.6110 O.2   132  ARG132     -0.2864
    154  CB        48.8780   52.2510   13.0980 C.3   132  ARG132      0.0334
    155  CG        48.9580   53.5700   13.8580 C.3   132  ARG132      0.0492
    156  CD        49.3650   54.6980   12.8920 C.3   132  ARG132      0.2205
    157  NE        50.3270   55.6460   13.4550 N.pl3 132  ARG132     -0.0865
    158  CZ        50.8170   56.6950   12.7880 C.cat 132  ARG132      0.5346
    159  NH1       50.4210   56.9360   11.5400 N.pl3 132  ARG132      0.1354
    160  NH2       51.7040   57.5080   13.3690 N.pl3 132  ARG132      0.1354
    161  N         34.6460   47.7610   13.0060 N.3   149  ASP149     -0.1225
    162  CA        33.7280   48.8690   13.1170 C.3   149  ASP149      0.1805
    163  C         34.5300   50.1170   13.3970 C.2   149  ASP149      0.2598
    164  O         34.1890   50.9060   14.2620 O.2   149  ASP149     -0.2718
    165  CB        32.6790   48.6000   14.2060 C.3   149  ASP149      0.1424
    166  CG        31.3960   49.4010   14.0020 C.2   149  ASP149      0.3668
    167  OD1       31.3840   50.3010   13.1080 O.co2 149  ASP149     -0.2456
    168  OD2       30.3930   49.1240   14.7250 O.co2 149  ASP149     -0.2456
    169  N         35.6490   50.2430   12.6980 N.am  150  GLY150     -0.1942
    170  CA        36.3150   51.5240   12.5240 C.3   150  GLY150      0.2014
    171  C         35.8870   51.9740   11.1420 C.2   150  GLY150      0.2638
    172  O         35.9260   51.2000   10.1850 O.2   150  GLY150     -0.2714
    173  N         35.4350   53.2080   11.0230 N.am  151  ASP151     -0.1971
    174  CA        34.9070   53.6770    9.7530 C.3   151  ASP151      0.1709
    175  C         35.9820   53.9640    8.6960 C.2   151  ASP151      0.2293
    176  O         35.7460   53.8120    7.5010 O.2   151  ASP151     -0.2864
    177  CB        34.0980   54.9370   10.0060 C.3   151  ASP151      0.1436
    178  CG        32.8590   54.6630   10.8400 C.2   151  ASP151      0.3671
    179  OD1       32.0750   53.7620   10.4530 O.co2 151  ASP151     -0.2456
    180  OD2       32.6830   55.3210   11.8870 O.co2 151  ASP151     -0.2456
    181  N         42.0660   53.5720    6.8860 N.3   154  GLU154     -0.1231
    182  CA        43.2430   53.1080    7.6400 C.3   154  GLU154      0.1699
    183  C         42.9060   52.1400    8.7850 C.2   154  GLU154      0.2592
    184  O         43.6280   51.1540    9.0110 O.2   154  GLU154     -0.2718
    185  CB        44.0280   54.2950    8.2060 C.3   154  GLU154      0.0402
    186  CG        44.6530   55.1830    7.1290 C.3   154  GLU154      0.1161
    187  CD        45.6350   54.4450    6.2200 C.2   154  GLU154      0.3649
    188  OE1       46.4090   53.5890    6.7170 O.co2 154  GLU154     -0.2457
    189  OE2       45.6310   54.7360    5.0010 O.co2 154  GLU154     -0.2457
    190  N         41.8330   52.4450    9.5120 N.am  155  SER155     -0.1952
    191  CA        41.3850   51.6220   10.6280 C.3   155  SER155      0.1924
    192  C         41.0110   50.2300   10.1280 C.2   155  SER155      0.2314
    193  O         41.4350   49.2110   10.6860 O.2   155  SER155     -0.2863
    194  CB        40.1660   52.2610   11.2930 C.3   155  SER155      0.2116
    195  OG        40.4680   53.5620   11.7690 O.3   155  SER155     -0.2180
    196  N         44.2740   48.4170    8.7350 N.3   158  ASP158     -0.1239
    197  CA        45.1560   47.9950    9.8370 C.3   158  ASP158      0.1674
    198  C         44.5940   46.7980   10.5910 C.2   158  ASP158      0.2266
    199  O         45.3450   45.9220   11.0300 O.2   158  ASP158     -0.2867
    200  CB        45.3950   49.1500   10.8150 C.3   158  ASP158      0.1410
    201  CG        46.3230   50.2100   10.2480 C.2   158  ASP158      0.3668
    202  OD1       47.1830   49.8540    9.4020 O.co2 158  ASP158     -0.2456
    203  OD2       46.1840   51.3920   10.6420 O.co2 158  ASP158     -0.2456
@<TRIPOS>BOND
     1   189   187   ar
     2   187   188   ar
     3   187   186    1
     4   181   182    1
     5   186   185    1
     6   176   175    2
     7   182   185    1
     8   182   183    1
     9   175   174    1
    10   196   197    1
    11   183   184    2
    12   183   190   am
    13   202   201   ar
    14   190   191    1
    15   174   177    1
    16   174   173    1
    17   197   198    1
    18   197   200    1
    19   177   178    1
    20   192   191    1
    21   192   193    2
    22   172   171    2
    23   201   203   ar
    24   201   200    1
    25   179   178   ar
    26   198   199    2
    27   191   194    1
    28   178   180   ar
    29   173   171   am
    30   171   170    1
    31   194   195    1
    32   159   158    1
    33   170   169    1
    34   169   163   am
    35   158   160    1
    36   158   157    2
    37   156   157    1
    38   156   155    1
    39   161   162    1
    40   154   155    1
    41   154   151    1
    42   167   166   ar
    43   162   163    1
    44   162   165    1
    45    98    97    1
    46   102   101    2
    47   163   164    2
    48   104   103    1
    49   104   105    1
    50   101   100    1
    51   151   150    1
    52   151   152    1
    53    29    28    2
    54   166   165    1
    55   166   168   ar
    56   103   100    1
    57   146   148   ar
    58   146   144   ar
    59   105    99    1
    60   150   141   am
    61   153   152    2
    62   143   144    1
    63   143   140    1
    64   148   149   ar
    65   100    99    1
    66    97    96    1
    67    95    96    1
    68    95    92    1
    69    99    93   am
    70    28    27    1
    71   141   142    2
    72   141   140    1
    73   144   145   ar
    74    30    27    1
    75    30    32    1
    76    30    31    1
    77    27    26    1
    78    21    20    2
    79   140   139    1
    80    24    23    1
    81    24    25    1
    82    93    92    1
    83    93    94    2
    84    92    91    1
    85   112   111    1
    86   149   147   ar
    87    33    31    1
    88    23    22    1
    89   139   127   am
    90   145   147   ar
    91    20    26   am
    92    20    19    1
    93    42    40   ar
    94    43    44    1
    95    44    45    1
    96   113   111    1
    97    91    89   am
    98    22    19    1
    99   111   110    1
   100    39    40    1
   101    39    38    1
   102   129   126    1
   103   129   130    1
   104   127   128    2
   105   127   126    1
   106   135   137   ar
   107   135   132   ar
   108    46    45    2
   109   137   138   ar
   110    19    18    1
   111    35    36    1
   112    35    38    1
   113    35    34    1
   114    36    37    2
   115    40    41   ar
   116   126   125    1
   117    45    47   am
   118   132   130   ar
   119   132   134   ar
   120   130   131   ar
   121   110   107    1
   122    89    90    2
   123    89    88    1
   124   138   136   ar
   125    18    13   am
   126   134   136   ar
   127   134   133   ar
   128   131   133   ar
   129    16    15    1
   130    72    69    1
   131    47    48    1
   132   125   123   am
   133    88    87    1
   134   107   106    1
   135   107   108    1
   136   124   123    2
   137    13    14    2
   138    13    12    1
   139    80    78   ar
   140    86    85    1
   141   123   122    1
   142    85    82    1
   143    48    49    1
   144    48    51    1
   145    17    15    1
   146    58    59    1
   147    58    55    1
   148    15    12    1
   149    81    75   am
   150    81    82    1
   151    69    70    1
   152    69    68    1
   153   109   108    2
   154    74    73    1
   155    74    75    1
   156    74    77    1
   157    59    61   ar
   158    59    60   ar
   159    78    79   ar
   160    78    77    1
   161    54    49   am
   162    54    55    1
   163    64    61   ar
   164    64    66   ar
   165    61    63   ar
   166    60    62   ar
   167    49    50    2
   168    12    11    1
   169    52    51    1
   170    66    67   ar
   171    63    62   ar
   172    63    65   ar
   173    75    76    2
   174    82    83    1
   175    67    65   ar
   176    71    70    2
   177    55    56    1
   178    51    53    1
   179   122   121    1
   180    11     3   am
   181    83    84    2
   182    56    57    2
   183     4     3    2
   184     3     2    1
   185   114   115    1
   186   120   118    1
   187     1     2    1
   188     2     5    1
   189   118   115    1
   190   118   119    1
   191   115   116    1
   192   117   116    2
   193     5     6    1
   194     6     8   ar
   195     6     7   ar
   196     8    10   ar
   197     7     9   ar
   198    10     9   ar
