@<TRIPOS>MOLECULE
tmp/4ce1A00.pdb
 141 128 0 0 0
SMALL
GASTEIGER

@<TRIPOS>ATOM
      1  N         16.9460  -11.2540    0.0320 N.3    34  LEU34      -0.1245
      2  CA        18.0560  -10.4000   -0.4490 C.3    34  LEU34       0.1561
      3  C         18.6510  -10.9300   -1.7430 C.2    34  LEU34       0.2260
      4  O         18.9900  -10.1650   -2.6030 O.2    34  LEU34      -0.2867
      5  CB        19.1020  -10.2120    0.6640 C.3    34  LEU34       0.0270
      6  CG        18.5320   -9.6000    1.9300 C.3    34  LEU34       0.0019
      7  CD1       19.6290   -9.4690    2.9930 C.3    34  LEU34       0.0001
      8  CD2       17.8040   -8.2730    1.5930 C.3    34  LEU34       0.0001
      9  N         16.1030   -9.7510   -4.4670 N.3    37  ASN37      -0.1225
     10  CA        16.3410   -8.3260   -4.7970 C.3    37  ASN37       0.1785
     11  C         17.5580   -8.1560   -5.6150 C.2    37  ASN37       0.2597
     12  O         17.6040   -7.3180   -6.5200 O.2    37  ASN37      -0.2718
     13  CB        16.5110   -7.5080   -3.4800 C.3    37  ASN37       0.1169
     14  CG        15.2040   -7.3460   -2.7670 C.2    37  ASN37       0.2627
     15  OD1       14.2210   -7.8430   -3.2620 O.2    37  ASN37      -0.2716
     16  ND2       15.1830   -6.6870   -1.6000 N.am   37  ASN37      -0.0877
     17  N         18.5890   -8.9750   -5.2930 N.am   38  ALA38      -0.1979
     18  CA        19.8320   -8.9250   -6.0500 C.3    38  ALA38       0.1597
     19  C         19.5330   -9.4150   -7.4610 C.2    38  ALA38       0.2287
     20  O         19.9730   -8.8240   -8.4650 O.2    38  ALA38      -0.2864
     21  CB        20.9310   -9.8080   -5.3660 C.3    38  ALA38       0.0319
     22  N         16.6550   -9.3450   -9.0800 N.3    40  ASP40      -0.1225
     23  CA        15.8880   -8.2730   -9.7670 C.3    40  ASP40       0.1805
     24  C         16.7750   -7.1610  -10.2670 C.2    40  ASP40       0.2597
     25  O         16.5900   -6.6880  -11.3610 O.2    40  ASP40      -0.2718
     26  CB        14.8200   -7.7020   -8.8430 C.3    40  ASP40       0.1424
     27  CG        13.7650   -8.7400   -8.4700 C.2    40  ASP40       0.3668
     28  OD1       13.6210   -9.7250   -9.2650 O.co2  40  ASP40      -0.2456
     29  OD2       13.1240   -8.6230   -7.3580 O.co2  40  ASP40      -0.2456
     30  N         17.7820   -6.7340   -9.4760 N.am   41  ALA41      -0.1979
     31  CA        18.6360   -5.6600   -9.9360 C.3    41  ALA41       0.1597
     32  C         19.4950   -6.0870  -11.0640 C.2    41  ALA41       0.2287
     33  O         19.8630   -5.2680  -11.9680 O.2    41  ALA41      -0.2864
     34  CB        19.5400   -5.1310   -8.7900 C.3    41  ALA41       0.0319
     35  N         17.2830   -5.9850  -14.1730 N.3    44  LYS44      -0.1245
     36  CA        17.0890   -4.5980  -14.6840 C.3    44  LYS44       0.1561
     37  C         18.2780   -4.0950  -15.4150 C.2    44  LYS44       0.2260
     38  O         18.1200   -3.4770  -16.4480 O.2    44  LYS44      -0.2867
     39  CB        16.7010   -3.6030  -13.5710 C.3    44  LYS44       0.0271
     40  CG        15.3620   -3.9560  -12.9580 C.3    44  LYS44       0.0035
     41  CD        15.1100   -3.2000  -11.6980 C.3    44  LYS44       0.0206
     42  CE        13.6700   -2.7290  -11.7850 C.3    44  LYS44       0.1093
     43  NZ        12.7580   -3.8270  -11.3290 N.3    44  LYS44      -0.1314
     44  N         26.1410   -8.9980    1.1360 N.3    77  ILE77      -0.1245
     45  CA        25.5240   -9.5960   -0.0640 C.3    77  ILE77       0.1561
     46  C         25.6690   -8.5640   -1.1380 C.2    77  ILE77       0.2260
     47  O         25.0590   -7.4770   -1.0720 O.2    77  ILE77      -0.2867
     48  CB        24.0320   -9.9200    0.0840 C.3    77  ILE77       0.0252
     49  CG1       23.7530  -10.9250    1.2070 C.3    77  ILE77       0.0019
     50  CG2       23.5330  -10.5560   -1.2290 C.3    77  ILE77       0.0019
     51  CD1       23.5630  -10.3240    2.5610 C.3    77  ILE77       0.0001
     52  N         25.6740   -7.5400   -5.3710 N.3    79  ASP79      -0.1239
     53  CA        25.3300   -7.8840   -6.7540 C.3    79  ASP79       0.1674
     54  C         25.9220   -6.8230   -7.6580 C.2    79  ASP79       0.2266
     55  O         26.1910   -5.6750   -7.2090 O.2    79  ASP79      -0.2867
     56  CB        23.7870   -8.0030   -6.9550 C.3    79  ASP79       0.1410
     57  CG        23.0690   -6.6980   -6.6810 C.2    79  ASP79       0.3668
     58  OD1       23.1980   -5.7500   -7.4510 O.co2  79  ASP79      -0.2456
     59  OD2       22.4660   -6.5620   -5.6260 O.co2  79  ASP79      -0.2456
     60  N         21.7620   -3.0530  -11.2080 N.3    82  ILE82      -0.1231
     61  CA        21.6580   -1.6890  -11.7520 C.3    82  ILE82       0.1692
     62  C         22.1300   -0.6290  -10.7360 C.2    82  ILE82       0.2593
     63  O         22.5210    0.4830  -11.1520 O.2    82  ILE82      -0.2718
     64  CB        20.1790   -1.4130  -12.2110 C.3    82  ILE82       0.0266
     65  CG1       20.0160   -0.0920  -12.9630 C.3    82  ILE82       0.0019
     66  CG2       19.1730   -1.4900  -11.0760 C.3    82  ILE82       0.0020
     67  CD1       18.6890   -0.0930  -13.7440 C.3    82  ILE82       0.0001
     68  N         22.1070   -0.9650   -9.4270 N.am   83  GLY83      -0.1942
     69  CA        22.5570    0.0350   -8.3670 C.3    83  GLY83       0.2014
     70  C         21.4880    1.1370   -8.2140 C.2    83  GLY83       0.2638
     71  O         20.5060    1.1700   -8.9910 O.2    83  GLY83      -0.2714
     72  N         21.6550    1.9980   -7.2080 N.am   84  MET84      -0.1976
     73  CA        20.7540    3.1080   -6.9190 C.3    84  MET84       0.1605
     74  C         21.5980    4.3760   -6.7840 C.2    84  MET84       0.2287
     75  O         22.6530    4.3630   -6.1280 O.2    84  MET84      -0.2864
     76  CB        19.9830    2.8400   -5.6030 C.3    84  MET84       0.0413
     77  CG        18.9760    1.6350   -5.7030 C.3    84  MET84       0.0598
     78  SD        18.3350    1.2920   -4.1000 S.3    84  MET84      -0.1393
     79  CE        19.6240    0.1820   -3.4930 C.3    84  MET84       0.0692
     80  N         17.6310    7.7490   -5.5350 N.3    88  GLU88      -0.1245
     81  CA        16.9960    6.4200   -5.4130 C.3    88  GLU88       0.1567
     82  C         17.1020    5.7660   -4.0810 C.2    88  GLU88       0.2260
     83  O         16.1410    5.1510   -3.6440 O.2    88  GLU88      -0.2867
     84  CB        17.4460    5.4520   -6.4750 C.3    88  GLU88       0.0388
     85  CG        16.9720    5.8980   -7.8220 C.3    88  GLU88       0.1160
     86  CD        17.6660    5.2150   -8.9630 C.2    88  GLU88       0.3649
     87  OE1       18.8350    4.7470   -8.8740 O.co2  88  GLU88      -0.2457
     88  OE2       17.0270    5.1790  -10.0230 O.co2  88  GLU88      -0.2457
     89  N         13.6290    4.9420   -2.4990 N.3    92  ASN92      -0.1225
     90  CA        13.3210    3.5190   -2.4470 C.3    92  ASN92       0.1785
     91  C         13.4410    2.8560   -1.1040 C.2    92  ASN92       0.2597
     92  O         12.7670    1.8810   -0.8620 O.2    92  ASN92      -0.2718
     93  CB        14.3000    2.7280   -3.3350 C.3    92  ASN92       0.1169
     94  CG        14.0520    2.9070   -4.8040 C.2    92  ASN92       0.2627
     95  OD1       13.1620    3.6300   -5.2190 O.2    92  ASN92      -0.2716
     96  ND2       14.8800    2.2610   -5.6080 N.am   92  ASN92      -0.0877
     97  N         14.3660    3.3150   -0.2610 N.am   93  LEU93      -0.1980
     98  CA        14.5550    2.7130    1.0510 C.3    93  LEU93       0.1596
     99  C         14.0890    3.6570    2.1580 C.2    93  LEU93       0.2287
    100  O         14.8860    4.0800    2.9710 O.2    93  LEU93      -0.2864
    101  CB        16.0420    2.4120    1.2820 C.3    93  LEU93       0.0297
    102  CG        16.7940    1.6100    0.1870 C.3    93  LEU93       0.0022
    103  CD1       18.2460    1.4010    0.6220 C.3    93  LEU93       0.0001
    104  CD2       16.0780    0.2990   -0.0260 C.3    93  LEU93       0.0001
    105  N          6.1300   -6.8480   -1.5240 N.3   121  GLY121     -0.1225
    106  CA         7.1500   -5.9180   -2.0720 C.3   121  GLY121      0.1811
    107  C          8.0330   -5.2850   -0.9950 C.2   121  GLY121      0.2280
    108  O          8.7350   -4.3310   -1.2570 O.2   121  GLY121     -0.2866
    109  N         13.0760   -6.5730    1.5340 N.3   124  PHE124     -0.1241
    110  CA        14.2770   -5.8610    2.0820 C.3   124  PHE124      0.1605
    111  C         14.3130   -5.7660    3.5900 C.2   124  PHE124      0.2264
    112  O         15.3250   -6.0970    4.2250 O.2   124  PHE124     -0.2867
    113  CB        14.4470   -4.4720    1.3980 C.3   124  PHE124      0.0534
    114  CG        15.5030   -3.6090    2.0530 C.ar  124  PHE124     -0.0203
    115  CD1       16.8720   -3.8710    1.8670 C.ar  124  PHE124     -0.0042
    116  CD2       15.1320   -2.5660    2.8990 C.ar  124  PHE124     -0.0042
    117  CE1       17.8580   -3.0730    2.5140 C.ar  124  PHE124     -0.0003
    118  CE2       16.1170   -1.7680    3.5340 C.ar  124  PHE124     -0.0003
    119  CZ        17.4770   -2.0150    3.3330 C.ar  124  PHE124     -0.0000
    120  N         23.6110    0.0030    3.1150 N.3   136  VAL136     -0.1245
    121  CA        23.4130   -0.3510    1.7390 C.3   136  VAL136      0.1561
    122  C         24.4050    0.5390    0.9870 C.2   136  VAL136      0.2260
    123  O         24.3400    1.7600    1.0770 O.2   136  VAL136     -0.2867
    124  CB        21.9520   -0.1350    1.2890 C.3   136  VAL136      0.0252
    125  CG1       21.8210   -0.2770   -0.2160 C.3   136  VAL136      0.0019
    126  CG2       21.0520   -1.1760    2.0080 C.3   136  VAL136      0.0019
    127  N         25.2790   -3.0670   -5.8250 N.3   171  THR171     -0.1218
    128  CA        24.8540   -2.7680   -4.4650 C.3   171  THR171      0.1862
    129  C         25.4640   -3.8180   -3.5270 C.2   171  THR171      0.2287
    130  O         25.5260   -4.9830   -3.8890 O.2   171  THR171     -0.2866
    131  CB        23.2690   -2.8120   -4.4130 C.3   171  THR171      0.1770
    132  OG1       22.7480   -1.7270   -5.2250 O.3   171  THR171     -0.2211
    133  CG2       22.7570   -2.6760   -3.0270 C.3   171  THR171      0.0375
    134  N         24.6760   -5.0730    0.3770 N.3   173  LEU173     -0.1245
    135  CA        24.0370   -5.0110    1.6540 C.3   173  LEU173      0.1561
    136  C         25.0280   -5.5270    2.6690 C.2   173  LEU173      0.2260
    137  O         25.4370   -6.7230    2.6100 O.2   173  LEU173     -0.2867
    138  CB        22.7630   -5.8820    1.6460 C.3   173  LEU173      0.0270
    139  CG        21.5030   -4.9980    1.5840 C.3   173  LEU173      0.0019
    140  CD1       21.4570   -4.3730    0.1970 C.3   173  LEU173      0.0001
    141  CD2       20.3010   -5.8820    1.7500 C.3   173  LEU173      0.0001
@<TRIPOS>BOND
     1    38    37    2
     2    37    36    1
     3    36    35    1
     4    36    39    1
     5    67    65    1
     6    39    40    1
     7    65    64    1
     8    40    41    1
     9    64    61    1
    10    64    66    1
    11    33    32    2
    12    42    41    1
    13    42    43    1
    14    61    60    1
    15    61    62    1
    16    25    24    2
    17    63    62    2
    18    32    31    1
    19    62    68   am
    20    24    23    1
    21    24    30   am
    22    88    86   ar
    23    31    30    1
    24    31    34    1
    25    23    22    1
    26    23    26    1
    27    68    69    1
    28    28    27   ar
    29    71    70    2
    30    86    87   ar
    31    86    85    1
    32    26    27    1
    33    27    29   ar
    34    20    19    2
    35    69    70    1
    36    70    72   am
    37    85    84    1
    38    54    55    2
    39    54    53    1
    40    19    18    1
    41    58    57   ar
    42    72    73    1
    43    56    53    1
    44    56    57    1
    45    73    74    1
    46    73    76    1
    47    74    75    2
    48    53    52    1
    49    57    59   ar
    50    12    11    2
    51    84    81    1
    52    18    21    1
    53    18    17    1
    54   127   128    1
    55    77    76    1
    56    77    78    1
    57    11    17   am
    58    11    10    1
    59    96    94   am
    60    80    81    1
    61    81    82    1
    62   132   131    1
    63    95    94    2
    64    94    93    1
    65    10     9    1
    66    10    13    1
    67   128   131    1
    68   128   129    1
    69   131   133    1
    70    78    79    1
    71    82    83    2
    72   130   129    2
    73    13    14    1
    74    93    90    1
    75    15    14    2
    76    14    16   am
    77     4     3    2
    78    89    90    1
    79    90    91    1
    80   106   105    1
    81   106   107    1
    82     3     2    1
    83   108   107    2
    84    50    48    1
    85    46    47    2
    86    46    45    1
    87    91    92    2
    88    91    97   am
    89     2     1    1
    90     2     5    1
    91    97    98    1
    92   125   124    1
    93    45    48    1
    94    45    44    1
    95   104   102    1
    96    48    49    1
    97   102   103    1
    98   102   101    1
    99   140   139    1
   100   134   135    1
   101     5     6    1
   102   122   123    2
   103   122   121    1
   104    98   101    1
   105    98    99    1
   106    49    51    1
   107   124   121    1
   108   124   126    1
   109   113   114    1
   110   113   110    1
   111   109   110    1
   112   139   138    1
   113   139   141    1
   114     8     6    1
   115   138   135    1
   116   135   136    1
   117   121   120    1
   118   115   114   ar
   119   115   117   ar
   120     6     7    1
   121   114   116   ar
   122   110   111    1
   123    99   100    2
   124   117   119   ar
   125   137   136    2
   126   116   118   ar
   127   119   118   ar
   128   111   112    2
