@<TRIPOS>MOLECULE
tmp/4ce2A00.pdb
 146 133 0 0 0
SMALL
GASTEIGER

@<TRIPOS>ATOM
      1  N         16.9590  -11.2510    0.0070 N.3    34  LEU34      -0.1245
      2  CA        18.1000  -10.4430   -0.4510 C.3    34  LEU34       0.1561
      3  C         18.6760  -10.9730   -1.7560 C.2    34  LEU34       0.2260
      4  O         19.0820  -10.1930   -2.5780 O.2    34  LEU34      -0.2867
      5  CB        19.1760  -10.2340    0.6560 C.3    34  LEU34       0.0270
      6  CG        18.5900   -9.6830    1.9840 C.3    34  LEU34       0.0019
      7  CD1       19.6730   -9.4260    3.0160 C.3    34  LEU34       0.0001
      8  CD2       17.7010   -8.4120    1.7640 C.3    34  LEU34       0.0001
      9  N         16.0490   -9.8600   -4.4270 N.3    37  ASN37      -0.1225
     10  CA        16.3450   -8.4610   -4.7760 C.3    37  ASN37       0.1785
     11  C         17.5680   -8.2780   -5.6070 C.2    37  ASN37       0.2597
     12  O         17.6100   -7.4300   -6.5010 O.2    37  ASN37      -0.2718
     13  CB        16.5270   -7.6340   -3.5090 C.3    37  ASN37       0.1169
     14  CG        15.2320   -7.4530   -2.7690 C.2    37  ASN37       0.2627
     15  OD1       14.2090   -7.9340   -3.2310 O.2    37  ASN37      -0.2716
     16  ND2       15.2640   -6.7830   -1.6170 N.am   37  ASN37      -0.0877
     17  N         18.5940   -9.0620   -5.3110 N.am   38  ALA38      -0.1979
     18  CA        19.8260   -8.9840   -6.1060 C.3    38  ALA38       0.1597
     19  C         19.5300   -9.4120   -7.5170 C.2    38  ALA38       0.2287
     20  O         19.9350   -8.7620   -8.4690 O.2    38  ALA38      -0.2864
     21  CB        20.9470   -9.8540   -5.4670 C.3    38  ALA38       0.0319
     22  N         16.6420   -9.4800   -9.0150 N.3    40  ASP40      -0.1225
     23  CA        15.8870   -8.3690   -9.6300 C.3    40  ASP40       0.1805
     24  C         16.7810   -7.2330  -10.1540 C.2    40  ASP40       0.2597
     25  O         16.6100   -6.8050  -11.2690 O.2    40  ASP40      -0.2718
     26  CB        14.8240   -7.8180   -8.6910 C.3    40  ASP40       0.1424
     27  CG        13.7040   -8.8340   -8.4070 C.2    40  ASP40       0.3668
     28  OD1       13.5280   -9.8170   -9.2090 O.co2  40  ASP40      -0.2456
     29  OD2       13.0290   -8.6640   -7.3530 O.co2  40  ASP40      -0.2456
     30  N         17.7860   -6.7940   -9.4030 N.am   41  ALA41      -0.1979
     31  CA        18.6350   -5.7050   -9.8820 C.3    41  ALA41       0.1597
     32  C         19.5210   -6.1010  -11.0040 C.2    41  ALA41       0.2287
     33  O         19.9010   -5.2600  -11.8140 O.2    41  ALA41      -0.2864
     34  CB        19.4800   -5.1590   -8.7700 C.3    41  ALA41       0.0319
     35  N         17.3170   -6.0290  -14.1070 N.3    44  LYS44      -0.1245
     36  CA        17.1840   -4.6340  -14.5840 C.3    44  LYS44       0.1561
     37  C         18.3600   -4.1420  -15.3900 C.2    44  LYS44       0.2260
     38  O         18.1550   -3.5250  -16.4040 O.2    44  LYS44      -0.2867
     39  CB        16.8820   -3.6730  -13.4400 C.3    44  LYS44       0.0271
     40  CG        15.5050   -3.8960  -12.8650 C.3    44  LYS44       0.0035
     41  CD        15.2560   -3.0170  -11.6790 C.3    44  LYS44       0.0206
     42  CE        13.7690   -2.7600  -11.4890 C.3    44  LYS44       0.1093
     43  NZ        13.0290   -4.0550  -11.4990 N.3    44  LYS44      -0.1314
     44  N         26.1180   -9.1260    1.1620 N.3    77  ILE77      -0.1245
     45  CA        25.5220   -9.6560   -0.0350 C.3    77  ILE77       0.1561
     46  C         25.6790   -8.5720   -1.0650 C.2    77  ILE77       0.2260
     47  O         25.0860   -7.5160   -0.9470 O.2    77  ILE77      -0.2867
     48  CB        24.0460  -10.0180    0.1080 C.3    77  ILE77       0.0252
     49  CG1       23.7940  -10.9660    1.2580 C.3    77  ILE77       0.0019
     50  CG2       23.5900  -10.7970   -1.1120 C.3    77  ILE77       0.0019
     51  CD1       23.9250  -10.3500    2.6240 C.3    77  ILE77       0.0001
     52  N         25.6960   -7.5450   -5.3180 N.3    79  ASP79      -0.1239
     53  CA        25.4160   -7.8200   -6.7180 C.3    79  ASP79       0.1674
     54  C         25.9700   -6.7670   -7.6710 C.2    79  ASP79       0.2266
     55  O         26.2960   -5.6580   -7.2980 O.2    79  ASP79      -0.2867
     56  CB        23.9180   -7.9420   -6.9590 C.3    79  ASP79       0.1410
     57  CG        23.1920   -6.6200   -6.7630 C.2    79  ASP79       0.3668
     58  OD1       23.2180   -5.7430   -7.6650 O.co2  79  ASP79      -0.2456
     59  OD2       22.6410   -6.4390   -5.6800 O.co2  79  ASP79      -0.2456
     60  N         21.9160   -2.9790  -11.2090 N.3    82  ILE82      -0.1231
     61  CA        21.7180   -1.6480  -11.7470 C.3    82  ILE82       0.1692
     62  C         22.1720   -0.6050  -10.7420 C.2    82  ILE82       0.2593
     63  O         22.6270    0.4670  -11.1450 O.2    82  ILE82      -0.2718
     64  CB        20.2430   -1.4680  -12.1890 C.3    82  ILE82       0.0266
     65  CG1       19.9830   -0.1780  -12.9590 C.3    82  ILE82       0.0019
     66  CG2       19.2980   -1.4740  -11.0490 C.3    82  ILE82       0.0020
     67  CD1       18.6600   -0.2230  -13.7200 C.3    82  ILE82       0.0001
     68  N         22.0810   -0.9200   -9.4480 N.am   83  GLY83      -0.1942
     69  CA        22.5210    0.0230   -8.4200 C.3    83  GLY83       0.2014
     70  C         21.5040    1.1500   -8.2030 C.2    83  GLY83       0.2638
     71  O         20.5030    1.1900   -8.8640 O.2    83  GLY83      -0.2714
     72  N         21.7730    2.0230   -7.2430 N.am   84  MET84      -0.1976
     73  CA        20.8880    3.1040   -6.8840 C.3    84  MET84       0.1605
     74  C         21.6850    4.3730   -6.6910 C.2    84  MET84       0.2287
     75  O         22.7470    4.3720   -6.0740 O.2    84  MET84      -0.2864
     76  CB        20.1530    2.8200   -5.5690 C.3    84  MET84       0.0413
     77  CG        19.1310    1.6750   -5.6920 C.3    84  MET84       0.0598
     78  SD        18.2570    1.3900   -4.1430 S.3    84  MET84      -0.1393
     79  CE        19.4310    0.1980   -3.4780 C.3    84  MET84       0.0692
     80  N         17.5270    7.7480   -5.4680 N.3    88  GLU88      -0.1245
     81  CA        16.9150    6.4140   -5.3350 C.3    88  GLU88       0.1567
     82  C         17.0750    5.7680   -3.9740 C.2    88  GLU88       0.2260
     83  O         16.1350    5.1450   -3.4820 O.2    88  GLU88      -0.2867
     84  CB        17.4270    5.4720   -6.3880 C.3    88  GLU88       0.0388
     85  CG        16.9870    5.8570   -7.7760 C.3    88  GLU88       0.1160
     86  CD        17.7740    5.2120   -8.8890 C.2    88  GLU88       0.3649
     87  OE1       18.9210    4.7380   -8.6810 O.co2  88  GLU88      -0.2457
     88  OE2       17.2500    5.2060  -10.0250 O.co2  88  GLU88      -0.2457
     89  N         13.5010    4.9840   -2.3860 N.3    92  ASN92      -0.1225
     90  CA        13.1560    3.5780   -2.3990 C.3    92  ASN92       0.1785
     91  C         13.3180    2.8410   -1.0880 C.2    92  ASN92       0.2597
     92  O         12.6550    1.8290   -0.8540 O.2    92  ASN92      -0.2718
     93  CB        14.0240    2.8390   -3.4190 C.3    92  ASN92       0.1169
     94  CG        13.7040    3.2160   -4.8290 C.2    92  ASN92       0.2627
     95  OD1       12.7070    3.8090   -5.0940 O.2    92  ASN92      -0.2716
     96  ND2       14.5690    2.8670   -5.7360 N.am   92  ASN92      -0.0877
     97  N         14.2440    3.3000   -0.2570 N.am   93  LEU93      -0.1980
     98  CA        14.4790    2.6440    1.0200 C.3    93  LEU93       0.1596
     99  C         13.8980    3.3840    2.2040 C.2    93  LEU93       0.2287
    100  O         13.9170    2.8590    3.3000 O.2    93  LEU93      -0.2864
    101  CB        15.9700    2.4310    1.2750 C.3    93  LEU93       0.0297
    102  CG        16.7210    1.5680    0.2750 C.3    93  LEU93       0.0022
    103  CD1       18.1560    1.3850    0.7350 C.3    93  LEU93       0.0001
    104  CD2       16.0580    0.2190    0.0930 C.3    93  LEU93       0.0001
    105  N          5.9170    2.6510    1.2370 N.3    98  LYS98      -0.1245
    106  CA         5.9740    1.5040    0.3580 C.3    98  LYS98       0.1561
    107  C          4.5300    1.0020    0.1500 C.2    98  LYS98       0.2260
    108  O          3.6230    1.1960    0.9810 O.2    98  LYS98      -0.2867
    109  CB         6.9570    0.4310    0.8410 C.3    98  LYS98       0.0271
    110  CG         7.9510   -0.0220   -0.2160 C.3    98  LYS98       0.0035
    111  CD         8.8740    1.1170   -0.6560 C.3    98  LYS98       0.0206
    112  CE         9.4240    1.9200    0.5310 C.3    98  LYS98       0.1093
    113  NZ        10.3840    1.1430    1.3720 N.3    98  LYS98      -0.1314
    114  N         13.1000   -6.4750    1.4940 N.3   124  PHE124     -0.1241
    115  CA        14.3160   -5.8700    1.9610 C.3   124  PHE124      0.1605
    116  C         14.3620   -5.7980    3.4680 C.2   124  PHE124      0.2264
    117  O         15.4150   -6.1390    4.0540 O.2   124  PHE124     -0.2867
    118  CB        14.5220   -4.5080    1.2590 C.3   124  PHE124      0.0534
    119  CG        15.5210   -3.6260    1.9050 C.ar  124  PHE124     -0.0203
    120  CD1       16.8700   -3.8490    1.7290 C.ar  124  PHE124     -0.0042
    121  CD2       15.1080   -2.5810    2.7160 C.ar  124  PHE124     -0.0042
    122  CE1       17.8050   -3.0420    2.3500 C.ar  124  PHE124     -0.0003
    123  CE2       16.0450   -1.7670    3.3320 C.ar  124  PHE124     -0.0003
    124  CZ        17.3980   -1.9860    3.1460 C.ar  124  PHE124     -0.0000
    125  N         23.5760   -0.0600    3.1960 N.3   136  VAL136     -0.1245
    126  CA        23.4340   -0.3490    1.8130 C.3   136  VAL136      0.1561
    127  C         24.4420    0.5490    1.1100 C.2   136  VAL136      0.2260
    128  O         24.3270    1.7770    1.1720 O.2   136  VAL136     -0.2867
    129  CB        22.0150   -0.0860    1.3130 C.3   136  VAL136      0.0252
    130  CG1       21.9310   -0.2250   -0.2090 C.3   136  VAL136      0.0019
    131  CG2       21.0380   -1.0230    2.0130 C.3   136  VAL136      0.0019
    132  N         25.3920   -3.0750   -5.8020 N.3   171  THR171     -0.1218
    133  CA        25.0440   -2.8080   -4.4270 C.3   171  THR171      0.1862
    134  C         25.6330   -3.8470   -3.5150 C.2   171  THR171      0.2287
    135  O         25.6890   -5.0270   -3.8610 O.2   171  THR171     -0.2866
    136  CB        23.4880   -2.8560   -4.2790 C.3   171  THR171      0.1770
    137  OG1       22.9190   -1.8350   -5.1010 O.3   171  THR171     -0.2211
    138  CG2       23.0090   -2.6120   -2.8440 C.3   171  THR171      0.0375
    139  N         24.7770   -5.1900    0.3490 N.3   173  LEU173     -0.1245
    140  CA        24.1370   -5.1080    1.6510 C.3   173  LEU173      0.1561
    141  C         25.1400   -5.5510    2.7010 C.2   173  LEU173      0.2260
    142  O         25.5700   -6.7160    2.7280 O.2   173  LEU173     -0.2867
    143  CB        22.8510   -5.9320    1.6940 C.3   173  LEU173      0.0270
    144  CG        21.6080   -5.0650    1.3990 C.3   173  LEU173      0.0019
    145  CD1       21.6490   -4.6370   -0.0570 C.3   173  LEU173      0.0001
    146  CD2       20.3080   -5.8060    1.6910 C.3   173  LEU173      0.0001
@<TRIPOS>BOND
     1    38    37    2
     2    37    36    1
     3    36    35    1
     4    36    39    1
     5    67    65    1
     6    39    40    1
     7    65    64    1
     8    40    41    1
     9    64    61    1
    10    64    66    1
    11    33    32    2
    12    61    60    1
    13    61    62    1
    14    41    42    1
    15    43    42    1
    16    25    24    2
    17    63    62    2
    18    32    31    1
    19    62    68   am
    20    24    23    1
    21    24    30   am
    22    88    86   ar
    23    31    30    1
    24    31    34    1
    25    23    22    1
    26    23    26    1
    27    68    69    1
    28    28    27   ar
    29    86    87   ar
    30    86    85    1
    31    71    70    2
    32    26    27    1
    33    20    19    2
    34    69    70    1
    35    27    29   ar
    36    70    72   am
    37    85    84    1
    38    54    55    2
    39    54    53    1
    40    58    57   ar
    41    19    18    1
    42    72    73    1
    43    56    57    1
    44    56    53    1
    45    73    74    1
    46    73    76    1
    47    57    59   ar
    48    53    52    1
    49    74    75    2
    50    12    11    2
    51    84    81    1
    52    18    21    1
    53    18    17    1
    54   132   133    1
    55    96    94   am
    56    77    76    1
    57    77    78    1
    58    11    17   am
    59    11    10    1
    60    80    81    1
    61    81    82    1
    62   137   136    1
    63    95    94    2
    64    94    93    1
    65    10     9    1
    66    10    13    1
    67   133   136    1
    68   133   134    1
    69   136   138    1
    70    78    79    1
    71    82    83    2
    72   135   134    2
    73    13    14    1
    74    93    90    1
    75    15    14    2
    76    14    16   am
    77     4     3    2
    78    90    89    1
    79    90    91    1
    80     3     2    1
    81    50    48    1
    82    91    92    2
    83    91    97   am
    84    46    47    2
    85    46    45    1
    86   111   110    1
    87   111   112    1
    88     2     1    1
    89     2     5    1
    90    97    98    1
    91   110   109    1
    92   130   129    1
    93   145   144    1
    94    45    48    1
    95    45    44    1
    96   104   102    1
    97    48    49    1
    98   107   106    1
    99   107   108    2
   100   102   103    1
   101   102   101    1
   102   139   140    1
   103   106   109    1
   104   106   105    1
   105   112   113    1
   106     5     6    1
   107    98   101    1
   108    98    99    1
   109   127   128    2
   110   127   126    1
   111    49    51    1
   112   118   119    1
   113   118   115    1
   114   129   126    1
   115   129   131    1
   116   144   146    1
   117   144   143    1
   118   114   115    1
   119   140   143    1
   120   140   141    1
   121   120   119   ar
   122   120   122   ar
   123     8     6    1
   124   126   125    1
   125   119   121   ar
   126   115   116    1
   127     6     7    1
   128    99   100    2
   129   122   124   ar
   130   141   142    2
   131   121   123   ar
   132   124   123   ar
   133   116   117    2
