@<TRIPOS>MOLECULE
tmp/4ce3A00.pdb
 146 133 0 0 0
SMALL
GASTEIGER

@<TRIPOS>ATOM
      1  N         16.8960  -11.1820    0.0080 N.3    34  LEU34      -0.1245
      2  CA        18.0410  -10.4030   -0.4750 C.3    34  LEU34       0.1561
      3  C         18.6070  -10.9690   -1.7910 C.2    34  LEU34       0.2260
      4  O         19.0430  -10.1770   -2.6190 O.2    34  LEU34      -0.2867
      5  CB        19.1330  -10.2710    0.6040 C.3    34  LEU34       0.0270
      6  CG        18.6830   -9.7140    1.9920 C.3    34  LEU34       0.0019
      7  CD1       19.8620   -9.4790    2.9130 C.3    34  LEU34       0.0001
      8  CD2       17.7710   -8.4640    1.8770 C.3    34  LEU34       0.0001
      9  N         16.0640   -9.8020   -4.5670 N.3    37  ASN37      -0.1225
     10  CA        16.3020   -8.3720   -4.8120 C.3    37  ASN37       0.1785
     11  C         17.5260   -8.1780   -5.6600 C.2    37  ASN37       0.2597
     12  O         17.4920   -7.4290   -6.6400 O.2    37  ASN37      -0.2718
     13  CB        16.4510   -7.6160   -3.4950 C.3    37  ASN37       0.1169
     14  CG        15.1560   -7.3800   -2.7630 C.2    37  ASN37       0.2627
     15  OD1       14.1100   -7.9320   -3.1050 O.2    37  ASN37      -0.2716
     16  ND2       15.2080   -6.5700   -1.7120 N.am   37  ASN37      -0.0877
     17  N         18.6040   -8.9150   -5.3130 N.am   38  ALA38      -0.1979
     18  CA        19.8620   -8.9160   -6.0440 C.3    38  ALA38       0.1597
     19  C         19.6110   -9.3830   -7.4750 C.2    38  ALA38       0.2287
     20  O         20.0750   -8.7300   -8.4070 O.2    38  ALA38      -0.2864
     21  CB        20.8710   -9.8140   -5.3400 C.3    38  ALA38       0.0319
     22  N         16.6890   -9.3270   -9.1200 N.3    40  ASP40      -0.1225
     23  CA        15.8890   -8.2940   -9.8110 C.3    40  ASP40       0.1805
     24  C         16.7790   -7.1520  -10.3240 C.2    40  ASP40       0.2597
     25  O         16.6050   -6.7340  -11.4580 O.2    40  ASP40      -0.2718
     26  CB        14.7820   -7.7270   -8.9170 C.3    40  ASP40       0.1424
     27  CG        13.7360   -8.7310   -8.4720 C.2    40  ASP40       0.3668
     28  OD1       13.6260   -9.8140   -9.1200 O.co2  40  ASP40      -0.2456
     29  OD2       13.0640   -8.4690   -7.4380 O.co2  40  ASP40      -0.2456
     30  N         17.7620   -6.6970   -9.5220 N.am   41  ALA41      -0.1979
     31  CA        18.7170   -5.6400   -9.9020 C.3    41  ALA41       0.1597
     32  C         19.5320   -6.0570  -11.0890 C.2    41  ALA41       0.2287
     33  O         19.8320   -5.2240  -11.9530 O.2    41  ALA41      -0.2864
     34  CB        19.6470   -5.3230   -8.7490 C.3    41  ALA41       0.0319
     35  N         17.3160   -5.9220  -14.1940 N.3    44  LYS44      -0.1245
     36  CA        17.1620   -4.5130  -14.6080 C.3    44  LYS44       0.1561
     37  C         18.3580   -4.0090  -15.3810 C.2    44  LYS44       0.2260
     38  O         18.1320   -3.3960  -16.4100 O.2    44  LYS44      -0.2867
     39  CB        16.8480   -3.5920  -13.4240 C.3    44  LYS44       0.0271
     40  CG        15.4790   -3.9060  -12.8020 C.3    44  LYS44       0.0035
     41  CD        15.1080   -2.9480  -11.7020 C.3    44  LYS44       0.0206
     42  CE        13.8700   -3.3830  -10.9390 C.3    44  LYS44       0.1093
     43  NZ        12.6870   -3.6050  -11.8230 N.3    44  LYS44      -0.1314
     44  N         26.1160   -8.9970    1.1260 N.3    77  ILE77      -0.1245
     45  CA        25.4760   -9.5370   -0.0640 C.3    77  ILE77       0.1561
     46  C         25.6440   -8.4810   -1.1510 C.2    77  ILE77       0.2260
     47  O         25.0650   -7.3870   -1.0780 O.2    77  ILE77      -0.2867
     48  CB        24.0010  -10.0100    0.1160 C.3    77  ILE77       0.0252
     49  CG1       23.7980  -10.8690    1.3980 C.3    77  ILE77       0.0019
     50  CG2       23.5590  -10.8220   -1.1210 C.3    77  ILE77       0.0019
     51  CD1       23.4830  -10.1100    2.6780 C.3    77  ILE77       0.0001
     52  N         25.7320   -7.6260   -5.4230 N.3    79  ASP79      -0.1239
     53  CA        25.2700   -7.9030   -6.7710 C.3    79  ASP79       0.1674
     54  C         25.8710   -6.8530   -7.7000 C.2    79  ASP79       0.2266
     55  O         26.1140   -5.7120   -7.2710 O.2    79  ASP79      -0.2867
     56  CB        23.7330   -7.9390   -6.8800 C.3    79  ASP79       0.1410
     57  CG        23.0580   -6.6190   -6.5890 C.2    79  ASP79       0.3668
     58  OD1       23.1790   -5.6900   -7.4180 O.co2  79  ASP79      -0.2456
     59  OD2       22.4170   -6.5070   -5.5310 O.co2  79  ASP79      -0.2456
     60  N         21.7450   -2.9920  -11.3340 N.3    82  ILE82      -0.1231
     61  CA        21.5340   -1.6130  -11.7730 C.3    82  ILE82       0.1692
     62  C         22.0940   -0.5790  -10.7640 C.2    82  ILE82       0.2593
     63  O         22.6440    0.4420  -11.1970 O.2    82  ILE82      -0.2718
     64  CB        20.0370   -1.3560  -12.1210 C.3    82  ILE82       0.0266
     65  CG1       19.8130   -0.0450  -12.9010 C.3    82  ILE82       0.0019
     66  CG2       19.0590   -1.5520  -10.9460 C.3    82  ILE82       0.0020
     67  CD1       18.6160   -0.1110  -13.8020 C.3    82  ILE82       0.0001
     68  N         21.9950   -0.8660   -9.4620 N.am   83  GLY83      -0.1942
     69  CA        22.4630    0.0400   -8.4150 C.3    83  GLY83       0.2014
     70  C         21.4800    1.1730   -8.1810 C.2    83  GLY83       0.2638
     71  O         20.4400    1.2430   -8.8340 O.2    83  GLY83      -0.2714
     72  N         21.7780    2.0520   -7.2330 N.am   84  MET84      -0.1976
     73  CA        20.9020    3.1780   -6.9220 C.3    84  MET84       0.1605
     74  C         21.6810    4.4630   -6.7660 C.2    84  MET84       0.2287
     75  O         22.7650    4.4740   -6.1960 O.2    84  MET84      -0.2864
     76  CB        20.0750    2.9310   -5.6350 C.3    84  MET84       0.0413
     77  CG        19.0630    1.7890   -5.7450 C.3    84  MET84       0.0598
     78  SD        18.6780    1.0530   -4.1390 S.3    84  MET84      -0.1393
     79  CE        17.4860    2.0560   -3.6410 C.3    84  MET84       0.0692
     80  N         17.5610    7.6620   -5.4670 N.3    88  GLU88      -0.1245
     81  CA        16.9190    6.3460   -5.4380 C.3    88  GLU88       0.1567
     82  C         17.0770    5.6810   -4.0610 C.2    88  GLU88       0.2260
     83  O         16.1260    5.0420   -3.6050 O.2    88  GLU88      -0.2867
     84  CB        17.4410    5.4310   -6.5350 C.3    88  GLU88       0.0388
     85  CG        16.9540    5.8010   -7.9220 C.3    88  GLU88       0.1160
     86  CD        17.7320    5.1660   -9.0550 C.2    88  GLU88       0.3649
     87  OE1       18.9580    4.9630   -8.9070 O.co2  88  GLU88      -0.2457
     88  OE2       17.1350    4.9690  -10.1350 O.co2  88  GLU88      -0.2457
     89  N         13.4620    4.9850   -2.4350 N.3    92  ASN92      -0.1225
     90  CA        13.1630    3.5550   -2.3840 C.3    92  ASN92       0.1785
     91  C         13.3800    2.8970   -1.0600 C.2    92  ASN92       0.2597
     92  O         12.7820    1.8450   -0.8340 O.2    92  ASN92      -0.2718
     93  CB        14.0090    2.7800   -3.3900 C.3    92  ASN92       0.1169
     94  CG        13.8350    3.1230   -4.8390 C.2    92  ASN92       0.2627
     95  OD1       12.9460    3.8620   -5.2400 O.2    92  ASN92      -0.2716
     96  ND2       14.7100    2.5840   -5.6590 N.am   92  ASN92      -0.0877
     97  N         14.2780    3.4140   -0.2170 N.am   93  LEU93      -0.1980
     98  CA        14.5340    2.6910    1.0200 C.3    93  LEU93       0.1596
     99  C         13.9050    3.3330    2.2680 C.2    93  LEU93       0.2287
    100  O         13.9200    2.7020    3.3280 O.2    93  LEU93      -0.2864
    101  CB        16.0380    2.4480    1.2380 C.3    93  LEU93       0.0297
    102  CG        16.8010    1.6040    0.1930 C.3    93  LEU93       0.0022
    103  CD1       18.2920    1.5720    0.5160 C.3    93  LEU93       0.0001
    104  CD2       16.2450    0.1680    0.0920 C.3    93  LEU93       0.0001
    105  N          5.7590    2.8130    0.6680 N.3    98  LYS98      -0.1245
    106  CA         5.8050    1.6060   -0.1430 C.3    98  LYS98       0.1561
    107  C          4.4310    0.9470   -0.1280 C.2    98  LYS98       0.2260
    108  O          3.7990    0.8360    0.9340 O.2    98  LYS98      -0.2867
    109  CB         6.9050    0.6430    0.3510 C.3    98  LYS98       0.0271
    110  CG         8.3020    1.2510    0.4080 C.3    98  LYS98       0.0035
    111  CD         8.9450    1.3490   -0.9570 C.3    98  LYS98       0.0206
    112  CE         9.4720   -0.0060   -1.4050 C.3    98  LYS98       0.1093
    113  NZ        10.0490    0.0480   -2.7820 N.3    98  LYS98      -0.1314
    114  N         13.0060   -6.4950    1.5640 N.3   124  PHE124     -0.1241
    115  CA        14.2680   -5.8780    1.9790 C.3   124  PHE124      0.1605
    116  C         14.3530   -5.7750    3.5000 C.2   124  PHE124      0.2264
    117  O         15.3910   -6.0840    4.0740 O.2   124  PHE124     -0.2867
    118  CB        14.4190   -4.4670    1.3350 C.3   124  PHE124      0.0534
    119  CG        15.4490   -3.5660    1.9920 C.ar  124  PHE124     -0.0203
    120  CD1       16.8120   -3.7910    1.8110 C.ar  124  PHE124     -0.0042
    121  CD2       15.0560   -2.5450    2.8550 C.ar  124  PHE124     -0.0042
    122  CE1       17.7640   -2.9720    2.4400 C.ar  124  PHE124     -0.0003
    123  CE2       16.0100   -1.7530    3.5110 C.ar  124  PHE124     -0.0003
    124  CZ        17.3570   -1.9660    3.2910 C.ar  124  PHE124     -0.0000
    125  N         23.6620    0.0980    3.1880 N.3   136  VAL136     -0.1245
    126  CA        23.4110   -0.2230    1.7880 C.3   136  VAL136      0.1561
    127  C         24.3890    0.6260    1.0190 C.2   136  VAL136      0.2260
    128  O         24.2970    1.8600    1.0530 O.2   136  VAL136     -0.2867
    129  CB        21.9360   -0.0700    1.3250 C.3   136  VAL136      0.0252
    130  CG1       21.8250   -0.1250   -0.1990 C.3   136  VAL136      0.0019
    131  CG2       21.0510   -1.1470    1.9640 C.3   136  VAL136      0.0019
    132  N         25.1890   -2.9630   -5.8120 N.3   171  THR171     -0.1218
    133  CA        24.8310   -2.7440   -4.4250 C.3   171  THR171      0.1862
    134  C         25.4630   -3.7960   -3.5270 C.2   171  THR171      0.2287
    135  O         25.5720   -4.9720   -3.9050 O.2   171  THR171     -0.2866
    136  CB        23.2680   -2.7860   -4.2900 C.3   171  THR171      0.1770
    137  OG1       22.7100   -1.7740   -5.1120 O.3   171  THR171     -0.2211
    138  CG2       22.7800   -2.5300   -2.8760 C.3   171  THR171      0.0375
    139  N         24.8600   -5.0920    0.4530 N.3   173  LEU173     -0.1245
    140  CA        24.0520   -5.0490    1.6530 C.3   173  LEU173      0.1561
    141  C         24.9620   -5.5270    2.7440 C.2   173  LEU173      0.2260
    142  O         25.4080   -6.6860    2.7150 O.2   173  LEU173     -0.2867
    143  CB        22.7720   -5.8890    1.5090 C.3   173  LEU173      0.0270
    144  CG        21.4950   -5.0600    1.3780 C.3   173  LEU173      0.0019
    145  CD1       21.3950   -4.4290    0.0070 C.3   173  LEU173      0.0001
    146  CD2       20.2900   -5.9050    1.6220 C.3   173  LEU173      0.0001
@<TRIPOS>BOND
     1    38    37    2
     2    37    36    1
     3    36    35    1
     4    36    39    1
     5    67    65    1
     6    39    40    1
     7    65    64    1
     8    40    41    1
     9    64    61    1
    10    64    66    1
    11    33    32    2
    12    43    42    1
    13    61    60    1
    14    61    62    1
    15    41    42    1
    16    25    24    2
    17    63    62    2
    18    32    31    1
    19    62    68   am
    20    24    23    1
    21    24    30   am
    22    88    86   ar
    23    31    30    1
    24    31    34    1
    25    23    22    1
    26    23    26    1
    27    68    69    1
    28    28    27   ar
    29    86    87   ar
    30    86    85    1
    31    26    27    1
    32    71    70    2
    33    27    29   ar
    34    69    70    1
    35    20    19    2
    36    70    72   am
    37    85    84    1
    38    54    55    2
    39    54    53    1
    40    19    18    1
    41    58    57   ar
    42    72    73    1
    43    73    74    1
    44    73    76    1
    45    56    53    1
    46    56    57    1
    47    53    52    1
    48    74    75    2
    49    12    11    2
    50    57    59   ar
    51    84    81    1
    52    18    21    1
    53    18    17    1
    54   132   133    1
    55    77    76    1
    56    77    78    1
    57    11    17   am
    58    11    10    1
    59    96    94   am
    60    80    81    1
    61    81    82    1
    62    95    94    2
    63   137   136    1
    64    94    93    1
    65    10     9    1
    66    10    13    1
    67   133   136    1
    68   133   134    1
    69   136   138    1
    70    78    79    1
    71    82    83    2
    72   135   134    2
    73    13    14    1
    74    93    90    1
    75    15    14    2
    76   113   112    1
    77    14    16   am
    78     4     3    2
    79    89    90    1
    80    90    91    1
    81     3     2    1
    82   112   111    1
    83    46    47    2
    84    46    45    1
    85    50    48    1
    86    91    92    2
    87    91    97   am
    88   111   110    1
    89     2     1    1
    90     2     5    1
    91    97    98    1
    92   130   129    1
    93   106   107    1
    94   106   109    1
    95   106   105    1
    96   107   108    2
    97    45    48    1
    98    45    44    1
    99   145   144    1
   100   104   102    1
   101    48    49    1
   102   102   103    1
   103   102   101    1
   104   109   110    1
   105   139   140    1
   106     5     6    1
   107   127   128    2
   108   127   126    1
   109    98   101    1
   110    98    99    1
   111   129   126    1
   112   129   131    1
   113   118   115    1
   114   118   119    1
   115   144   143    1
   116   144   146    1
   117    49    51    1
   118   143   140    1
   119   114   115    1
   120   140   141    1
   121   126   125    1
   122   120   119   ar
   123   120   122   ar
   124     8     6    1
   125   115   116    1
   126     6     7    1
   127   119   121   ar
   128    99   100    2
   129   122   124   ar
   130   142   141    2
   131   121   123   ar
   132   124   123   ar
   133   116   117    2
