@<TRIPOS>MOLECULE
tmp/4ce5B00.pdb
 176 169 0 0 0
SMALL
GASTEIGER

@<TRIPOS>ATOM
      1  N        -30.0370  -30.1390   24.5820 N.3    60  TYR60      -0.1241
      2  CA       -29.3070  -29.5050   23.4870 C.3    60  TYR60       0.1605
      3  C        -30.0840  -28.3050   22.9970 C.2    60  TYR60       0.2264
      4  O        -31.2180  -28.0890   23.4110 O.2    60  TYR60      -0.2867
      5  CB       -29.0570  -30.4970   22.3380 C.3    60  TYR60       0.0534
      6  CG       -30.2380  -30.7630   21.4140 C.ar   60  TYR60      -0.0201
      7  CD1      -31.4090  -31.3510   21.8870 C.ar   60  TYR60      -0.0009
      8  CD2      -30.1590  -30.4690   20.0550 C.ar   60  TYR60      -0.0009
      9  CE1      -32.4810  -31.6140   21.0300 C.ar   60  TYR60       0.0417
     10  CE2      -31.2150  -30.7330   19.1940 C.ar   60  TYR60       0.0417
     11  CZ       -32.3730  -31.2990   19.6870 C.ar   60  TYR60       0.1957
     12  OH       -33.4120  -31.5660   18.8190 O.3    60  TYR60      -0.2866
     13  N        -31.6260  -18.8070   22.1190 N.3    76  HIS76      -0.1241
     14  CA       -31.2840  -20.2200   22.1300 C.3    76  HIS76       0.1621
     15  C        -30.3980  -20.5790   23.3150 C.2    76  HIS76       0.2264
     16  O        -30.5850  -21.6330   23.9280 O.2    76  HIS76      -0.2867
     17  CB       -30.6230  -20.6140   20.8090 C.3    76  HIS76       0.0745
     18  CG       -31.6080  -20.7590   19.6890 C.ar   76  HIS76       0.0817
     19  ND1      -32.3320  -21.9160   19.4940 N.ar   76  HIS76      -0.2268
     20  CD2      -32.0260  -19.8830   18.7400 C.ar   76  HIS76       0.1154
     21  CE1      -33.1430  -21.7540   18.4620 C.ar   76  HIS76       0.1986
     22  NE2      -32.9750  -20.5330   17.9840 N.ar   76  HIS76      -0.2212
     23  N        -32.5970  -20.6240   26.3580 N.3    79  ARG79      -0.1245
     24  CA       -33.4070  -21.8360   26.4150 C.3    79  ARG79       0.1563
     25  C        -32.5540  -23.0330   26.8290 C.2    79  ARG79       0.2260
     26  O        -32.9860  -23.8660   27.6170 O.2    79  ARG79      -0.2867
     27  CB       -34.1040  -22.1140   25.0700 C.3    79  ARG79       0.0307
     28  CG       -35.0940  -23.2760   25.1730 C.3    79  ARG79       0.0489
     29  CD       -35.9630  -23.3940   23.9210 C.3    79  ARG79       0.2205
     30  NE       -35.1680  -23.7880   22.7590 N.pl3  79  ARG79      -0.0865
     31  CZ       -35.6490  -23.9200   21.5210 C.cat  79  ARG79       0.5346
     32  NH1      -36.9320  -23.6830   21.2640 N.pl3  79  ARG79       0.1354
     33  NH2      -34.8380  -24.2910   20.5310 N.pl3  79  ARG79       0.1354
     34  N        -47.2970  -38.4730   21.0170 N.3   169  ARG169     -0.1245
     35  CA       -46.1560  -37.7770   21.6180 C.3   169  ARG169      0.1563
     36  C        -45.9380  -38.2200   23.0660 C.2   169  ARG169      0.2260
     37  O        -46.8970  -38.3890   23.8210 O.2   169  ARG169     -0.2867
     38  CB       -46.3770  -36.2600   21.5550 C.3   169  ARG169      0.0307
     39  CG       -45.1670  -35.4140   21.9440 C.3   169  ARG169      0.0489
     40  CD       -44.1310  -35.3820   20.8160 C.3   169  ARG169      0.2205
     41  NE       -43.0200  -34.5080   21.1990 N.pl3 169  ARG169     -0.0865
     42  CZ       -41.9110  -34.9260   21.7970 C.cat 169  ARG169      0.5346
     43  NH1      -41.7450  -36.2120   22.0800 N.pl3 169  ARG169      0.1354
     44  NH2      -40.9620  -34.0530   22.1120 N.pl3 169  ARG169      0.1354
     45  N        -35.5460  -29.3540   25.4820 N.3   180  LYS180     -0.1231
     46  CA       -35.1660  -29.8660   24.1830 C.3   180  LYS180      0.1693
     47  C        -34.3460  -31.1240   24.4350 C.2   180  LYS180      0.2592
     48  O        -33.4560  -31.1390   25.2900 O.2   180  LYS180     -0.2718
     49  CB       -34.3790  -28.8180   23.3750 C.3   180  LYS180      0.0285
     50  CG       -34.5360  -28.9890   21.8610 C.3   180  LYS180      0.0035
     51  CD       -33.7750  -27.9560   21.0460 C.3   180  LYS180      0.0206
     52  CE       -34.0650  -28.1630   19.5600 C.3   180  LYS180      0.1093
     53  NZ       -33.2370  -27.3110   18.6810 N.3   180  LYS180     -0.1314
     54  N        -34.6830  -32.2040   23.7460 N.am  181  ASN181     -0.1974
     55  CA       -33.9680  -33.4420   24.0050 C.3   181  ASN181      0.1688
     56  C        -33.8760  -34.3250   22.7880 C.2   181  ASN181      0.2292
     57  O        -34.5740  -34.1050   21.7860 O.2   181  ASN181     -0.2864
     58  CB       -34.6300  -34.2020   25.1630 C.3   181  ASN181      0.1181
     59  CG       -36.0010  -34.7330   24.7950 C.2   181  ASN181      0.2629
     60  OD1      -36.1100  -35.7390   24.1020 O.2   181  ASN181     -0.2716
     61  ND2      -37.0560  -34.0630   25.2620 N.am  181  ASN181     -0.0877
     62  N        -35.8140  -39.3960   20.7940 N.3   184  TRP184     -0.1241
     63  CA       -36.7320  -39.2780   19.6730 C.3   184  TRP184      0.1605
     64  C        -37.5060  -40.5570   19.3330 C.2   184  TRP184      0.2264
     65  O        -37.9610  -40.7170   18.1990 O.2   184  TRP184     -0.2867
     66  CB       -35.9570  -38.8040   18.4330 C.3   184  TRP184      0.0550
     67  CG       -35.8710  -37.2950   18.3100 C.ar  184  TRP184      0.0003
     68  CD1      -35.6790  -36.3880   19.3170 C.ar  184  TRP184      0.0946
     69  CD2      -36.0070  -36.5370   17.1090 C.ar  184  TRP184      0.0152
     70  NE1      -35.6820  -35.1020   18.8040 N.ar  184  TRP184     -0.2442
     71  CE2      -35.8820  -35.1710   17.4530 C.ar  184  TRP184      0.0810
     72  CE3      -36.2270  -36.8810   15.7740 C.ar  184  TRP184      0.0012
     73  CZ2      -35.9640  -34.1520   16.5050 C.ar  184  TRP184      0.0191
     74  CZ3      -36.3060  -35.8680   14.8330 C.ar  184  TRP184      0.0001
     75  CH2      -36.1740  -34.5210   15.2060 C.ar  184  TRP184      0.0015
     76  N        -40.8240  -39.7770   17.8290 N.3   187  LEU187     -0.1245
     77  CA       -40.6950  -38.9790   16.6080 C.3   187  LEU187      0.1561
     78  C        -40.1900  -39.8300   15.4470 C.2   187  LEU187      0.2260
     79  O        -40.6320  -39.6750   14.3120 O.2   187  LEU187     -0.2867
     80  CB       -39.7670  -37.7870   16.8690 C.3   187  LEU187      0.0270
     81  CG       -40.2790  -36.8770   17.9940 C.3   187  LEU187      0.0019
     82  CD1      -39.3790  -35.6630   18.1890 C.3   187  LEU187      0.0001
     83  CD2      -41.7240  -36.4470   17.7250 C.3   187  LEU187      0.0001
     84  N        -46.7880  -31.7290   18.3940 N.3   213  GLU213     -0.1231
     85  CA       -45.7560  -31.2830   17.4540 C.3   213  GLU213      0.1699
     86  C        -45.3470  -32.4620   16.5760 C.2   213  GLU213      0.2592
     87  O        -45.9480  -33.5340   16.6550 O.2   213  GLU213     -0.2718
     88  CB       -44.5370  -30.6980   18.1890 C.3   213  GLU213      0.0402
     89  CG       -43.8740  -31.6760   19.1540 C.3   213  GLU213      0.1161
     90  CD       -42.8610  -31.0110   20.0830 C.2   213  GLU213      0.3649
     91  OE1      -42.5050  -29.8300   19.8730 O.co2 213  GLU213     -0.2457
     92  OE2      -42.4270  -31.6820   21.0370 O.co2 213  GLU213     -0.2457
     93  N        -44.3360  -32.2640   15.7380 N.am  214  GLY214     -0.1957
     94  CA       -43.8440  -33.3470   14.9040 C.3   214  GLY214      0.1869
     95  C        -42.3740  -33.6330   15.1050 C.2   214  GLY214      0.2309
     96  O        -41.7620  -33.2100   16.0950 O.2   214  GLY214     -0.2863
     97  N        -39.2950  -32.7440   14.7970 N.3   216  GLY216     -0.1210
     98  CA       -38.3810  -31.6290   14.6010 C.3   216  GLY216      0.1956
     99  C        -39.0260  -30.3080   14.2140 C.2   216  GLY216      0.2612
    100  O        -38.3780  -29.4580   13.6110 O.2   216  GLY216     -0.2717
    101  N        -40.2990  -30.1220   14.5530 N.am  217  PHE217     -0.1962
    102  CA       -40.9890  -28.8930   14.1800 C.3   217  PHE217      0.1771
    103  C        -42.2360  -28.6800   15.0260 C.2   217  PHE217      0.2619
    104  O        -42.8250  -29.6420   15.5180 O.2   217  PHE217     -0.2715
    105  CB       -41.3780  -28.9180   12.6840 C.3   217  PHE217      0.0574
    106  CG       -42.1570  -30.1460   12.2760 C.ar  217  PHE217     -0.0200
    107  CD1      -43.5390  -30.2050   12.4430 C.ar  217  PHE217     -0.0042
    108  CD2      -41.4960  -31.2450   11.7280 C.ar  217  PHE217     -0.0042
    109  CE1      -44.2460  -31.3400   12.0750 C.ar  217  PHE217     -0.0003
    110  CE2      -42.2010  -32.3890   11.3590 C.ar  217  PHE217     -0.0003
    111  CZ       -43.5720  -32.4330   11.5300 C.ar  217  PHE217     -0.0000
    112  N        -42.6430  -27.4200   15.1690 N.am  218  ASN218     -0.1972
    113  CA       -43.9610  -27.1010   15.6970 C.3   218  ASN218      0.1688
    114  C        -44.9940  -27.0490   14.5760 C.2   218  ASN218      0.2292
    115  O        -44.6420  -26.9790   13.3930 O.2   218  ASN218     -0.2864
    116  CB       -43.9400  -25.7590   16.4450 C.3   218  ASN218      0.1181
    117  CG       -43.1550  -25.8160   17.7420 C.2   218  ASN218      0.2629
    118  OD1      -42.1540  -25.1100   17.9110 O.2   218  ASN218     -0.2716
    119  ND2      -43.6290  -26.6280   18.6870 N.am  218  ASN218     -0.0877
    120  N        -42.2430  -28.4280   22.3870 N.3   235  LEU235     -0.1245
    121  CA       -41.1550  -27.4740   22.5360 C.3   235  LEU235      0.1561
    122  C        -41.6710  -26.0650   22.2730 C.2   235  LEU235      0.2260
    123  O        -42.4380  -25.8450   21.3420 O.2   235  LEU235     -0.2867
    124  CB       -40.0230  -27.7900   21.5650 C.3   235  LEU235      0.0270
    125  CG       -38.7440  -26.9700   21.7650 C.3   235  LEU235      0.0019
    126  CD1      -38.0260  -27.4540   23.0280 C.3   235  LEU235      0.0001
    127  CD2      -37.8570  -27.1140   20.5490 C.3   235  LEU235      0.0001
    128  N        -40.8700  -23.4340   20.5310 N.3   237  GLY237     -0.1210
    129  CA       -39.9100  -23.1470   19.4770 C.3   237  GLY237      0.1956
    130  C        -39.5490  -21.6780   19.3330 C.2   237  GLY237      0.2612
    131  O        -40.3780  -20.7940   19.5550 O.2   237  GLY237     -0.2717
    132  N        -38.3010  -21.4220   18.9490 N.am  238  VAL238     -0.1965
    133  CA       -37.8790  -20.0620   18.6530 C.3   238  VAL238      0.1727
    134  C        -38.4520  -19.6340   17.2970 C.2   238  VAL238      0.2617
    135  O        -38.7470  -18.4500   17.0840 O.2   238  VAL238     -0.2715
    136  CB       -36.3380  -19.9320   18.6890 C.3   238  VAL238      0.0290
    137  CG1      -35.9030  -18.5300   18.2470 C.3   238  VAL238      0.0023
    138  CG2      -35.8500  -20.1820   20.1130 C.3   238  VAL238      0.0023
    139  N        -38.6460  -20.5860   16.3870 N.am  239  THR239     -0.1937
    140  CA       -39.3030  -20.2380   15.1230 C.3   239  THR239      0.2028
    141  C        -40.7470  -19.8660   15.4050 C.2   239  THR239      0.2642
    142  O        -41.2550  -18.8670   14.8910 O.2   239  THR239     -0.2714
    143  CB       -39.2360  -21.3890   14.1100 C.3   239  THR239      0.1808
    144  OG1      -37.9060  -21.9320   14.1190 O.3   239  THR239     -0.2208
    145  CG2      -39.5630  -20.8790   12.7090 C.3   239  THR239      0.0379
    146  N        -41.3960  -20.6660   16.2480 N.am  240  ARG240     -0.1977
    147  CA       -42.7670  -20.3720   16.6500 C.3   240  ARG240      0.1597
    148  C        -42.8560  -18.9940   17.3120 C.2   240  ARG240      0.2287
    149  O        -43.7800  -18.2360   17.0550 O.2   240  ARG240     -0.2864
    150  CB       -43.2780  -21.4590   17.5970 C.3   240  ARG240      0.0334
    151  CG       -44.7610  -21.3340   17.9130 C.3   240  ARG240      0.0492
    152  CD       -45.1760  -22.3450   18.9760 C.3   240  ARG240      0.2205
    153  NE       -44.7770  -21.9140   20.3150 N.pl3 240  ARG240     -0.0865
    154  CZ       -45.2570  -22.4250   21.4400 C.cat 240  ARG240      0.5346
    155  NH1      -46.1440  -23.4080   21.3930 N.pl3 240  ARG240      0.1354
    156  NH2      -44.8460  -21.9550   22.6200 N.pl3 240  ARG240      0.1354
    157  N        -43.0530  -25.1950   11.5730 N.3   273  CYS273     -0.1221
    158  CA       -41.9540  -24.2450   11.7390 C.3   273  CYS273      0.1808
    159  C        -40.8470  -24.8250   12.6000 C.2   273  CYS273      0.2602
    160  O        -41.0920  -25.5660   13.5560 O.2   273  CYS273     -0.2717
    161  CB       -42.4610  -22.9120   12.3160 C.3   273  CYS273      0.0970
    162  SG       -43.3460  -23.0060   13.8960 S.3   273  CYS273     -0.0800
    163  N        -39.6130  -24.4810   12.2380 N.am  274  THR274     -0.1939
    164  CA       -38.4430  -25.0310   12.8940 C.3   274  THR274      0.2028
    165  C        -37.2170  -24.2410   12.4790 C.2   274  THR274      0.2642
    166  O        -37.1950  -23.6260   11.4120 O.2   274  THR274     -0.2714
    167  CB       -38.2300  -26.5030   12.5290 C.3   274  THR274      0.1808
    168  OG1      -37.1680  -27.0340   13.3230 O.3   274  THR274     -0.2208
    169  CG2      -37.8660  -26.6310   11.0470 C.3   274  THR274      0.0379
    170  N        -36.1930  -24.2600   13.3200 N.am  275  THR275     -0.1950
    171  CA       -34.9240  -23.6320   12.9400 C.3   275  THR275      0.1897
    172  C        -34.3230  -24.2990   11.7050 C.2   275  THR275      0.2313
    173  O        -33.7340  -23.6340   10.8560 O.2   275  THR275     -0.2863
    174  CB       -33.9350  -23.6990   14.0980 C.3   275  THR275      0.1794
    175  OG1      -34.4730  -22.9370   15.1780 O.3   275  THR275     -0.2208
    176  CG2      -32.5710  -23.0990   13.7180 C.3   275  THR275      0.0378
@<TRIPOS>BOND
     1   173   172    2
     2   169   167    1
     3   110   111   ar
     4   110   108   ar
     5   166   165    2
     6   111   109   ar
     7   157   158    1
     8   172   171    1
     9   108   106   ar
    10   158   161    1
    11   158   159    1
    12   109   107   ar
    13   163   159   am
    14   163   164    1
    15   106   107   ar
    16   106   105    1
    17   161   162    1
    18   165   164    1
    19   165   170   am
    20   167   164    1
    21   167   168    1
    22   159   160    2
    23   105   102    1
    24   145   143    1
    25   171   170    1
    26   171   174    1
    27   115   114    2
    28   100    99    2
    29   176   174    1
    30   174   175    1
    31   143   144    1
    32   143   140    1
    33   102   101    1
    34   102   103    1
    35    99   101   am
    36    99    98    1
    37    79    78    2
    38   114   113    1
    39    98    97    1
    40    74    75   ar
    41    74    72   ar
    42   142   141    2
    43    94    95    1
    44    94    93    1
    45   103   112   am
    46   103   104    2
    47    95    96    2
    48   140   141    1
    49   140   139    1
    50   112   113    1
    51    75    73   ar
    52   141   146   am
    53    78    77    1
    54   113   116    1
    55    93    86   am
    56    72    69   ar
    57   146   147    1
    58   139   134   am
    59   116   117    1
    60    73    71   ar
    61    86    87    2
    62    86    85    1
    63    77    80    1
    64    77    76    1
    65   147   148    1
    66   147   150    1
    67    80    81    1
    68   149   148    2
    69   135   134    2
    70    69    71   ar
    71    69    67   ar
    72   134   133    1
    73    71    70   ar
    74    85    88    1
    75    85    84    1
    76   150   151    1
    77    83    81    1
    78   117   118    2
    79   117   119   am
    80   151   152    1
    81    22    21   ar
    82    22    20   ar
    83    81    82    1
    84    88    89    1
    85    65    64    2
    86   137   136    1
    87    67    66    1
    88    67    68   ar
    89    66    63    1
    90    21    19   ar
    91   133   136    1
    92   133   132    1
    93    53    52    1
    94   136   138    1
    95    20    18   ar
    96    70    68   ar
    97    12    11    1
    98   132   130   am
    99   152   153    1
   100    89    90    1
   101    10    11   ar
   102    10     8   ar
   103   130   129    1
   104   130   131    2
   105    64    63    1
   106   129   128    1
   107    19    18   ar
   108    52    51    1
   109    63    62    1
   110    11     9   ar
   111    18    17    1
   112    91    90   ar
   113     8     6   ar
   114    90    92   ar
   115   153   154    2
   116    33    31    1
   117   127   125    1
   118    17    14    1
   119    40    41    1
   120    40    39    1
   121    34    35    1
   122     9     7   ar
   123    51    50    1
   124    41    42    2
   125    32    31    1
   126   123   122    2
   127   155   154    1
   128     6     7   ar
   129     6     5    1
   130   154   156    1
   131    31    30    2
   132    38    35    1
   133    38    39    1
   134   124   125    1
   135   124   121    1
   136    35    36    1
   137   125   126    1
   138    57    56    2
   139    42    43    1
   140    42    44    1
   141    50    49    1
   142    13    14    1
   143    14    15    1
   144   122   121    1
   145     5     2    1
   146   120   121    1
   147    30    29    1
   148    56    55    1
   149     3     4    2
   150     3     2    1
   151    36    37    2
   152    15    16    2
   153    49    46    1
   154     2     1    1
   155    54    55    1
   156    54    47   am
   157    29    28    1
   158    55    58    1
   159    60    59    2
   160    46    47    1
   161    46    45    1
   162    47    48    2
   163    59    58    1
   164    59    61   am
   165    27    28    1
   166    27    24    1
   167    23    24    1
   168    24    25    1
   169    25    26    2
