@<TRIPOS>MOLECULE
tmp/4ce9A01.pdb
 95 93 0 0 0
SMALL
GASTEIGER

@<TRIPOS>ATOM
      1  N         12.5870  -46.7470   -0.4310 N.3    37  THR37      -0.1218
      2  CA        11.8350  -47.6140    0.4330 C.3    37  THR37       0.1862
      3  C         10.8910  -46.7290    1.2350 C.2    37  THR37       0.2287
      4  O         11.0430  -45.4980    1.2410 O.2    37  THR37      -0.2866
      5  CB        12.7510  -48.4210    1.4060 C.3    37  THR37       0.1770
      6  OG1       13.4200  -47.5380    2.3140 O.3    37  THR37      -0.2211
      7  CG2       13.7710  -49.2520    0.6180 C.3    37  THR37       0.0375
      8  N         10.8030  -46.7130    4.5090 N.3    39  GLN39      -0.1231
      9  CA        11.6530  -46.1220    5.5480 C.3    39  GLN39       0.1698
     10  C         12.4080  -44.8700    5.1250 C.2    39  GLN39       0.2592
     11  O         12.4320  -43.8760    5.8670 O.2    39  GLN39      -0.2718
     12  CB        12.6480  -47.1160    6.1350 C.3    39  GLN39       0.0381
     13  CG        12.0940  -47.8310    7.3530 C.3    39  GLN39       0.0905
     14  CD        13.1030  -48.7240    8.0420 C.2    39  GLN39       0.2608
     15  OE1       12.9340  -49.9400    8.0540 O.2    39  GLN39      -0.2717
     16  NE2       14.1460  -48.1360    8.6190 N.am   39  GLN39      -0.0878
     17  N         13.0360  -44.9240    3.9600 N.am   40  GLU40      -0.1979
     18  CA        13.7630  -43.7610    3.4440 C.3    40  GLU40       0.1602
     19  C         12.8130  -42.6080    3.2520 C.2    40  GLU40       0.2287
     20  O         13.1290  -41.4840    3.6380 O.2    40  GLU40      -0.2864
     21  CB        14.4550  -44.0700    2.1130 C.3    40  GLU40       0.0415
     22  CG        15.6080  -45.0850    2.2260 C.3    40  GLU40       0.1163
     23  CD        16.8800  -44.5280    2.8490 C.2    40  GLU40       0.3649
     24  OE1       16.9210  -43.3650    3.3320 O.co2  40  GLU40      -0.2457
     25  OE2       17.8720  -45.2830    2.8650 O.co2  40  GLU40      -0.2457
     26  N          9.8130  -42.0570    4.6510 N.3    42  ALA42      -0.1231
     27  CA         9.3750  -41.6560    5.9840 C.3    42  ALA42       0.1694
     28  C         10.3750  -40.7450    6.6890 C.2    42  ALA42       0.2592
     29  O          9.9950  -39.7080    7.2160 O.2    42  ALA42      -0.2718
     30  CB         9.1200  -42.8870    6.8400 C.3    42  ALA42       0.0304
     31  N         11.6490  -41.1450    6.6810 N.am   43  TYR43      -0.1976
     32  CA        12.7150  -40.3800    7.2800 C.3    43  TYR43       0.1639
     33  C         12.8980  -39.0030    6.5990 C.2    43  TYR43       0.2290
     34  O         13.0740  -38.0000    7.2740 O.2    43  TYR43      -0.2864
     35  CB        14.0260  -41.2040    7.2750 C.3    43  TYR43       0.0560
     36  CG        15.1860  -40.4490    7.9350 C.ar   43  TYR43      -0.0198
     37  CD1       15.1960  -40.2490    9.3070 C.ar   43  TYR43      -0.0009
     38  CD2       16.2500  -39.9380    7.1760 C.ar   43  TYR43      -0.0009
     39  CE1       16.2290  -39.5740    9.9300 C.ar   43  TYR43       0.0417
     40  CE2       17.3140  -39.2120    7.8030 C.ar   43  TYR43       0.0417
     41  CZ        17.2730  -39.0450    9.1740 C.ar   43  TYR43       0.1957
     42  OH        18.2400  -38.3530    9.8370 O.3    43  TYR43      -0.2866
     43  N         10.0370  -36.6930    7.6380 N.3    46  LEU46      -0.1245
     44  CA        10.2870  -36.2510    9.0190 C.3    46  LEU46       0.1561
     45  C         11.2730  -35.0820    9.0510 C.2    46  LEU46       0.2260
     46  O         11.0570  -34.1030    9.7840 O.2    46  LEU46      -0.2867
     47  CB        10.7870  -37.4210    9.8790 C.3    46  LEU46       0.0270
     48  CG        11.1800  -37.2060   11.3410 C.3    46  LEU46       0.0019
     49  CD1       10.0180  -36.5900   12.1320 C.3    46  LEU46       0.0001
     50  CD2       11.6170  -38.5840   11.9390 C.3    46  LEU46       0.0001
     51  N          4.8790  -47.3410    7.1170 N.3    69  THR69      -0.1218
     52  CA         5.9670  -46.5010    7.6290 C.3    69  THR69       0.1862
     53  C          5.8250  -45.0410    7.1820 C.2    69  THR69       0.2287
     54  O          5.9690  -44.1250    8.0090 O.2    69  THR69      -0.2866
     55  CB         7.2900  -47.0960    7.2100 C.3    69  THR69       0.1770
     56  OG1        7.1930  -48.4840    7.4880 O.3    69  THR69      -0.2211
     57  CG2        8.4510  -46.5450    8.0130 C.3    69  THR69       0.0375
     58  N          2.9050  -43.6520    9.1090 N.3    72  ALA72      -0.1231
     59  CA         3.3840  -43.4300   10.4820 C.3    72  ALA72       0.1694
     60  C          4.1860  -42.1440   10.6010 C.2    72  ALA72       0.2591
     61  O          3.9340  -41.3640   11.5310 O.2    72  ALA72      -0.2718
     62  CB         4.1990  -44.6110   10.9760 C.3    72  ALA72       0.0304
     63  N          5.1120  -41.8780    9.6670 N.am   73  ALA73      -0.1980
     64  CA         5.8050  -40.5700    9.6450 C.3    73  ALA73       0.1597
     65  C          4.8370  -39.3960    9.4460 C.2    73  ALA73       0.2287
     66  O          4.9400  -38.3840   10.1200 O.2    73  ALA73      -0.2864
     67  CB         6.8740  -40.5470    8.5620 C.3    73  ALA73       0.0319
     68  N          1.6240  -39.3110   10.1650 N.3    75  TRP75      -0.1227
     69  CA         0.9650  -39.2050   11.4400 C.3    75  TRP75       0.1737
     70  C          1.8700  -38.4760   12.4310 C.2    75  TRP75       0.2595
     71  O          1.4410  -37.4740   13.0160 O.2    75  TRP75      -0.2718
     72  CB         0.4610  -40.5570   11.9840 C.3    75  TRP75       0.0564
     73  CG         0.0680  -40.3800   13.4500 C.ar   75  TRP75       0.0003
     74  CD1       -1.1070  -39.8450   13.9460 C.ar   75  TRP75       0.0946
     75  CD2        0.9080  -40.6260   14.5780 C.ar   75  TRP75       0.0152
     76  NE1       -1.0440  -39.7810   15.3280 N.ar   75  TRP75      -0.2442
     77  CE2        0.1810  -40.2340   15.7400 C.ar   75  TRP75       0.0810
     78  CE3        2.2080  -41.1700   14.7280 C.ar   75  TRP75       0.0012
     79  CZ2        0.7110  -40.3550   17.0360 C.ar   75  TRP75       0.0191
     80  CZ3        2.7420  -41.2910   16.0260 C.ar   75  TRP75       0.0001
     81  CH2        1.9860  -40.9030   17.1600 C.ar   75  TRP75       0.0015
     82  N          3.1060  -38.9550   12.6150 N.am   76  TRP76      -0.1976
     83  CA         4.0010  -38.3710   13.6190 C.3    76  TRP76       0.1640
     84  C          4.1480  -36.8530   13.4280 C.2    76  TRP76       0.2290
     85  O          4.0380  -36.0570   14.4060 O.2    76  TRP76      -0.2864
     86  CB         5.3840  -39.0620   13.6430 C.3    76  TRP76       0.0576
     87  CG         6.0870  -38.7840   14.9380 C.ar   76  TRP76       0.0006
     88  CD1        6.0770  -39.5710   16.0550 C.ar   76  TRP76       0.0946
     89  CD2        6.8170  -37.5990   15.2820 C.ar   76  TRP76       0.0152
     90  NE1        6.7610  -38.9480   17.0790 N.ar   76  TRP76      -0.2442
     91  CE2        7.2300  -37.7390   16.6270 C.ar   76  TRP76       0.0810
     92  CE3        7.1950  -36.4350   14.5680 C.ar   76  TRP76       0.0012
     93  CZ2        7.9850  -36.7460   17.2900 C.ar   76  TRP76       0.0191
     94  CZ3        7.9370  -35.4630   15.2160 C.ar   76  TRP76       0.0001
     95  CH2        8.3140  -35.6170   16.5710 C.ar   76  TRP76       0.0015
@<TRIPOS>BOND
     1     1     2    1
     2     2     3    1
     3     2     5    1
     4     7     5    1
     5     3     4    2
     6     5     6    1
     7    21    22    1
     8    21    18    1
     9    22    23    1
    10    23    25   ar
    11    23    24   ar
    12    19    18    1
    13    19    20    2
    14    18    17    1
    15    17    10   am
    16     8     9    1
    17    26    27    1
    18    10     9    1
    19    10    11    2
    20     9    12    1
    21    27    28    1
    22    27    30    1
    23    12    13    1
    24    33    34    2
    25    33    32    1
    26    31    28   am
    27    31    32    1
    28    28    29    2
    29    51    52    1
    30    38    40   ar
    31    38    36   ar
    32    53    52    1
    33    53    54    2
    34    55    56    1
    35    55    52    1
    36    55    57    1
    37    35    32    1
    38    35    36    1
    39    13    14    1
    40    43    44    1
    41    40    41   ar
    42    36    37   ar
    43    14    15    2
    44    14    16   am
    45    67    64    1
    46    44    45    1
    47    44    47    1
    48    45    46    2
    49    58    59    1
    50    41    42    1
    51    41    39   ar
    52    37    39   ar
    53    65    64    1
    54    65    66    2
    55    64    63    1
    56    63    60   am
    57    47    48    1
    58    68    69    1
    59    59    60    1
    60    59    62    1
    61    60    61    2
    62    48    50    1
    63    48    49    1
    64    69    72    1
    65    69    70    1
    66    72    73    1
    67    70    82   am
    68    70    71    2
    69    82    83    1
    70    84    83    1
    71    84    85    2
    72    73    74   ar
    73    73    75   ar
    74    83    86    1
    75    86    87    1
    76    74    76   ar
    77    92    94   ar
    78    92    89   ar
    79    75    78   ar
    80    75    77   ar
    81    78    80   ar
    82    87    89   ar
    83    87    88   ar
    84    94    95   ar
    85    89    91   ar
    86    76    77   ar
    87    77    79   ar
    88    80    81   ar
    89    88    90   ar
    90    95    93   ar
    91    91    90   ar
    92    91    93   ar
    93    79    81   ar
