@<TRIPOS>MOLECULE
tmp/4ceeB00.pdb
 95 93 0 0 0
SMALL
GASTEIGER

@<TRIPOS>ATOM
      1  N        -11.4270   32.9050  -11.4230 N.3    37  THR37      -0.1218
      2  CA       -11.8170   33.9910  -10.5370 C.3    37  THR37       0.1862
      3  C        -10.5910   34.3940   -9.7010 C.2    37  THR37       0.2287
      4  O         -9.5930   33.6710   -9.6700 O.2    37  THR37      -0.2866
      5  CB       -12.9500   33.5750   -9.5960 C.3    37  THR37       0.1770
      6  OG1      -12.4770   32.5720   -8.6830 O.3    37  THR37      -0.2211
      7  CG2      -14.1760   33.0110  -10.3900 C.3    37  THR37       0.0375
      8  N        -10.5220   34.4290   -6.4700 N.3    39  GLN39      -0.1231
      9  CA       -10.4540   33.4520   -5.4080 C.3    39  GLN39       0.1698
     10  C         -9.7380   32.1580   -5.8450 C.2    39  GLN39       0.2592
     11  O         -8.8970   31.6360   -5.1100 O.2    39  GLN39      -0.2718
     12  CB       -11.8370   33.1460   -4.8760 C.3    39  GLN39       0.0381
     13  CG       -11.7830   32.4210   -3.5830 C.3    39  GLN39       0.0905
     14  CD       -12.9970   32.6510   -2.7150 C.2    39  GLN39       0.2608
     15  OE1      -13.5460   31.7160   -2.1570 O.2    39  GLN39      -0.2717
     16  NE2      -13.3990   33.9060   -2.5720 N.am   39  GLN39      -0.0878
     17  N        -10.0790   31.6490   -7.0250 N.am   40  GLU40      -0.1979
     18  CA        -9.4160   30.4150   -7.5380 C.3    40  GLU40       0.1602
     19  C         -7.9430   30.6670   -7.6990 C.2    40  GLU40       0.2287
     20  O         -7.1150   29.8280   -7.3050 O.2    40  GLU40      -0.2864
     21  CB       -10.0080   29.9570   -8.8660 C.3    40  GLU40       0.0415
     22  CG       -11.4500   29.4430   -8.7650 C.3    40  GLU40       0.1163
     23  CD       -11.5960   28.0450   -8.1680 C.2    40  GLU40       0.3649
     24  OE1      -10.6380   27.4500   -7.6340 O.co2  40  GLU40      -0.2457
     25  OE2      -12.7310   27.5250   -8.2270 O.co2  40  GLU40      -0.2457
     26  N         -6.0350   32.9530   -6.2510 N.3    42  ALA42      -0.1231
     27  CA        -5.4490   33.1830   -4.9230 C.3    42  ALA42       0.1694
     28  C         -5.1310   31.8280   -4.2510 C.2    42  ALA42       0.2592
     29  O         -4.0150   31.6010   -3.7500 O.2    42  ALA42      -0.2718
     30  CB        -6.4520   33.9890   -4.0500 C.3    42  ALA42       0.0304
     31  N         -6.1030   30.9290   -4.2820 N.am   43  TYR43      -0.1976
     32  CA        -5.9330   29.6080   -3.6640 C.3    43  TYR43       0.1639
     33  C         -4.8210   28.8070   -4.3570 C.2    43  TYR43       0.2290
     34  O         -3.9830   28.1800   -3.6990 O.2    43  TYR43      -0.2864
     35  CB        -7.2520   28.8410   -3.6950 C.3    43  TYR43       0.0560
     36  CG        -7.1950   27.5120   -2.9460 C.ar   43  TYR43      -0.0198
     37  CD1       -7.0870   27.4780   -1.5560 C.ar   43  TYR43      -0.0009
     38  CD2       -7.2330   26.3080   -3.6340 C.ar   43  TYR43      -0.0009
     39  CE1       -7.0330   26.2470   -0.8500 C.ar   43  TYR43       0.0417
     40  CE2       -7.1910   25.0810   -2.9580 C.ar   43  TYR43       0.0417
     41  CZ        -7.0810   25.0570   -1.5810 C.ar   43  TYR43       0.1957
     42  OH        -7.0040   23.8580   -0.9230 O.3    43  TYR43      -0.2866
     43  N         -1.4730   30.2020   -3.2460 N.3    46  LEU46      -0.1245
     44  CA        -1.2350   29.7500   -1.8830 C.3    46  LEU46       0.1561
     45  C         -0.6540   28.3300   -1.8600 C.2    46  LEU46       0.2260
     46  O          0.3880   28.0790   -1.2150 O.2    46  LEU46      -0.2867
     47  CB        -2.5300   29.8790   -1.0540 C.3    46  LEU46       0.0270
     48  CG        -2.4210   29.4840    0.4050 C.3    46  LEU46       0.0019
     49  CD1       -1.2780   30.2240    1.1530 C.3    46  LEU46       0.0001
     50  CD2       -3.7730   29.6690    1.1150 C.3    46  LEU46       0.0001
     51  N         -8.3590   39.8290   -3.7440 N.3    69  THR69      -0.1218
     52  CA        -8.2230   38.4440   -3.2530 C.3    69  THR69       0.1862
     53  C         -6.8460   37.8620   -3.6140 C.2    69  THR69       0.2287
     54  O         -6.1790   37.2430   -2.7670 O.2    69  THR69      -0.2866
     55  CB        -9.3810   37.5620   -3.7480 C.3    69  THR69       0.1770
     56  OG1      -10.6190   38.1740   -3.3740 O.3    69  THR69      -0.2211
     57  CG2       -9.3350   36.1880   -3.1020 C.3    69  THR69       0.0375
     58  N         -4.1890   39.7670   -1.6200 N.3    72  ALA72      -0.1231
     59  CA        -4.1600   39.3040   -0.2220 C.3    72  ALA72       0.1694
     60  C         -3.4200   37.9760   -0.0880 C.2    72  ALA72       0.2591
     61  O         -2.6250   37.8130    0.8410 O.2    72  ALA72      -0.2718
     62  CB        -5.5690   39.2380    0.3630 C.3    72  ALA72       0.0304
     63  N         -3.6590   37.0310   -1.0080 N.am   73  ALA73      -0.1980
     64  CA        -2.8990   35.7660   -1.0010 C.3    73  ALA73       0.1597
     65  C         -1.4200   35.9700   -1.2630 C.2    73  ALA73       0.2287
     66  O         -0.5770   35.3430   -0.6020 O.2    73  ALA73      -0.2864
     67  CB        -3.5020   34.7370   -1.9980 C.3    73  ALA73       0.0319
     68  N          0.3190   38.6980   -0.6170 N.3    75  TRP75      -0.1227
     69  CA         0.8220   39.2750    0.6310 C.3    75  TRP75       0.1737
     70  C          1.0630   38.1480    1.6550 C.2    75  TRP75       0.2595
     71  O          2.1490   38.0470    2.2500 O.2    75  TRP75      -0.2718
     72  CB        -0.1380   40.3260    1.1850 C.3    75  TRP75       0.0564
     73  CG         0.2560   40.6230    2.6150 C.ar   75  TRP75       0.0003
     74  CD1        1.2850   41.4260    3.0480 C.ar   75  TRP75       0.0946
     75  CD2       -0.3310   40.0460    3.7820 C.ar   75  TRP75       0.0152
     76  NE1        1.3600   41.3820    4.4300 N.ar   75  TRP75      -0.2442
     77  CE2        0.3910   40.5390    4.9040 C.ar   75  TRP75       0.0810
     78  CE3       -1.4020   39.1600    3.9920 C.ar   75  TRP75       0.0012
     79  CZ2        0.0790   40.1710    6.2170 C.ar   75  TRP75       0.0191
     80  CZ3       -1.7220   38.7900    5.3110 C.ar   75  TRP75       0.0001
     81  CH2       -0.9750   39.3030    6.4070 C.ar   75  TRP75       0.0015
     82  N          0.0680   37.2800    1.8280 N.am   76  TRP76      -0.1976
     83  CA         0.1310   36.2570    2.8740 C.3    76  TRP76       0.1640
     84  C          1.3430   35.3620    2.6440 C.2    76  TRP76       0.2290
     85  O          2.1350   35.1140    3.5580 O.2    76  TRP76      -0.2864
     86  CB        -1.1820   35.4400    2.9570 C.3    76  TRP76       0.0576
     87  CG        -1.2260   34.6920    4.2450 C.ar   76  TRP76       0.0006
     88  CD1       -1.8260   35.1000    5.4070 C.ar   76  TRP76       0.0946
     89  CD2       -0.5580   33.4580    4.5310 C.ar   76  TRP76       0.0152
     90  NE1       -1.6020   34.1530    6.3940 N.ar   76  TRP76      -0.2442
     91  CE2       -0.8500   33.1270    5.8690 C.ar   76  TRP76       0.0810
     92  CE3        0.2000   32.5540    3.7520 C.ar   76  TRP76       0.0012
     93  CZ2       -0.3320   31.9750    6.4910 C.ar   76  TRP76       0.0191
     94  CZ3        0.7050   31.3840    4.3670 C.ar   76  TRP76       0.0001
     95  CH2        0.4330   31.1190    5.7310 C.ar   76  TRP76       0.0015
@<TRIPOS>BOND
     1     1     2    1
     2     2     3    1
     3     2     5    1
     4     7     5    1
     5     3     4    2
     6     5     6    1
     7    21    22    1
     8    21    18    1
     9    22    23    1
    10    25    23   ar
    11    23    24   ar
    12    19    18    1
    13    19    20    2
    14    18    17    1
    15    17    10   am
    16     8     9    1
    17    26    27    1
    18    10     9    1
    19    10    11    2
    20     9    12    1
    21    27    28    1
    22    27    30    1
    23    12    13    1
    24    33    34    2
    25    33    32    1
    26    31    28   am
    27    31    32    1
    28    28    29    2
    29    55    56    1
    30    55    52    1
    31    55    57    1
    32    51    52    1
    33    35    32    1
    34    35    36    1
    35    38    40   ar
    36    38    36   ar
    37    53    52    1
    38    53    54    2
    39    13    14    1
    40    43    44    1
    41    40    41   ar
    42    36    37   ar
    43    14    16   am
    44    14    15    2
    45    67    64    1
    46    44    45    1
    47    44    47    1
    48    45    46    2
    49    58    59    1
    50    41    42    1
    51    41    39   ar
    52    37    39   ar
    53    65    64    1
    54    65    66    2
    55    47    48    1
    56    63    64    1
    57    63    60   am
    58    68    69    1
    59    59    60    1
    60    59    62    1
    61    60    61    2
    62    48    50    1
    63    48    49    1
    64    69    72    1
    65    69    70    1
    66    72    73    1
    67    70    82   am
    68    70    71    2
    69    82    83    1
    70    73    74   ar
    71    73    75   ar
    72    84    83    1
    73    84    85    2
    74    83    86    1
    75    86    87    1
    76    74    76   ar
    77    92    94   ar
    78    92    89   ar
    79    75    78   ar
    80    75    77   ar
    81    78    80   ar
    82    87    89   ar
    83    87    88   ar
    84    94    95   ar
    85    76    77   ar
    86    89    91   ar
    87    77    79   ar
    88    80    81   ar
    89    88    90   ar
    90    95    93   ar
    91    91    90   ar
    92    91    93   ar
    93    79    81   ar
