@<TRIPOS>MOLECULE
tmp/4cesA01.pdb
 95 93 0 0 0
SMALL
GASTEIGER

@<TRIPOS>ATOM
      1  N         11.3250    8.1510    1.1050 N.3    37  THR37      -0.1218
      2  CA        11.7320    7.0540    1.9660 C.3    37  THR37       0.1862
      3  C         10.4990    6.6670    2.7720 C.2    37  THR37       0.2287
      4  O          9.5250    7.4320    2.8170 O.2    37  THR37      -0.2866
      5  CB        12.8410    7.4470    2.9770 C.3    37  THR37       0.1770
      6  OG1       12.3450    8.4590    3.8700 O.3    37  THR37      -0.2211
      7  CG2       14.1310    7.9520    2.2640 C.3    37  THR37       0.0375
      8  N         10.4360    6.5290    5.9960 N.3    39  GLN39      -0.1231
      9  CA        10.3610    7.4910    7.0860 C.3    39  GLN39       0.1698
     10  C          9.6510    8.8030    6.6770 C.2    39  GLN39       0.2592
     11  O          8.8260    9.3290    7.4270 O.2    39  GLN39      -0.2718
     12  CB        11.7430    7.8060    7.6010 C.3    39  GLN39       0.0381
     13  CG        11.7080    8.4710    8.9470 C.3    39  GLN39       0.0905
     14  CD        13.0240    8.3650    9.6980 C.2    39  GLN39       0.2608
     15  OE1       13.3830    7.3030   10.1910 O.2    39  GLN39      -0.2717
     16  NE2       13.7310    9.4710    9.8040 N.am   39  GLN39      -0.0878
     17  N         10.0100    9.3450    5.5220 N.am   40  GLU40      -0.1979
     18  CA         9.3600   10.6080    5.0430 C.3    40  GLU40       0.1602
     19  C          7.8830   10.3640    4.8620 C.2    40  GLU40       0.2287
     20  O          7.0500   11.1880    5.2530 O.2    40  GLU40      -0.2864
     21  CB         9.9640   11.1060    3.7250 C.3    40  GLU40       0.0415
     22  CG        11.4040   11.6170    3.8380 C.3    40  GLU40       0.1163
     23  CD        11.5520   13.0420    4.3990 C.2    40  GLU40       0.3649
     24  OE1       10.6180   13.6280    5.0020 O.co2  40  GLU40      -0.2457
     25  OE2       12.6720   13.5710    4.2390 O.co2  40  GLU40      -0.2457
     26  N          5.9580    8.0540    6.2330 N.3    42  ALA42      -0.1231
     27  CA         5.3520    7.8500    7.5630 C.3    42  ALA42       0.1694
     28  C          5.0560    9.2020    8.2460 C.2    42  ALA42       0.2592
     29  O          3.9720    9.4180    8.8030 O.2    42  ALA42      -0.2718
     30  CB         6.3000    7.0220    8.4470 C.3    42  ALA42       0.0304
     31  N          6.0410   10.0960    8.2150 N.am   43  TYR43      -0.1976
     32  CA         5.8850   11.4040    8.8760 C.3    43  TYR43       0.1639
     33  C          4.7700   12.2110    8.1950 C.2    43  TYR43       0.2290
     34  O          3.9580   12.8700    8.8420 O.2    43  TYR43      -0.2864
     35  CB         7.2070   12.1580    8.8710 C.3    43  TYR43       0.0560
     36  CG         7.1370   13.4920    9.5950 C.ar   43  TYR43      -0.0198
     37  CD1        6.9790   13.5390   10.9710 C.ar   43  TYR43      -0.0009
     38  CD2        7.2070   14.6930    8.8860 C.ar   43  TYR43      -0.0009
     39  CE1        6.9180   14.7770   11.6640 C.ar   43  TYR43       0.0417
     40  CE2        7.1260   15.9380    9.5540 C.ar   43  TYR43       0.0417
     41  CZ         6.9750   15.9590   10.9390 C.ar   43  TYR43       0.1957
     42  OH         6.8770   17.1500   11.6100 O.3    43  TYR43      -0.2866
     43  N          1.4270   10.9000    9.3250 N.3    46  LEU46      -0.1245
     44  CA         1.1440   11.3230   10.6880 C.3    46  LEU46       0.1561
     45  C          0.5910   12.7550   10.6760 C.2    46  LEU46       0.2260
     46  O         -0.4270   13.0330   11.3150 O.2    46  LEU46      -0.2867
     47  CB         2.4130   11.2040   11.5230 C.3    46  LEU46       0.0270
     48  CG         2.2990   11.6960   12.9500 C.3    46  LEU46       0.0019
     49  CD1        1.1230   10.9760   13.6790 C.3    46  LEU46       0.0001
     50  CD2        3.6250   11.4530   13.6580 C.3    46  LEU46       0.0001
     51  N          8.1110    1.2330    8.6900 N.3    69  THR69      -0.1218
     52  CA         7.9020    2.5800    9.2500 C.3    69  THR69       0.1862
     53  C          6.5540    3.1550    8.8300 C.2    69  THR69       0.2287
     54  O          5.8370    3.7590    9.6490 O.2    69  THR69      -0.2866
     55  CB         9.0240    3.5440    8.8660 C.3    69  THR69       0.1770
     56  OG1       10.2800    2.9320    9.1710 O.3    69  THR69      -0.2211
     57  CG2        8.9060    4.8250    9.6940 C.3    69  THR69       0.0375
     58  N          3.9580    1.3050   10.7220 N.3    72  ALA72      -0.1231
     59  CA         3.9370    1.7700   12.1180 C.3    72  ALA72       0.1694
     60  C          3.1690    3.0830   12.2330 C.2    72  ALA72       0.2591
     61  O          2.4060    3.2470   13.1700 O.2    72  ALA72      -0.2718
     62  CB         5.3620    1.9170   12.6570 C.3    72  ALA72       0.0304
     63  N          3.3760    4.0230   11.2880 N.am   73  ALA73      -0.1980
     64  CA         2.6050    5.2780   11.2790 C.3    73  ALA73       0.1597
     65  C          1.1180    5.0320   11.0710 C.2    73  ALA73       0.2287
     66  O          0.2720    5.6380   11.7510 O.2    73  ALA73      -0.2864
     67  CB         3.1310    6.2510   10.1680 C.3    73  ALA73       0.0319
     68  N         -0.5240    2.2740   11.7640 N.3    75  TRP75      -0.1227
     69  CA        -1.0120    1.7130   13.0340 C.3    75  TRP75       0.1737
     70  C         -1.2390    2.8510   14.0440 C.2    75  TRP75       0.2595
     71  O         -2.2980    2.9360   14.6840 O.2    75  TRP75      -0.2718
     72  CB        -0.0390    0.6710   13.6030 C.3    75  TRP75       0.0564
     73  CG        -0.3880    0.3970   15.0470 C.ar   75  TRP75       0.0003
     74  CD1       -1.4210   -0.3790   15.5210 C.ar   75  TRP75       0.0946
     75  CD2        0.2370    0.9920   16.1920 C.ar   75  TRP75       0.0152
     76  NE1       -1.4490   -0.3150   16.9150 N.ar   75  TRP75      -0.2442
     77  CE2       -0.4610    0.5280   17.3450 C.ar   75  TRP75       0.0810
     78  CE3        1.3130    1.8750   16.3550 C.ar   75  TRP75       0.0012
     79  CZ2       -0.1010    0.9130   18.6450 C.ar   75  TRP75       0.0191
     80  CZ3        1.6800    2.2640   17.6570 C.ar   75  TRP75       0.0001
     81  CH2        0.9640    1.7820   18.7780 C.ar   75  TRP75       0.0015
     82  N         -0.2440    3.7320   14.1820 N.am   76  TRP76      -0.1976
     83  CA        -0.2770    4.7480   15.2300 C.3    76  TRP76       0.1640
     84  C         -1.4970    5.6440   15.0420 C.2    76  TRP76       0.2290
     85  O         -2.2260    5.9390   16.0030 O.2    76  TRP76      -0.2864
     86  CB         1.0520    5.5650   15.3100 C.3    76  TRP76       0.0576
     87  CG         1.1230    6.3280   16.6170 C.ar   76  TRP76       0.0006
     88  CD1        1.7750    5.9310   17.7470 C.ar   76  TRP76       0.0946
     89  CD2        0.4640    7.5550   16.9330 C.ar   76  TRP76       0.0152
     90  NE1        1.5600    6.8500   18.7620 N.ar   76  TRP76      -0.2442
     91  CE2        0.7840    7.8700   18.2800 C.ar   76  TRP76       0.0810
     92  CE3       -0.3270    8.4560   16.1960 C.ar   76  TRP76       0.0012
     93  CZ2        0.2750    9.0100   18.9310 C.ar   76  TRP76       0.0191
     94  CZ3       -0.8010    9.6210   16.8420 C.ar   76  TRP76       0.0001
     95  CH2       -0.5130    9.8630   18.1990 C.ar   76  TRP76       0.0015
@<TRIPOS>BOND
     1     1     2    1
     2     2     3    1
     3     2     5    1
     4     7     5    1
     5     3     4    2
     6     5     6    1
     7    21    22    1
     8    21    18    1
     9    22    23    1
    10    25    23   ar
    11    23    24   ar
    12    19    18    1
    13    19    20    2
    14    18    17    1
    15    17    10   am
    16     8     9    1
    17    26    27    1
    18    10     9    1
    19    10    11    2
    20     9    12    1
    21    27    28    1
    22    27    30    1
    23    12    13    1
    24    33    34    2
    25    33    32    1
    26    31    28   am
    27    31    32    1
    28    28    29    2
    29    51    52    1
    30    53    52    1
    31    53    54    2
    32    55    56    1
    33    55    52    1
    34    55    57    1
    35    35    32    1
    36    35    36    1
    37    38    40   ar
    38    38    36   ar
    39    13    14    1
    40    43    44    1
    41    40    41   ar
    42    36    37   ar
    43    14    16   am
    44    14    15    2
    45    67    64    1
    46    45    44    1
    47    45    46    2
    48    44    47    1
    49    58    59    1
    50    41    42    1
    51    41    39   ar
    52    37    39   ar
    53    65    64    1
    54    65    66    2
    55    64    63    1
    56    63    60   am
    57    47    48    1
    58    68    69    1
    59    59    60    1
    60    59    62    1
    61    60    61    2
    62    48    50    1
    63    48    49    1
    64    69    72    1
    65    69    70    1
    66    72    73    1
    67    70    82   am
    68    70    71    2
    69    82    83    1
    70    84    83    1
    71    84    85    2
    72    73    74   ar
    73    73    75   ar
    74    83    86    1
    75    86    87    1
    76    74    76   ar
    77    75    78   ar
    78    75    77   ar
    79    92    94   ar
    80    92    89   ar
    81    78    80   ar
    82    87    89   ar
    83    87    88   ar
    84    94    95   ar
    85    76    77   ar
    86    89    91   ar
    87    77    79   ar
    88    80    81   ar
    89    88    90   ar
    90    95    93   ar
    91    91    90   ar
    92    91    93   ar
    93    79    81   ar
