@<TRIPOS>MOLECULE
tmp/4cevA00.pdb
 132 122 0 0 0
SMALL
GASTEIGER

@<TRIPOS>ATOM
      1  N         20.9570   86.3610   38.4150 N.3    98  HIS98      -0.1241
      2  CA        21.8300   86.1030   39.5490 C.3    98  HIS98       0.1621
      3  C         22.6870   84.8340   39.5410 C.2    98  HIS98       0.2264
      4  O         23.6100   84.7080   40.3490 O.2    98  HIS98      -0.2867
      5  CB        21.0370   86.1950   40.8550 C.3    98  HIS98       0.0745
      6  CG        21.7500   86.9540   41.9310 C.ar   98  HIS98       0.0817
      7  ND1       21.0900   87.6060   42.9510 N.ar   98  HIS98      -0.2268
      8  CD2       23.0690   87.1860   42.1270 C.ar   98  HIS98       0.1154
      9  CE1       21.9750   88.2090   43.7240 C.ar   98  HIS98       0.1986
     10  NE2       23.1810   87.9690   43.2460 N.ar   98  HIS98      -0.2212
     11  N         15.5390   88.2030   47.6610 N.3   123  HIS123     -0.1241
     12  CA        15.6200   86.7570   47.8520 C.3   123  HIS123      0.1621
     13  C         16.9220   86.3410   48.5300 C.2   123  HIS123      0.2264
     14  O         17.8700   87.1250   48.6170 O.2   123  HIS123     -0.2867
     15  CB        15.5290   86.0630   46.4990 C.3   123  HIS123      0.0745
     16  CG        14.4340   86.5900   45.6310 C.ar  123  HIS123      0.0817
     17  ND1       14.6320   87.6020   44.7160 N.ar  123  HIS123     -0.2268
     18  CD2       13.1240   86.2650   45.5570 C.ar  123  HIS123      0.1154
     19  CE1       13.4890   87.8750   44.1160 C.ar  123  HIS123      0.1986
     20  NE2       12.5580   87.0770   44.6080 N.ar  123  HIS123     -0.2212
     21  N         18.5270   83.3130   47.6210 N.3   125  ASP125     -0.1239
     22  CA        19.3110   82.5980   46.6280 C.3   125  ASP125      0.1674
     23  C         20.1190   81.4400   47.2090 C.2   125  ASP125      0.2266
     24  O         21.2200   81.1170   46.7380 O.2   125  ASP125     -0.2867
     25  CB        20.2020   83.5750   45.8590 C.3   125  ASP125      0.1410
     26  CG        19.4070   84.5040   44.9830 C.2   125  ASP125      0.3668
     27  OD1       18.2880   84.1230   44.5720 O.co2 125  ASP125     -0.2456
     28  OD2       19.8890   85.6240   44.7070 O.co2 125  ASP125     -0.2456
     29  N         18.7950   78.1760   47.5680 N.3   127  ASN127     -0.1240
     30  CA        18.0600   76.9630   47.2600 C.3   127  ASN127      0.1653
     31  C         18.9800   75.9500   46.5760 C.2   127  ASN127      0.2266
     32  O         20.0210   76.3090   46.0030 O.2   127  ASN127     -0.2867
     33  CB        16.9090   77.2690   46.3100 C.3   127  ASN127      0.1155
     34  CG        15.6030   77.4410   47.0170 C.2   127  ASN127      0.2627
     35  OD1       15.3640   76.8310   48.0600 O.2   127  ASN127     -0.2716
     36  ND2       14.7220   78.2550   46.4400 N.am  127  ASN127     -0.0877
     37  N         14.6430   73.8700   45.7610 N.3   132  SER132     -0.1203
     38  CA        14.1400   74.8110   44.7770 C.3   132  SER132      0.2005
     39  C         12.7390   74.4820   44.3060 C.2   132  SER132      0.2461
     40  O         12.4540   73.3480   43.9200 O.2   132  SER132     -0.2732
     41  CB        15.0690   74.8950   43.5830 C.3   132  SER132      0.2103
     42  OG        14.5480   75.8110   42.6430 O.3   132  SER132     -0.2182
     43  N         11.8350   75.4690   44.3510 N.am  133  PRO133     -0.2717
     44  CA        10.4550   75.2600   43.9160 C.3   133  PRO133      0.1535
     45  C         10.2960   75.5030   42.4240 C.2   133  PRO133      0.2599
     46  O          9.2530   75.1770   41.8550 O.2   133  PRO133     -0.2715
     47  CB         9.7000   76.3260   44.7050 C.3   133  PRO133      0.0310
     48  CG        10.6530   77.4540   44.7030 C.3   133  PRO133      0.0237
     49  CD        11.9790   76.7780   45.0120 C.3   133  PRO133      0.0939
     50  N         11.3460   76.0330   41.7890 N.am  134  SER134     -0.1950
     51  CA        11.3060   76.3890   40.3680 C.3   134  SER134      0.1924
     52  C         12.3160   75.6950   39.4660 C.2   134  SER134      0.2314
     53  O         12.1040   75.5710   38.2540 O.2   134  SER134     -0.2863
     54  CB        11.5410   77.8800   40.2460 C.3   134  SER134      0.2116
     55  OG        12.8310   78.1610   40.7360 O.3   134  SER134     -0.2180
     56  N         15.0120   76.9670   38.9340 N.3   136  ASN136     -0.1240
     57  CA        15.7600   78.1070   38.4110 C.3   136  ASN136      0.1653
     58  C         17.0780   78.3050   39.1410 C.2   136  ASN136      0.2266
     59  O         17.0950   78.7010   40.3060 O.2   136  ASN136     -0.2867
     60  CB        14.9410   79.4010   38.5090 C.3   136  ASN136      0.1155
     61  CG        13.7250   79.4010   37.6080 C.2   136  ASN136      0.2627
     62  OD1       13.7190   78.7770   36.5510 O.2   136  ASN136     -0.2716
     63  ND2       12.6950   80.1290   38.0140 N.am  136  ASN136     -0.0877
     64  N         19.1290   80.6970   39.0710 N.3   138  HIS138     -0.1226
     65  CA        19.3850   82.0310   39.6020 C.3   138  HIS138      0.1752
     66  C         18.9660   82.1190   41.0660 C.2   138  HIS138      0.2596
     67  O         19.2550   83.1150   41.7290 O.2   138  HIS138     -0.2718
     68  CB        18.6730   83.1190   38.7910 C.3   138  HIS138      0.0759
     69  CG        17.2180   83.2770   39.1120 C.ar  138  HIS138      0.0818
     70  ND1       16.5860   84.5000   39.0910 N.ar  138  HIS138     -0.2268
     71  CD2       16.2650   82.3680   39.4370 C.ar  138  HIS138      0.1154
     72  CE1       15.3060   84.3400   39.3820 C.ar  138  HIS138      0.1986
     73  NE2       15.0860   83.0560   39.5990 N.ar  138  HIS138     -0.2212
     74  N         18.2440   81.0960   41.5380 N.am  139  GLY139     -0.1957
     75  CA        17.8010   81.0490   42.9210 C.3   139  GLY139      0.1869
     76  C         18.6550   80.1520   43.8050 C.2   139  GLY139      0.2309
     77  O         18.2390   79.8230   44.9170 O.2   139  GLY139     -0.2863
     78  N         11.5120   87.5760   50.6240 N.3   175  SER175     -0.1217
     79  CA        10.9050   86.4590   49.9260 C.3   175  SER175      0.1889
     80  C         11.7880   85.2370   49.9440 C.2   175  SER175      0.2288
     81  O         12.5600   85.0090   49.0140 O.2   175  SER175     -0.2866
     82  CB        10.6060   86.8320   48.4850 C.3   175  SER175      0.2089
     83  OG        10.0630   85.7170   47.8140 O.3   175  SER175     -0.2183
     84  N         12.0300   80.9150   50.4330 N.3   177  ASP177     -0.1239
     85  CA        11.3090   79.6430   50.4030 C.3   177  ASP177      0.1674
     86  C         11.5960   78.9810   51.7360 C.2   177  ASP177      0.2266
     87  O         12.5840   79.3150   52.3970 O.2   177  ASP177     -0.2867
     88  CB        11.8020   78.7490   49.2680 C.3   177  ASP177      0.1410
     89  CG        11.4510   79.2970   47.9010 C.2   177  ASP177      0.3668
     90  OD1       10.2680   79.5930   47.6740 O.co2 177  ASP177     -0.2456
     91  OD2       12.3520   79.4470   47.0520 O.co2 177  ASP177     -0.2456
     92  N         14.9550   77.5650   52.2470 N.3   180  GLU180     -0.1245
     93  CA        15.9040   78.6570   52.4120 C.3   180  GLU180      0.1567
     94  C         15.8770   79.2500   53.8130 C.2   180  GLU180      0.2260
     95  O         16.9250   79.6010   54.3430 O.2   180  GLU180     -0.2867
     96  CB        15.6170   79.7680   51.4300 C.3   180  GLU180      0.0388
     97  CG        15.7430   79.4000   49.9910 C.3   180  GLU180      0.1160
     98  CD        15.5920   80.6200   49.1210 C.2   180  GLU180      0.3649
     99  OE1       14.4480   81.1090   48.9830 O.co2 180  GLU180     -0.2457
    100  OE2       16.6250   81.1140   48.6140 O.co2 180  GLU180     -0.2457
    101  N         21.5420   92.6870   43.6150 N.3   225  ASP225     -0.1239
    102  CA        20.4070   92.3070   42.7740 C.3   225  ASP225      0.1674
    103  C         19.4380   93.4890   42.7740 C.2   225  ASP225      0.2266
    104  O         18.9430   93.9060   43.8200 O.2   225  ASP225     -0.2867
    105  CB        19.7230   91.0520   43.3380 C.3   225  ASP225      0.1410
    106  CG        18.5490   90.5470   42.4730 C.2   225  ASP225      0.3668
    107  OD1       18.0310   91.2920   41.6160 O.co2 225  ASP225     -0.2456
    108  OD2       18.1100   89.3930   42.6840 O.co2 225  ASP225     -0.2456
    109  N         16.3850   93.7000   42.1320 N.3   227  ASP227     -0.1239
    110  CA        15.0450   93.4440   42.6870 C.3   227  ASP227      0.1674
    111  C         15.0030   93.6440   44.2040 C.2   227  ASP227      0.2266
    112  O         13.9530   93.4810   44.8470 O.2   227  ASP227     -0.2867
    113  CB        14.4430   92.0780   42.2520 C.3   227  ASP227      0.1410
    114  CG        15.1060   90.8710   42.9010 C.2   227  ASP227      0.3668
    115  OD1       15.6090   90.9740   44.0320 O.co2 227  ASP227     -0.2456
    116  OD2       15.1000   89.7860   42.2810 O.co2 227  ASP227     -0.2456
    117  N         11.7600   88.7790   38.7180 N.3   239  THR239     -0.1218
    118  CA        11.0230   88.2930   39.8840 C.3   239  THR239      0.1862
    119  C         10.9360   89.3740   40.9560 C.2   239  THR239      0.2287
    120  O         11.5490   89.2920   42.0150 O.2   239  THR239     -0.2866
    121  CB        11.6330   86.9920   40.4710 C.3   239  THR239      0.1770
    122  OG1       12.9310   87.2690   40.9850 O.3   239  THR239     -0.2211
    123  CG2       11.7850   85.9320   39.3930 C.3   239  THR239      0.0375
    124  N         20.2280   91.0860   37.4520 N.3   270  GLU270     -0.1245
    125  CA        18.7940   91.0310   37.1960 C.3   270  GLU270      0.1567
    126  C         18.1430   92.1870   36.4460 C.2   270  GLU270      0.2260
    127  O         16.9190   92.2880   36.3810 O.2   270  GLU270     -0.2867
    128  CB        18.0580   90.7390   38.5010 C.3   270  GLU270      0.0388
    129  CG        18.4120   89.3920   39.1460 C.3   270  GLU270      0.1160
    130  CD        17.6700   88.2240   38.5230 C.2   270  GLU270      0.3649
    131  OE1       16.5290   88.4180   38.0430 O.co2 270  GLU270     -0.2457
    132  OE2       18.2140   87.1010   38.5390 O.co2 270  GLU270     -0.2457
@<TRIPOS>BOND
     1   127   126    2
     2   126   125    1
     3    62    61    2
     4   125   124    1
     5   125   128    1
     6    61    63   am
     7    61    60    1
     8   131   130   ar
     9    53    52    2
    10    57    60    1
    11    57    56    1
    12    57    58    1
    13     1     2    1
    14   128   129    1
    15   130   132   ar
    16   130   129    1
    17   117   118    1
    18    68    69    1
    19    68    65    1
    20    64    65    1
    21    70    69   ar
    22    70    72   ar
    23    69    71   ar
    24    58    59    2
    25    72    73   ar
    26   123   121    1
    27    71    73   ar
    28    52    51    1
    29     3     2    1
    30     3     4    2
    31     2     5    1
    32    65    66    1
    33   118   121    1
    34   118   119    1
    35    54    51    1
    36    54    55    1
    37    51    50    1
    38   121   122    1
    39     5     6    1
    40   119   120    2
    41    66    74   am
    42    66    67    2
    43    74    75    1
    44   107   106   ar
    45    50    45   am
    46    46    45    2
    47     6     8   ar
    48     6     7   ar
    49     8    10   ar
    50   109   110    1
    51   113   110    1
    52   113   114    1
    53   116   114   ar
    54    45    44    1
    55   106   108   ar
    56   106   105    1
    57    42    41    1
    58   110   111    1
    59   103   102    1
    60   103   104    2
    61   102   105    1
    62   102   101    1
    63   114   115   ar
    64    75    76    1
    65     7     9   ar
    66    10     9   ar
    67    41    38    1
    68    76    77    2
    69    44    43    1
    70    44    47    1
    71    40    39    2
    72    19    20   ar
    73    19    17   ar
    74   111   112    2
    75    39    43   am
    76    39    38    1
    77    43    49    1
    78    27    26   ar
    79    20    18   ar
    80    48    47    1
    81    48    49    1
    82    28    26   ar
    83    17    16   ar
    84    38    37    1
    85    26    25    1
    86    18    16   ar
    87    16    15    1
    88    25    22    1
    89    32    31    2
    90    33    34    1
    91    33    30    1
    92    36    34   am
    93    15    12    1
    94    31    30    1
    95    22    23    1
    96    22    21    1
    97    24    23    2
    98    34    35    2
    99    91    89   ar
   100    30    29    1
   101    11    12    1
   102    90    89   ar
   103    83    82    1
   104    12    13    1
   105    89    88    1
   106    82    79    1
   107    13    14    2
   108   100    98   ar
   109    99    98   ar
   110    81    80    2
   111    98    97    1
   112    88    85    1
   113    79    80    1
   114    79    78    1
   115    97    96    1
   116    85    84    1
   117    85    86    1
   118    96    93    1
   119    86    87    2
   120    92    93    1
   121    93    94    1
   122    94    95    2
