@<TRIPOS>MOLECULE
tmp/4cewA00.pdb
 244 238 0 0 0
SMALL
GASTEIGER

@<TRIPOS>ATOM
      1  N         98.0710  270.4960   97.2570 N.3   109  TRP109     -0.1241
      2  CA        99.5020  270.7060   97.3850 C.3   109  TRP109      0.1605
      3  C        100.2580  269.5270   96.7770 C.2   109  TRP109      0.2264
      4  O        100.0370  268.3810   97.1700 O.2   109  TRP109     -0.2867
      5  CB        99.8570  270.8540   98.8670 C.3   109  TRP109      0.0550
      6  CG       101.3150  271.0780   99.1330 C.ar  109  TRP109      0.0003
      7  CD1      102.0600  272.1600   98.7620 C.ar  109  TRP109      0.0946
      8  CD2      102.2090  270.1900   99.8210 C.ar  109  TRP109      0.0152
      9  NE1      103.3620  272.0020   99.1740 N.ar  109  TRP109     -0.2442
     10  CE2      103.4820  270.8020   99.8260 C.ar  109  TRP109      0.0810
     11  CE3      102.0570  268.9370  100.4320 C.ar  109  TRP109      0.0012
     12  CZ2      104.6030  270.2020  100.4210 C.ar  109  TRP109      0.0191
     13  CZ3      103.1710  268.3390  101.0230 C.ar  109  TRP109      0.0001
     14  CH2      104.4270  268.9740  101.0120 C.ar  109  TRP109      0.0015
     15  N        102.9880  267.0820   96.5970 N.3   111  ILE111     -0.1231
     16  CA       103.9450  266.6020   97.5750 C.3   111  ILE111      0.1692
     17  C        105.3580  266.7780   97.0400 C.2   111  ILE111      0.2592
     18  O        105.8150  266.0600   96.1460 O.2   111  ILE111     -0.2718
     19  CB       103.6410  265.1490   97.9360 C.3   111  ILE111      0.0266
     20  CG1      102.2140  265.0730   98.4950 C.3   111  ILE111      0.0019
     21  CG2      104.6490  264.6450   98.9590 C.3   111  ILE111      0.0020
     22  CD1      101.7370  263.6890   98.7950 C.3   111  ILE111      0.0001
     23  N        106.0380  267.7620   97.6220 N.am  112  ASP112     -0.1960
     24  CA       107.3810  268.1530   97.2260 C.3   112  ASP112      0.1840
     25  C        108.0130  268.8770   98.4100 C.2   112  ASP112      0.2622
     26  O        107.6360  270.0140   98.7150 O.2   112  ASP112     -0.2715
     27  CB       107.2380  269.1060   96.0460 C.3   112  ASP112      0.1450
     28  CG       108.5450  269.6880   95.5980 C.2   112  ASP112      0.3671
     29  OD1      109.5380  269.6160   96.3660 O.co2 112  ASP112     -0.2456
     30  OD2      108.5670  270.2310   94.4680 O.co2 112  ASP112     -0.2456
     31  N        108.9810  268.2450   99.0670 N.am  113  ILE113     -0.1963
     32  CA       109.6030  268.8670  100.2360 C.3   113  ILE113      0.1727
     33  C        110.7590  269.8250   99.9590 C.2   113  ILE113      0.2616
     34  O        111.4310  270.2570  100.8930 O.2   113  ILE113     -0.2715
     35  CB       110.1360  267.8090  101.2130 C.3   113  ILE113      0.0290
     36  CG1      111.3610  267.1320  100.6040 C.3   113  ILE113      0.0022
     37  CG2      109.0630  266.7750  101.5160 C.3   113  ILE113      0.0023
     38  CD1      111.9650  266.0700  101.4890 C.3   113  ILE113      0.0001
     39  N        110.9900  270.1780   98.7000 N.am  114  THR114     -0.1951
     40  CA       112.1120  271.0610   98.3780 C.3   114  THR114      0.1897
     41  C        111.8210  272.5610   98.4530 C.2   114  THR114      0.2313
     42  O        112.5920  273.3710   97.9390 O.2   114  THR114     -0.2863
     43  CB       112.6920  270.7380   96.9750 C.3   114  THR114      0.1794
     44  OG1      111.7320  271.0680   95.9710 O.3   114  THR114     -0.2208
     45  CG2      113.0180  269.2530   96.8570 C.3   114  THR114      0.0378
     46  N        113.3120  255.6890  102.5960 N.3   131  PHE131     -0.1241
     47  CA       112.8730  255.8450  103.9740 C.3   131  PHE131      0.1605
     48  C        111.3640  255.8820  104.1520 C.2   131  PHE131      0.2264
     49  O        110.6150  256.0740  103.1960 O.2   131  PHE131     -0.2867
     50  CB       113.4710  257.1420  104.5290 C.3   131  PHE131      0.0534
     51  CG       113.0580  258.3770  103.7590 C.ar  131  PHE131     -0.0203
     52  CD1      111.8640  259.0360  104.0540 C.ar  131  PHE131     -0.0042
     53  CD2      113.8540  258.8710  102.7230 C.ar  131  PHE131     -0.0042
     54  CE1      111.4720  260.1660  103.3280 C.ar  131  PHE131     -0.0003
     55  CE2      113.4650  260.0030  101.9940 C.ar  131  PHE131     -0.0003
     56  CZ       112.2760  260.6450  102.2990 C.ar  131  PHE131     -0.0000
     57  N        108.2660  257.6460  106.6280 N.3   133  ALA133     -0.1245
     58  CA       108.1750  258.9630  107.2170 C.3   133  ALA133      0.1562
     59  C        106.9480  259.1560  108.0730 C.2   133  ALA133      0.2260
     60  O        105.9040  258.5400  107.8510 O.2   133  ALA133     -0.2867
     61  CB       108.1960  260.0090  106.1250 C.3   133  ALA133      0.0290
     62  N        104.3520  262.0170  109.2340 N.3   135  PHE135     -0.1241
     63  CA       103.8840  263.3530  108.8960 C.3   135  PHE135      0.1605
     64  C        102.9310  263.9120  109.9320 C.2   135  PHE135      0.2264
     65  O        101.9600  263.2600  110.3240 O.2   135  PHE135     -0.2867
     66  CB       103.2160  263.3590  107.5230 C.3   135  PHE135      0.0534
     67  CG       104.1830  263.5060  106.3830 C.ar  135  PHE135     -0.0203
     68  CD1      104.9960  262.4460  105.9980 C.ar  135  PHE135     -0.0042
     69  CD2      104.3030  264.7250  105.7130 C.ar  135  PHE135     -0.0042
     70  CE1      105.9200  262.6010  104.9610 C.ar  135  PHE135     -0.0003
     71  CE2      105.2220  264.8890  104.6770 C.ar  135  PHE135     -0.0003
     72  CZ       106.0310  263.8310  104.3000 C.ar  135  PHE135     -0.0000
     73  N        100.5210  267.2970  110.9880 N.3   137  PHE137     -0.1241
     74  CA        99.8220  268.4550  110.4320 C.3   137  PHE137      0.1605
     75  C         99.3210  269.4380  111.4910 C.2   137  PHE137      0.2264
     76  O         98.4130  269.1210  112.2610 O.2   137  PHE137     -0.2867
     77  CB        98.6570  267.9640  109.5870 C.3   137  PHE137      0.0534
     78  CG        99.0600  266.9740  108.5460 C.ar  137  PHE137     -0.0203
     79  CD1       99.6930  267.3920  107.3830 C.ar  137  PHE137     -0.0042
     80  CD2       98.8300  265.6220  108.7350 C.ar  137  PHE137     -0.0042
     81  CE1      100.0930  266.4730  106.4160 C.ar  137  PHE137     -0.0003
     82  CE2       99.2250  264.6910  107.7790 C.ar  137  PHE137     -0.0003
     83  CZ        99.8590  265.1170  106.6140 C.ar  137  PHE137     -0.0000
     84  N         91.8010  266.0770  105.2840 N.3   153  TYR153     -0.1227
     85  CA        93.0270  265.9610  104.5080 C.3   153  TYR153      0.1736
     86  C         92.8620  264.6640  103.7330 C.2   153  TYR153      0.2595
     87  O         92.3980  263.6650  104.2830 O.2   153  TYR153     -0.2718
     88  CB        94.2670  265.8140  105.3980 C.3   153  TYR153      0.0548
     89  CG        94.4430  266.8590  106.4730 C.ar  153  TYR153     -0.0200
     90  CD1       94.2850  268.2140  106.1970 C.ar  153  TYR153     -0.0009
     91  CD2       94.7930  266.4870  107.7650 C.ar  153  TYR153     -0.0009
     92  CE1       94.4710  269.1730  107.1870 C.ar  153  TYR153      0.0417
     93  CE2       94.9810  267.4300  108.7570 C.ar  153  TYR153      0.0417
     94  CZ        94.8180  268.7690  108.4650 C.ar  153  TYR153      0.1957
     95  OH        94.9930  269.7000  109.4600 O.3   153  TYR153     -0.2866
     96  N         93.2190  264.6730  102.4580 N.am  154  MET154     -0.1965
     97  CA        93.1250  263.4590  101.6710 C.3   154  MET154      0.1736
     98  C         94.3490  263.3040  100.7870 C.2   154  MET154      0.2616
     99  O         94.7850  264.2610  100.1480 O.2   154  MET154     -0.2715
    100  CB        91.8660  263.4630  100.8120 C.3   154  MET154      0.0427
    101  CG        91.7880  262.2730   99.8700 C.3   154  MET154      0.0599
    102  SD        90.2280  262.1970   98.9970 S.3   154  MET154     -0.1393
    103  CE        90.4370  263.4930   97.7530 C.3   154  MET154      0.0692
    104  N         94.9110  262.0980  100.7700 N.am  155  PHE155     -0.1974
    105  CA        96.0790  261.8090   99.9470 C.3   155  PHE155      0.1639
    106  C         95.5990  261.3260   98.5830 C.2   155  PHE155      0.2290
    107  O         94.9650  260.2790   98.4790 O.2   155  PHE155     -0.2864
    108  CB        96.9310  260.7310  100.6130 C.3   155  PHE155      0.0560
    109  CG        98.0340  260.2060   99.7470 C.ar  155  PHE155     -0.0200
    110  CD1       98.8630  261.0790   99.0420 C.ar  155  PHE155     -0.0042
    111  CD2       98.2740  258.8390   99.6640 C.ar  155  PHE155     -0.0042
    112  CE1       99.9200  260.5980   98.2660 C.ar  155  PHE155     -0.0003
    113  CE2       99.3270  258.3450   98.8900 C.ar  155  PHE155     -0.0003
    114  CZ       100.1530  259.2280   98.1890 C.ar  155  PHE155     -0.0000
    115  N         93.2180  257.4320  101.2410 N.3   177  PRO177     -0.2102
    116  CA        93.1650  257.6020  102.6930 C.3   177  PRO177      0.1504
    117  C         92.9120  259.0710  103.0550 C.2   177  PRO177      0.2576
    118  O         93.5630  259.9730  102.5210 O.2   177  PRO177     -0.2718
    119  CB        94.5400  257.0990  103.1520 C.3   177  PRO177      0.0282
    120  CG        95.4220  257.4060  101.9930 C.3   177  PRO177      0.0208
    121  CD        94.5620  257.0060  100.8090 C.3   177  PRO177      0.0893
    122  N         91.9490  259.3010  103.9440 N.am  178  SER178     -0.1938
    123  CA        91.6110  260.6510  104.4010 C.3   178  SER178      0.2055
    124  C         91.6540  260.7310  105.9250 C.2   178  SER178      0.2642
    125  O         91.4350  259.7370  106.6230 O.2   178  SER178     -0.2714
    126  CB        90.2030  261.0620  103.9320 C.3   178  SER178      0.2130
    127  OG        90.1550  261.3580  102.5490 O.3   178  SER178     -0.2179
    128  N         91.9580  261.9200  106.4330 N.am  179  VAL179     -0.1977
    129  CA        91.9780  262.1580  107.8740 C.3   179  VAL179      0.1596
    130  C         91.0030  263.2980  108.1670 C.2   179  VAL179      0.2287
    131  O         91.0840  264.3570  107.5440 O.2   179  VAL179     -0.2864
    132  CB        93.3720  262.6010  108.4040 C.3   179  VAL179      0.0276
    133  CG1       93.2310  263.1020  109.8230 C.3   179  VAL179      0.0022
    134  CG2       94.3510  261.4390  108.3990 C.3   179  VAL179      0.0022
    135  N        100.4010  260.7170  111.0030 N.3   190  VAL190     -0.1245
    136  CA       100.3170  259.4050  110.3630 C.3   190  VAL190      0.1561
    137  C        101.6750  258.9290  109.8680 C.2   190  VAL190      0.2260
    138  O        102.6160  259.7140  109.7710 O.2   190  VAL190     -0.2867
    139  CB        99.3620  259.4300  109.1450 C.3   190  VAL190      0.0252
    140  CG1       97.9830  259.8730  109.5730 C.3   190  VAL190      0.0019
    141  CG2       99.9080  260.3550  108.0720 C.3   190  VAL190      0.0019
    142  N        103.8750  257.1250  106.7920 N.3   192  VAL192     -0.1245
    143  CA       103.8760  256.9400  105.3480 C.3   192  VAL192      0.1561
    144  C        105.0010  255.9820  104.9610 C.2   192  VAL192      0.2260
    145  O        106.1290  256.1090  105.4350 O.2   192  VAL192     -0.2867
    146  CB       104.0670  258.3010  104.6320 C.3   192  VAL192      0.0252
    147  CG1      104.1490  258.1110  103.1300 C.3   192  VAL192      0.0019
    148  CG2      102.9070  259.2100  104.9790 C.3   192  VAL192      0.0019
    149  N        106.9620  254.8370   99.0300 N.3   195  MET195     -0.1245
    150  CA       106.0880  254.6400   97.8770 C.3   195  MET195      0.1570
    151  C        106.6210  254.7450   96.4580 C.2   195  MET195      0.2261
    152  O        105.8390  254.6390   95.5120 O.2   195  MET195     -0.2867
    153  CB       104.8910  255.5830   98.0080 C.3   195  MET195      0.0387
    154  CG       104.2380  255.5560   99.3850 C.3   195  MET195      0.0595
    155  SD       102.9980  256.8420   99.5990 S.3   195  MET195     -0.1393
    156  CE       104.0380  258.2960   99.6910 C.3   195  MET195      0.0692
    157  N        114.3310  257.1440   96.4110 N.3   201  TYR201     -0.1227
    158  CA       113.9740  258.4540   95.8900 C.3   201  TYR201      0.1736
    159  C        115.3450  259.0290   95.5050 C.2   201  TYR201      0.2595
    160  O        116.3750  258.5940   96.0290 O.2   201  TYR201     -0.2718
    161  CB       113.3840  259.3590   96.9810 C.3   201  TYR201      0.0548
    162  CG       112.0730  258.9350   97.6190 C.ar  201  TYR201     -0.0200
    163  CD1      110.9260  258.7110   96.8530 C.ar  201  TYR201     -0.0009
    164  CD2      111.9680  258.8220   99.0110 C.ar  201  TYR201     -0.0009
    165  CE1      109.7070  258.3840   97.4620 C.ar  201  TYR201      0.0417
    166  CE2      110.7630  258.4990   99.6250 C.ar  201  TYR201      0.0417
    167  CZ       109.6370  258.2810   98.8500 C.ar  201  TYR201      0.1957
    168  OH       108.4550  257.9470   99.4800 O.3   201  TYR201     -0.2866
    169  N        115.3840  259.9860   94.5930 N.am  202  GLN202     -0.1965
    170  CA       116.6670  260.5840   94.2590 C.3   202  GLN202      0.1733
    171  C        116.4920  262.0950   94.1510 C.2   202  GLN202      0.2616
    172  O        115.5980  262.5870   93.4660 O.2   202  GLN202     -0.2715
    173  CB       117.2490  259.9700   92.9730 C.3   202  GLN202      0.0408
    174  CG       116.5510  260.2850   91.6790 C.3   202  GLN202      0.0908
    175  CD       117.0630  259.4160   90.5340 C.2   202  GLN202      0.2608
    176  OE1      116.5270  258.3350   90.2710 O.2   202  GLN202     -0.2717
    177  NE2      118.1160  259.8800   89.8590 N.am  202  GLN202     -0.0878
    178  N        117.3320  262.8290   94.8640 N.am  203  TRP203     -0.1974
    179  CA       117.2430  264.2780   94.8670 C.3   203  TRP203      0.1640
    180  C        117.8260  264.8870   93.6020 C.2   203  TRP203      0.2290
    181  O        117.7000  266.0920   93.3650 O.2   203  TRP203     -0.2864
    182  CB       117.9440  264.8370   96.1130 C.3   203  TRP203      0.0576
    183  CG       117.3910  264.2450   97.3660 C.ar  203  TRP203      0.0006
    184  CD1      118.0050  263.3430   98.1870 C.ar  203  TRP203      0.0946
    185  CD2      116.0640  264.4130   97.8740 C.ar  203  TRP203      0.0152
    186  NE1      117.1360  262.9280   99.1710 N.ar  203  TRP203     -0.2442
    187  CE2      115.9370  263.5690   99.0010 C.ar  203  TRP203      0.0810
    188  CE3      114.9680  265.1900   97.4850 C.ar  203  TRP203      0.0012
    189  CZ2      114.7510  263.4790   99.7420 C.ar  203  TRP203      0.0191
    190  CZ3      113.7900  265.1030   98.2230 C.ar  203  TRP203      0.0001
    191  CH2      113.6910  264.2530   99.3370 C.ar  203  TRP203      0.0015
    192  N        115.5550  266.9830   84.3020 N.3   223  GLY223     -0.1225
    193  CA       115.7100  266.7990   85.7320 C.3   223  GLY223      0.1811
    194  C        114.4430  266.3520   86.4410 C.2   223  GLY223      0.2280
    195  O        114.4580  266.1230   87.6520 O.2   223  GLY223     -0.2866
    196  N        109.8210  260.3020   91.7250 N.3   228  ASN228     -0.1240
    197  CA       109.8100  261.1350   92.9370 C.3   228  ASN228      0.1653
    198  C        108.4620  261.8240   93.1560 C.2   228  ASN228      0.2266
    199  O        108.2190  262.4300   94.2030 O.2   228  ASN228     -0.2867
    200  CB       110.8950  262.2230   92.8680 C.3   228  ASN228      0.1155
    201  CG       112.3140  261.6590   92.8800 C.2   228  ASN228      0.2627
    202  OD1      112.6170  260.7110   93.6070 O.2   228  ASN228     -0.2716
    203  ND2      113.1960  262.2620   92.0850 N.am  228  ASN228     -0.0877
    204  N        105.0940  261.5480   94.2060 N.3   230  MET230     -0.1245
    205  CA       104.1850  260.6850   94.9450 C.3   230  MET230      0.1570
    206  C        102.7200  261.0700   94.9360 C.2   230  MET230      0.2261
    207  O        101.8790  260.3010   95.4000 O.2   230  MET230     -0.2867
    208  CB       104.6700  260.5500   96.3870 C.3   230  MET230      0.0387
    209  CG       106.0240  259.8620   96.4940 C.3   230  MET230      0.0595
    210  SD       106.0060  258.2490   95.6950 S.3   230  MET230     -0.1393
    211  CE       106.5930  258.6460   94.0550 C.3   230  MET230      0.0692
    212  N         98.3460  266.2590   98.0120 N.3   233  PHE233     -0.1241
    213  CA        97.7910  266.2770   99.3620 C.3   233  PHE233      0.1605
    214  C         96.7090  267.3460   99.3210 C.2   233  PHE233      0.2264
    215  O         97.0120  268.5320   99.1950 O.2   233  PHE233     -0.2867
    216  CB        98.8510  266.6740  100.3870 C.3   233  PHE233      0.0534
    217  CG        98.3260  266.7760  101.7970 C.ar  233  PHE233     -0.0203
    218  CD1       97.9970  265.6360  102.5180 C.ar  233  PHE233     -0.0042
    219  CD2       98.1740  268.0170  102.4080 C.ar  233  PHE233     -0.0042
    220  CE1       97.5250  265.7300  103.8340 C.ar  233  PHE233     -0.0003
    221  CE2       97.7020  268.1240  103.7230 C.ar  233  PHE233     -0.0003
    222  CZ        97.3780  266.9780  104.4360 C.ar  233  PHE233     -0.0000
    223  N        107.6500  266.9090  108.5120 N.3   253  MET253     -0.1245
    224  CA       108.0550  265.5590  108.1420 C.3   253  MET253      0.1570
    225  C        109.1870  265.0370  109.0030 C.2   253  MET253      0.2261
    226  O        110.1510  265.7470  109.2870 O.2   253  MET253     -0.2867
    227  CB       108.5020  265.4990  106.6800 C.3   253  MET253      0.0387
    228  CG       108.9920  264.1170  106.2620 C.3   253  MET253      0.0595
    229  SD       109.7090  264.0590  104.6140 S.3   253  MET253     -0.1393
    230  CE       111.3240  264.7530  104.9410 C.3   253  MET253      0.0692
    231  N        112.1480  275.0960   93.4780 N.3   274  LYS274     -0.1231
    232  CA       111.9930  273.7410   93.9660 C.3   274  LYS274      0.1693
    233  C        112.5810  272.6890   93.0430 C.2   274  LYS274      0.2591
    234  O        113.3230  271.8060   93.4620 O.2   274  LYS274     -0.2718
    235  CB       110.5180  273.4060   94.1370 C.3   274  LYS274      0.0285
    236  CG       109.7050  274.3190   95.0080 C.3   274  LYS274      0.0035
    237  CD       108.3470  273.6820   95.1810 C.3   274  LYS274      0.0206
    238  CE       107.3470  274.6090   95.8030 C.3   274  LYS274      0.1093
    239  NZ       106.0280  273.9240   95.8470 N.3   274  LYS274     -0.1314
    240  N        112.2300  272.7860   91.7760 N.am  275  ALA275     -0.1980
    241  CA       112.6490  271.8040   90.7940 C.3   275  ALA275      0.1597
    242  C        114.1100  271.7340   90.3760 C.2   275  ALA275      0.2287
    243  O        114.4990  270.7710   89.7250 O.2   275  ALA275     -0.2864
    244  CB       111.7750  271.9550   89.5380 C.3   275  ALA275      0.0319
@<TRIPOS>BOND
     1   192   193    1
     2   193   194    1
     3   194   195    2
     4   244   241    1
     5   243   242    2
     6   177   175   am
     7   176   175    2
     8   242   241    1
     9   175   174    1
    10   241   240    1
    11   174   173    1
    12   196   197    1
    13   240   233   am
    14   203   201   am
    15   200   201    1
    16   200   197    1
    17   201   202    2
    18   197   198    1
    19   173   170    1
    20   233   234    2
    21   233   232    1
    22   198   199    2
    23   181   180    2
    24   172   171    2
    25   231   232    1
    26   180   179    1
    27   232   235    1
    28   211   210    1
    29   235   236    1
    30   171   170    1
    31   171   178   am
    32   204   205    1
    33   170   169    1
    34    30    28   ar
    35   169   159   am
    36   178   179    1
    37   179   182    1
    38   206   205    1
    39   206   207    2
    40   205   208    1
    41   236   237    1
    42   237   238    1
    43   159   158    1
    44   159   160    2
    45   152   151    2
    46    28    27    1
    47    28    29   ar
    48   210   209    1
    49   238   239    1
    50   158   157    1
    51   158   161    1
    52    44    43    1
    53    27    24    1
    54   182   183    1
    55    18    17    2
    56   208   209    1
    57   151   150    1
    58    15    16    1
    59     3     4    2
    60     3     2    1
    61   163   165   ar
    62   163   162   ar
    63    45    43    1
    64    43    40    1
    65   161   162    1
    66    17    16    1
    67    17    23   am
    68    24    23    1
    69    24    25    1
    70     1     2    1
    71   183   185   ar
    72   183   184   ar
    73     2     5    1
    74   165   167   ar
    75   188   185   ar
    76   188   190   ar
    77    16    19    1
    78   162   164   ar
    79   103   102    1
    80   185   187   ar
    81   150   153    1
    82   150   149    1
    83    19    20    1
    84    19    21    1
    85    42    41    2
    86   153   154    1
    87   212   213    1
    88   184   186   ar
    89   114   112   ar
    90   114   113   ar
    91   190   191   ar
    92   112   110   ar
    93    40    41    1
    94    40    39    1
    95    25    26    2
    96    25    31   am
    97   107   106    2
    98    20    22    1
    99   106   105    1
   100    39    33   am
   101     7     6   ar
   102     7     9   ar
   103   167   168    1
   104   167   166   ar
   105     5     6    1
   106   113   111   ar
   107   102   101    1
   108   187   186   ar
   109   187   189   ar
   110   164   166   ar
   111   110   109   ar
   112    31    32    1
   113     6     8   ar
   114     9    10   ar
   115   215   214    2
   116   214   213    1
   117   191   189   ar
   118   213   216    1
   119   154   155    1
   120   155   156    1
   121   111   109   ar
   122   109   108    1
   123     8    10   ar
   124     8    11   ar
   125    10    12   ar
   126   101   100    1
   127   105   108    1
   128   105   104    1
   129    33    32    1
   130    33    34    2
   131    99    98    2
   132    32    35    1
   133   216   217    1
   134    12    14   ar
   135    11    13   ar
   136    36    35    1
   137    36    38    1
   138   104    98   am
   139    98    97    1
   140   121   115    1
   141   121   120    1
   142   100    97    1
   143    14    13   ar
   144    35    37    1
   145   115   116    1
   146    97    96    1
   147   217   219   ar
   148   217   218   ar
   149   120   119    1
   150    55    56   ar
   151    55    53   ar
   152    56    54   ar
   153   219   221   ar
   154    96    86   am
   155   218   220   ar
   156   118   117    2
   157   127   126    1
   158    46    47    1
   159   116   117    1
   160   116   119    1
   161    53    51   ar
   162   117   122   am
   163   147   146    1
   164    49    48    2
   165    54    52   ar
   166   221   222   ar
   167    86    87    2
   168    86    85    1
   169    51    52   ar
   170    51    50    1
   171   220   222   ar
   172   126   123    1
   173   122   123    1
   174    47    48    1
   175    47    50    1
   176    72    71   ar
   177    72    70   ar
   178   123   124    1
   179    85    84    1
   180    85    88    1
   181   229   230    1
   182   229   228    1
   183   146   148    1
   184   146   143    1
   185    71    69   ar
   186    70    68   ar
   187   144   143    1
   188   144   145    2
   189   143   142    1
   190    88    89    1
   191    69    67   ar
   192   124   128   am
   193   124   125    2
   194    68    67   ar
   195    61    58    1
   196    90    89   ar
   197    90    92   ar
   198   228   227    1
   199    67    66    1
   200    81    83   ar
   201    81    79   ar
   202   128   129    1
   203    89    91   ar
   204    83    82   ar
   205    57    58    1
   206   227   224    1
   207    92    94   ar
   208    58    59    1
   209    79    78   ar
   210    66    63    1
   211   131   130    2
   212    91    93   ar
   213    82    80   ar
   214    60    59    2
   215   129   130    1
   216   129   132    1
   217   141   139    1
   218   224   223    1
   219   224   225    1
   220   134   132    1
   221   132   133    1
   222    94    93   ar
   223    94    95    1
   224    78    80   ar
   225    78    77    1
   226    63    62    1
   227    63    64    1
   228   225   226    2
   229   139   140    1
   230   139   136    1
   231    77    74    1
   232   138   137    2
   233   137   136    1
   234    64    65    2
   235   136   135    1
   236    74    73    1
   237    74    75    1
   238    75    76    2
