@<TRIPOS>MOLECULE
tmp/4cf0B00.pdb
 102 100 0 0 0
SMALL
GASTEIGER

@<TRIPOS>ATOM
      1  N         12.6350  -46.9260  -12.0810 N.3    37  THR37      -0.1218
      2  CA        11.8730  -47.8490  -11.2570 C.3    37  THR37       0.1862
      3  C         10.9810  -46.9650  -10.3930 C.2    37  THR37       0.2287
      4  O         11.2020  -45.7550  -10.3340 O.2    37  THR37      -0.2866
      5  CB        12.7900  -48.6700  -10.3290 C.3    37  THR37       0.1770
      6  OG1       13.5130  -47.7820   -9.4520 O.3    37  THR37      -0.2211
      7  CG2       13.7850  -49.5410  -11.1420 C.3    37  THR37       0.0375
      8  N         10.9240  -47.0180   -7.1780 N.3    39  GLN39      -0.1231
      9  CA        11.7850  -46.5510   -6.1070 C.3    39  GLN39       0.1698
     10  C         12.5500  -45.2750   -6.4920 C.2    39  GLN39       0.2592
     11  O         12.5590  -44.3030   -5.7350 O.2    39  GLN39      -0.2718
     12  CB        12.7390  -47.6290   -5.6170 C.3    39  GLN39       0.0381
     13  CG        13.4690  -47.1920   -4.3440 C.3    39  GLN39       0.0905
     14  CD        14.2720  -48.3020   -3.6540 C.2    39  GLN39       0.2608
     15  OE1       14.4070  -49.4050   -4.1760 O.2    39  GLN39      -0.2717
     16  NE2       14.8140  -47.9970   -2.4770 N.am   39  GLN39      -0.0878
     17  N         13.1810  -45.2740   -7.6560 N.am   40  GLU40      -0.1979
     18  CA        13.8910  -44.0490   -8.0990 C.3    40  GLU40       0.1602
     19  C         12.9520  -42.8890   -8.2490 C.2    40  GLU40       0.2287
     20  O         13.2870  -41.7560   -7.8280 O.2    40  GLU40      -0.2864
     21  CB        14.6080  -44.2540   -9.4420 C.3    40  GLU40       0.0415
     22  CG        15.8110  -45.2330   -9.3990 C.3    40  GLU40       0.1163
     23  CD        17.0400  -44.7360   -8.6580 C.2    40  GLU40       0.3649
     24  OE1       17.0920  -43.6320   -8.0840 O.co2  40  GLU40      -0.2457
     25  OE2       18.0120  -45.5220   -8.6310 O.co2  40  GLU40      -0.2457
     26  N          9.9290  -42.3310   -6.8330 N.3    42  ALA42      -0.1231
     27  CA         9.5120  -41.9560   -5.4610 C.3    42  ALA42       0.1694
     28  C         10.5000  -41.0140   -4.7710 C.2    42  ALA42       0.2592
     29  O         10.1280  -39.9460   -4.2200 O.2    42  ALA42      -0.2718
     30  CB         9.3070  -43.2580   -4.6060 C.3    42  ALA42       0.0304
     31  N         11.7650  -41.4410   -4.7590 N.am   43  TYR43      -0.1976
     32  CA        12.8340  -40.6630   -4.1190 C.3    43  TYR43       0.1639
     33  C         12.9620  -39.3140   -4.8200 C.2    43  TYR43       0.2290
     34  O         13.1020  -38.2930   -4.1740 O.2    43  TYR43      -0.2864
     35  CB        14.1740  -41.4250   -4.1870 C.3    43  TYR43       0.0560
     36  CG        15.2950  -40.7080   -3.4560 C.ar   43  TYR43      -0.0198
     37  CD1       15.2630  -40.5740   -2.0770 C.ar   43  TYR43      -0.0009
     38  CD2       16.3710  -40.1390   -4.1660 C.ar   43  TYR43      -0.0009
     39  CE1       16.2810  -39.9310   -1.3900 C.ar   43  TYR43       0.0417
     40  CE2       17.4150  -39.5260   -3.4850 C.ar   43  TYR43       0.0417
     41  CZ        17.3620  -39.3940   -2.1200 C.ar   43  TYR43       0.1957
     42  OH        18.3700  -38.7290   -1.4580 O.3    43  TYR43      -0.2866
     43  N         10.0580  -37.0290   -3.7850 N.3    46  LEU46      -0.1245
     44  CA        10.3170  -36.5550   -2.4290 C.3    46  LEU46       0.1561
     45  C         11.2680  -35.3370   -2.4120 C.2    46  LEU46       0.2260
     46  O         10.9560  -34.3170   -1.7460 O.2    46  LEU46      -0.2867
     47  CB        10.8780  -37.6680   -1.5380 C.3    46  LEU46       0.0270
     48  CG        11.2070  -37.2510   -0.0830 C.3    46  LEU46       0.0019
     49  CD1        9.9960  -36.6560    0.6690 C.3    46  LEU46       0.0001
     50  CD2       11.8420  -38.4530    0.6450 C.3    46  LEU46       0.0001
     51  N          3.2490  -48.7320   -6.0780 N.3    68  THR68      -0.1203
     52  CA         2.8940  -48.5110   -4.6810 C.3    68  THR68       0.1994
     53  C          3.9080  -47.5800   -3.9770 C.2    68  THR68       0.2618
     54  O          3.5430  -46.7810   -3.0950 O.2    68  THR68      -0.2717
     55  CB         2.6680  -49.8630   -3.9000 C.3    68  THR68       0.1784
     56  OG1        3.8090  -50.7140   -4.0490 O.3    68  THR68      -0.2211
     57  CG2        1.4870  -50.5620   -4.4860 C.3    68  THR68       0.0376
     58  N          5.1710  -47.6710   -4.3980 N.am   69  THR69      -0.1952
     59  CA         6.2230  -46.8000   -3.8330 C.3    69  THR69       0.1897
     60  C          6.0320  -45.3470   -4.2480 C.2    69  THR69       0.2313
     61  O          6.1600  -44.4240   -3.4090 O.2    69  THR69      -0.2863
     62  CB         7.5990  -47.3070   -4.2070 C.3    69  THR69       0.1794
     63  OG1        7.6540  -48.6910   -3.8620 O.3    69  THR69      -0.2208
     64  CG2        8.6590  -46.6180   -3.3740 C.3    69  THR69       0.0378
     65  N          3.0880  -44.0350   -2.2750 N.3    72  ALA72      -0.1231
     66  CA         3.4880  -43.7810   -0.8890 C.3    72  ALA72       0.1694
     67  C          4.2430  -42.4470   -0.7820 C.2    72  ALA72       0.2591
     68  O          3.9690  -41.6450    0.1030 O.2    72  ALA72      -0.2718
     69  CB         4.3400  -44.9360   -0.3670 C.3    72  ALA72       0.0304
     70  N          5.1910  -42.2150   -1.6940 N.am   73  ALA73      -0.1980
     71  CA         5.8700  -40.9020   -1.7490 C.3    73  ALA73       0.1597
     72  C          4.9110  -39.7300   -1.9420 C.2    73  ALA73       0.2287
     73  O          5.0160  -38.6810   -1.2440 O.2    73  ALA73      -0.2864
     74  CB         6.9690  -40.9140   -2.9020 C.3    73  ALA73       0.0319
     75  N          1.6730  -39.6570   -1.2880 N.3    75  TRP75      -0.1227
     76  CA         0.8900  -39.4870   -0.0430 C.3    75  TRP75       0.1737
     77  C          1.7250  -38.7040    1.0070 C.2    75  TRP75       0.2595
     78  O          1.2790  -37.7040    1.6020 O.2    75  TRP75      -0.2718
     79  CB         0.4190  -40.8620    0.4890 C.3    75  TRP75       0.0564
     80  CG        -0.0190  -40.7030    1.9290 C.ar   75  TRP75       0.0003
     81  CD1       -1.2300  -40.2190    2.3750 C.ar   75  TRP75       0.0946
     82  CD2        0.7810  -40.9350    3.0970 C.ar   75  TRP75       0.0152
     83  NE1       -1.2250  -40.1480    3.7490 N.ar   75  TRP75      -0.2442
     84  CE2       -0.0110  -40.5760    4.2200 C.ar   75  TRP75       0.0810
     85  CE3        2.0900  -41.4350    3.3030 C.ar   75  TRP75       0.0012
     86  CZ2        0.4590  -40.6790    5.5410 C.ar   75  TRP75       0.0191
     87  CZ3        2.5810  -41.5210    4.6360 C.ar   75  TRP75       0.0001
     88  CH2        1.7540  -41.1690    5.7250 C.ar   75  TRP75       0.0015
     89  N          2.9670  -39.1420    1.1920 N.am   76  TRP76      -0.1976
     90  CA         3.8460  -38.5740    2.2130 C.3    76  TRP76       0.1640
     91  C          4.0000  -37.0780    2.0230 C.2    76  TRP76       0.2290
     92  O          3.8420  -36.2910    2.9850 O.2    76  TRP76      -0.2864
     93  CB         5.2010  -39.3170    2.2590 C.3    76  TRP76       0.0576
     94  CG         5.9330  -39.0140    3.5910 C.ar   76  TRP76       0.0006
     95  CD1        5.9150  -39.7720    4.7290 C.ar   76  TRP76       0.0946
     96  CD2        6.6920  -37.8290    3.9000 C.ar   76  TRP76       0.0152
     97  NE1        6.6230  -39.1200    5.7370 N.ar   76  TRP76      -0.2442
     98  CE2        7.1270  -37.9440    5.2420 C.ar   76  TRP76       0.0810
     99  CE3        7.0890  -36.6920    3.1500 C.ar   76  TRP76       0.0012
    100  CZ2        7.8910  -36.9350    5.8690 C.ar   76  TRP76       0.0191
    101  CZ3        7.8370  -35.6890    3.7690 C.ar   76  TRP76       0.0001
    102  CH2        8.2590  -35.8380    5.1100 C.ar   76  TRP76       0.0015
@<TRIPOS>BOND
     1     1     2    1
     2     2     3    1
     3     2     5    1
     4     7     5    1
     5     3     4    2
     6     5     6    1
     7    21    22    1
     8    21    18    1
     9    22    23    1
    10    23    25   ar
    11    23    24   ar
    12    19    18    1
    13    19    20    2
    14    18    17    1
    15    17    10   am
    16     8     9    1
    17    26    27    1
    18    10     9    1
    19    10    11    2
    20     9    12    1
    21    51    52    1
    22    12    13    1
    23    27    28    1
    24    27    30    1
    25    33    34    2
    26    33    32    1
    27    28    31   am
    28    28    29    2
    29    31    32    1
    30    52    53    1
    31    52    55    1
    32    57    55    1
    33    58    53   am
    34    58    59    1
    35    13    14    1
    36    60    59    1
    37    60    61    2
    38    62    63    1
    39    62    59    1
    40    62    64    1
    41    35    32    1
    42    35    36    1
    43    15    14    2
    44    38    40   ar
    45    38    36   ar
    46    56    55    1
    47    53    54    2
    48    43    44    1
    49    14    16   am
    50    40    41   ar
    51    36    37   ar
    52    74    71    1
    53    44    45    1
    54    44    47    1
    55    45    46    2
    56    65    66    1
    57    41    42    1
    58    41    39   ar
    59    37    39   ar
    60    72    71    1
    61    72    73    2
    62    71    70    1
    63    70    67   am
    64    47    48    1
    65    75    76    1
    66    66    67    1
    67    66    69    1
    68    67    68    2
    69    48    50    1
    70    48    49    1
    71    76    79    1
    72    76    77    1
    73    79    80    1
    74    77    89   am
    75    77    78    2
    76    89    90    1
    77    80    81   ar
    78    80    82   ar
    79    91    90    1
    80    91    92    2
    81    90    93    1
    82    93    94    1
    83    81    83   ar
    84    82    85   ar
    85    82    84   ar
    86    99   101   ar
    87    99    96   ar
    88    85    87   ar
    89    94    96   ar
    90    94    95   ar
    91    83    84   ar
    92   101   102   ar
    93    96    98   ar
    94    84    86   ar
    95    87    88   ar
    96    95    97   ar
    97   102   100   ar
    98    98    97   ar
    99    98   100   ar
   100    86    88   ar
