@<TRIPOS>MOLECULE
tmp/4cf2A01.pdb
 102 100 0 0 0
SMALL
GASTEIGER

@<TRIPOS>ATOM
      1  N         34.1960  -34.5470    0.3420 N.3    37  THR37      -0.1218
      2  CA        35.3330  -34.2490   -0.5190 C.3    37  THR37       0.1862
      3  C         35.0500  -33.0030   -1.3520 C.2    37  THR37       0.2287
      4  O         33.8960  -32.5500   -1.4590 O.2    37  THR37      -0.2866
      5  CB        35.6050  -35.4050   -1.4820 C.3    37  THR37       0.1770
      6  OG1       34.4730  -35.5880   -2.3410 O.3    37  THR37      -0.2211
      7  CG2       35.8910  -36.7100   -0.7060 C.3    37  THR37       0.0375
      8  N         35.1360  -32.8760   -4.5690 N.3    39  GLN39      -0.1231
      9  CA        34.2680  -33.3210   -5.6480 C.3    39  GLN39       0.1698
     10  C         32.7820  -33.3590   -5.2700 C.2    39  GLN39       0.2592
     11  O         31.9350  -32.8730   -6.0250 O.2    39  GLN39      -0.2718
     12  CB        34.6940  -34.6970   -6.1380 C.3    39  GLN39       0.0381
     13  CG        35.9290  -34.6730   -7.0160 C.3    39  GLN39       0.0905
     14  CD        36.2500  -36.0490   -7.5680 C.2    39  GLN39       0.2608
     15  OE1       37.3270  -36.6090   -7.3230 O.2    39  GLN39      -0.2717
     16  NE2       35.2990  -36.6140   -8.3100 N.am   39  GLN39      -0.0878
     17  N         32.4660  -33.9460   -4.1200 N.am   40  GLU40      -0.1979
     18  CA        31.0770  -33.9680   -3.6480 C.3    40  GLU40       0.1602
     19  C         30.5170  -32.5540   -3.4770 C.2    40  GLU40       0.2287
     20  O         29.4060  -32.2560   -3.9370 O.2    40  GLU40      -0.2864
     21  CB        30.9400  -34.7480   -2.3310 C.3    40  GLU40       0.0415
     22  CG        31.1880  -36.2490   -2.4330 C.3    40  GLU40       0.1163
     23  CD        30.1220  -37.0340   -3.1930 C.2    40  GLU40       0.3649
     24  OE1       29.1560  -36.4580   -3.7220 O.co2  40  GLU40      -0.2457
     25  OE2       30.2560  -38.2710   -3.2670 O.co2  40  GLU40      -0.2457
     26  N         31.6030  -29.7080   -4.8490 N.3    42  ALA42      -0.1231
     27  CA        31.5250  -29.0800   -6.1560 C.3    42  ALA42       0.1694
     28  C         30.2560  -29.4810   -6.9000 C.2    42  ALA42       0.2592
     29  O         29.5610  -28.6260   -7.4520 O.2    42  ALA42      -0.2718
     30  CB        32.7520  -29.4390   -6.9850 C.3    42  ALA42       0.0304
     31  N         29.9620  -30.7830   -6.9150 N.am   43  TYR43      -0.1976
     32  CA        28.7610  -31.3020   -7.5730 C.3    43  TYR43       0.1639
     33  C         27.4940  -30.7710   -6.8970 C.2    43  TYR43       0.2290
     34  O         26.5300  -30.3870   -7.5580 O.2    43  TYR43      -0.2864
     35  CB        28.7700  -32.8340   -7.5610 C.3    43  TYR43       0.0560
     36  CG        27.5970  -33.4630   -8.2780 C.ar   43  TYR43      -0.0198
     37  CD1       27.4650  -33.3720   -9.6540 C.ar   43  TYR43      -0.0009
     38  CD2       26.6130  -34.1570   -7.5690 C.ar   43  TYR43      -0.0009
     39  CE1       26.3890  -33.9450  -10.3120 C.ar   43  TYR43       0.0417
     40  CE2       25.5450  -34.7560   -8.2180 C.ar   43  TYR43       0.0417
     41  CZ        25.4240  -34.6350   -9.5840 C.ar   43  TYR43       0.1957
     42  OH        24.3540  -35.2120  -10.2220 O.3    43  TYR43      -0.2866
     43  N         26.9550  -27.1000   -7.9480 N.3    46  LEU46      -0.1245
     44  CA        26.4510  -27.0530   -9.3100 C.3    46  LEU46       0.1561
     45  C         24.9410  -27.3080   -9.3540 C.2    46  LEU46       0.2260
     46  O         24.1880  -26.6010  -10.0390 O.2    46  LEU46      -0.2867
     47  CB        27.1690  -28.0820  -10.1760 C.3    46  LEU46       0.0270
     48  CG        26.7080  -28.1800  -11.6270 C.3    46  LEU46       0.0019
     49  CD1       26.9240  -26.8670  -12.3620 C.3    46  LEU46       0.0001
     50  CD2       27.4410  -29.3160  -12.3210 C.3    46  LEU46       0.0001
     51  N         40.4510  -27.2530   -5.6960 N.3    68  THR68      -0.1203
     52  CA        40.4420  -26.8030   -7.0810 C.3    68  THR68       0.1994
     53  C         39.1420  -27.2120   -7.7860 C.2    68  THR68       0.2618
     54  O         38.6370  -26.4730   -8.6260 O.2    68  THR68      -0.2717
     55  CB        41.6920  -27.2810   -7.8640 C.3    68  THR68       0.1784
     56  OG1       41.7760  -28.7060   -7.8320 O.3    68  THR68      -0.2211
     57  CG2       42.9540  -26.7110   -7.2520 C.3    68  THR68       0.0376
     58  N         38.5720  -28.3560   -7.4190 N.am   69  THR69      -0.1952
     59  CA        37.2880  -28.7750   -7.9950 C.3    69  THR69       0.1897
     60  C         36.1520  -27.8500   -7.5450 C.2    69  THR69       0.2313
     61  O         35.3050  -27.4710   -8.3600 O.2    69  THR69      -0.2863
     62  CB        36.9570  -30.2400   -7.6670 C.3    69  THR69       0.1794
     63  OG1       38.1090  -31.0480   -7.8980 O.3    69  THR69      -0.2208
     64  CG2       35.8450  -30.7570   -8.5450 C.3    69  THR69       0.0378
     65  N         36.5340  -24.6790   -9.4750 N.3    72  ALA72      -0.1231
     66  CA        36.0810  -24.8650  -10.8570 C.3    72  ALA72       0.1694
     67  C         34.5590  -24.8030  -10.9660 C.2    72  ALA72       0.2591
     68  O         34.0210  -24.1870  -11.8890 O.2    72  ALA72      -0.2718
     69  CB        36.6040  -26.1760  -11.4200 C.3    72  ALA72       0.0304
     70  N         33.8670  -25.4310  -10.0160 N.am   73  ALA73      -0.1980
     71  CA        32.4040  -25.3970   -9.9800 C.3    73  ALA73       0.1597
     72  C         31.8890  -23.9880   -9.7700 C.2    73  ALA73       0.2287
     73  O         30.9550  -23.5620  -10.4500 O.2    73  ALA73      -0.2864
     74  CB        31.8720  -26.2980   -8.8690 C.3    73  ALA73       0.0319
     75  N         33.4810  -21.1260  -10.3700 N.3    75  TRP75      -0.1227
     76  CA        33.7350  -20.4090  -11.6040 C.3    75  TRP75       0.1737
     77  C         32.6730  -20.7600  -12.6560 C.2    75  TRP75       0.2595
     78  O         32.0710  -19.8740  -13.2630 O.2    75  TRP75      -0.2718
     79  CB        35.1350  -20.7210  -12.1590 C.3    75  TRP75       0.0564
     80  CG        35.2200  -20.2780  -13.5720 C.ar   75  TRP75       0.0003
     81  CD1       35.3950  -18.9990  -14.0210 C.ar   75  TRP75       0.0946
     82  CD2       35.0500  -21.0970  -14.7330 C.ar   75  TRP75       0.0152
     83  NE1       35.3620  -18.9750  -15.3980 N.ar   75  TRP75      -0.2442
     84  CE2       35.1530  -20.2460  -15.8620 C.ar   75  TRP75       0.0810
     85  CE3       34.8330  -22.4670  -14.9330 C.ar   75  TRP75       0.0012
     86  CZ2       35.0470  -20.7240  -17.1770 C.ar   75  TRP75       0.0191
     87  CZ3       34.7280  -22.9480  -16.2460 C.ar   75  TRP75       0.0001
     88  CH2       34.8300  -22.0720  -17.3490 C.ar   75  TRP75       0.0015
     89  N         32.4280  -22.0490  -12.8640 N.am   76  TRP76      -0.1976
     90  CA        31.4660  -22.4560  -13.8950 C.3    76  TRP76       0.1640
     91  C         30.0940  -21.8250  -13.6600 C.2    76  TRP76       0.2290
     92  O         29.4840  -21.2880  -14.5860 O.2    76  TRP76      -0.2864
     93  CB        31.3560  -23.9790  -13.9760 C.3    76  TRP76       0.0576
     94  CG        30.7250  -24.4220  -15.2690 C.ar   76  TRP76       0.0006
     95  CD1       31.3640  -24.7810  -16.4150 C.ar   76  TRP76       0.0946
     96  CD2       29.3260  -24.4930  -15.5470 C.ar   76  TRP76       0.0152
     97  NE1       30.4380  -25.0920  -17.3940 N.ar   76  TRP76      -0.2442
     98  CE2       29.1820  -24.9180  -16.8820 C.ar   76  TRP76       0.0810
     99  CE3       28.1760  -24.2570  -14.7890 C.ar   76  TRP76       0.0012
    100  CZ2       27.9280  -25.1080  -17.4770 C.ar   76  TRP76       0.0191
    101  CZ3       26.9400  -24.4360  -15.3810 C.ar   76  TRP76       0.0001
    102  CH2       26.8260  -24.8590  -16.7100 C.ar   76  TRP76       0.0015
@<TRIPOS>BOND
     1   100    98   ar
     2   100   102   ar
     3    97    98   ar
     4    97    95   ar
     5    88    86   ar
     6    88    87   ar
     7    86    84   ar
     8    98    96   ar
     9   102   101   ar
    10    95    94   ar
    11    87    85   ar
    12    84    83   ar
    13    84    82   ar
    14    96    94   ar
    15    96    99   ar
    16    83    81   ar
    17   101    99   ar
    18    94    93    1
    19    85    82   ar
    20    82    80   ar
    21    92    91    2
    22    81    80   ar
    23    93    90    1
    24    90    91    1
    25    90    89    1
    26    80    79    1
    27    78    77    2
    28    89    77   am
    29    77    76    1
    30    49    48    1
    31    50    48    1
    32    79    76    1
    33    68    67    2
    34    48    47    1
    35    76    75    1
    36    69    66    1
    37    67    66    1
    38    67    70   am
    39    66    65    1
    40    73    72    2
    41    39    37   ar
    42    39    41   ar
    43    42    41    1
    44    47    44    1
    45    46    45    2
    46    70    71    1
    47    71    72    1
    48    71    74    1
    49    37    36   ar
    50    41    40   ar
    51    45    44    1
    52    44    43    1
    53    54    53    2
    54    64    62    1
    55    61    60    2
    56    16    14   am
    57    36    38   ar
    58    36    35    1
    59    40    38   ar
    60    59    62    1
    61    59    60    1
    62    59    58    1
    63    63    62    1
    64    55    56    1
    65    55    57    1
    66    55    52    1
    67    53    58   am
    68    53    52    1
    69    32    35    1
    70    32    31    1
    71    32    33    1
    72    14    15    2
    73    14    13    1
    74    34    33    2
    75    29    28    2
    76    52    51    1
    77    13    12    1
    78    30    27    1
    79    31    28   am
    80    28    27    1
    81    27    26    1
    82    12     9    1
    83    11    10    2
    84     9    10    1
    85     9     8    1
    86    10    17   am
    87    17    18    1
    88    20    19    2
    89    24    23   ar
    90    18    19    1
    91    18    21    1
    92    25    23   ar
    93    23    22    1
    94    22    21    1
    95     6     5    1
    96     5     7    1
    97     5     2    1
    98     4     3    2
    99     3     2    1
   100     2     1    1
