@<TRIPOS>MOLECULE
tmp/4cf3B00.pdb
 104 103 0 0 0
SMALL
GASTEIGER

@<TRIPOS>ATOM
      1  N         -7.9560    6.2080  -43.7490 N.3    12  GLU12      -0.1245
      2  CA        -6.7530    5.3820  -43.9630 C.3    12  GLU12       0.1567
      3  C         -5.5040    5.9580  -43.2800 C.2    12  GLU12       0.2260
      4  O         -4.7720    5.2080  -42.6710 O.2    12  GLU12      -0.2867
      5  CB        -6.4340    5.1550  -45.4530 C.3    12  GLU12       0.0388
      6  CG        -7.4290    4.3350  -46.2390 C.3    12  GLU12       0.1160
      7  CD        -6.8660    3.9130  -47.5880 C.2    12  GLU12       0.3649
      8  OE1       -6.5800    4.8060  -48.4060 O.co2  12  GLU12      -0.2457
      9  OE2       -6.6970    2.6920  -47.8180 O.co2  12  GLU12      -0.2457
     10  N        -10.4900   -4.1950  -50.1470 N.3    35  ARG35      -0.1245
     11  CA        -9.3680   -3.7140  -50.9730 C.3    35  ARG35       0.1563
     12  C         -9.7820   -3.5370  -52.4300 C.2    35  ARG35       0.2260
     13  O         -9.0520   -2.9800  -53.2230 O.2    35  ARG35      -0.2867
     14  CB        -8.1850   -4.6920  -50.8770 C.3    35  ARG35       0.0307
     15  CG        -7.6470   -4.8830  -49.4720 C.3    35  ARG35       0.0489
     16  CD        -7.2520   -3.5120  -48.9450 C.3    35  ARG35       0.2205
     17  NE        -6.8570   -3.4790  -47.5410 N.pl3  35  ARG35      -0.0865
     18  CZ        -6.6250   -2.3590  -46.8590 C.cat  35  ARG35       0.5346
     19  NH1       -6.7680   -1.1670  -47.4410 N.pl3  35  ARG35       0.1354
     20  NH2       -6.2600   -2.4280  -45.5860 N.pl3  35  ARG35       0.1354
     21  N        -12.6850   -0.1110  -51.9740 N.3    38  PHE38      -0.1228
     22  CA       -12.0850    1.1890  -51.7030 C.3    38  PHE38       0.1721
     23  C        -11.5180    1.9070  -52.9400 C.2    38  PHE38       0.2437
     24  O        -11.8990    3.0650  -53.1720 O.2    38  PHE38      -0.2733
     25  CB       -11.0860    1.1650  -50.5380 C.3    38  PHE38       0.0547
     26  CG       -10.8090    2.5250  -49.9680 C.ar   38  PHE38      -0.0202
     27  CD1      -11.7960    3.2050  -49.2520 C.ar   38  PHE38      -0.0042
     28  CD2       -9.5800    3.1300  -50.1600 C.ar   38  PHE38      -0.0042
     29  CE1      -11.5610    4.4680  -48.7430 C.ar   38  PHE38      -0.0003
     30  CE2       -9.3290    4.3950  -49.6380 C.ar   38  PHE38      -0.0003
     31  CZ       -10.3210    5.0600  -48.9370 C.ar   38  PHE38      -0.0000
     32  N        -10.6330    1.2460  -53.7280 N.am   39  PRO39      -0.2729
     33  CA       -10.1900    1.9170  -54.9570 C.3    39  PRO39       0.1401
     34  C        -11.3070    2.2570  -55.9050 C.2    39  PRO39       0.2269
     35  O        -11.2450    3.2890  -56.5710 O.2    39  PRO39      -0.2865
     36  CB        -9.1850    0.9350  -55.5890 C.3    39  PRO39       0.0296
     37  CG        -9.3190   -0.3310  -54.8540 C.3    39  PRO39       0.0237
     38  CD        -9.8390    0.0260  -53.4860 C.3    39  PRO39       0.0939
     39  N        -12.5840    5.4720  -54.5900 N.3    42  ILE42      -0.1245
     40  CA       -11.7320    6.6090  -54.9380 C.3    42  ILE42       0.1561
     41  C        -11.8420    6.9190  -56.4280 C.2    42  ILE42       0.2260
     42  O        -11.9680    8.0670  -56.8460 O.2    42  ILE42      -0.2867
     43  CB       -10.2610    6.4100  -54.5230 C.3    42  ILE42       0.0252
     44  CG1      -10.1270    6.1300  -53.0000 C.3    42  ILE42       0.0019
     45  CG2       -9.4270    7.5960  -55.0210 C.3    42  ILE42       0.0019
     46  CD1      -10.7540    7.1480  -52.0620 C.3    42  ILE42       0.0001
     47  N         -1.1940    8.3040  -46.4540 N.3   173  CYS173     -0.1221
     48  CA        -0.7840    6.9610  -46.8550 C.3   173  CYS173      0.1808
     49  C         -1.2150    6.6850  -48.3130 C.2   173  CYS173      0.2601
     50  O         -1.0040    5.5980  -48.8330 O.2   173  CYS173     -0.2717
     51  CB        -1.3620    5.9080  -45.8760 C.3   173  CYS173      0.0970
     52  SG        -3.1470    5.5920  -46.0100 S.3   173  CYS173     -0.0800
     53  N         -1.8900    7.6550  -48.9300 N.am  174  ALA174     -0.1965
     54  CA        -2.3260    7.5240  -50.3260 C.3   174  ALA174      0.1728
     55  C         -1.4360    8.4110  -51.1870 C.2   174  ALA174      0.2616
     56  O         -1.5240    9.6520  -51.0970 O.2   174  ALA174     -0.2715
     57  CB        -3.7840    7.9300  -50.4640 C.3   174  ALA174      0.0334
     58  N         -0.5670    7.7850  -51.9900 N.am  175  ILE175     -0.1963
     59  CA         0.3400    8.5140  -52.8980 C.3   175  ILE175      0.1727
     60  C         -0.4180    9.4730  -53.8380 C.2   175  ILE175      0.2616
     61  O          0.0800   10.5380  -54.1270 O.2   175  ILE175     -0.2715
     62  CB         1.3180    7.5500  -53.6370 C.3   175  ILE175      0.0290
     63  CG1        2.5250    7.2590  -52.7420 C.3   175  ILE175      0.0022
     64  CG2        1.8740    8.1130  -54.9330 C.3   175  ILE175      0.0023
     65  CD1        3.5660    8.3520  -52.7170 C.3   175  ILE175      0.0001
     66  N         -1.6450    9.1130  -54.2520 N.am  176  TRP176     -0.1974
     67  CA        -2.4540    9.9930  -55.0960 C.3   176  TRP176      0.1640
     68  C         -2.7610   11.3590  -54.4620 C.2   176  TRP176      0.2290
     69  O         -2.8440   12.3550  -55.1670 O.2   176  TRP176     -0.2864
     70  CB        -3.7260    9.3060  -55.5960 C.3   176  TRP176      0.0576
     71  CG        -4.6900    8.8120  -54.5150 C.ar  176  TRP176      0.0006
     72  CD1       -4.8090    7.5330  -54.0530 C.ar  176  TRP176      0.0946
     73  CD2       -5.6770    9.5830  -53.8150 C.ar  176  TRP176      0.0152
     74  NE1       -5.8080    7.4570  -53.1060 N.ar  176  TRP176     -0.2442
     75  CE2       -6.3570    8.7030  -52.9430 C.ar  176  TRP176      0.0810
     76  CE3       -6.0660   10.9320  -53.8490 C.ar  176  TRP176      0.0012
     77  CZ2       -7.3630    9.1400  -52.0770 C.ar  176  TRP176      0.0191
     78  CZ3       -7.0800   11.3480  -53.0050 C.ar  176  TRP176      0.0001
     79  CH2       -7.7180   10.4510  -52.1390 C.ar  176  TRP176      0.0015
     80  N         -1.1180   -2.4610  -46.1770 N.3   195  HIS195     -0.1226
     81  CA        -1.7050   -2.4930  -47.5290 C.3   195  HIS195      0.1752
     82  C         -1.6230   -1.1460  -48.2910 C.2   195  HIS195      0.2596
     83  O         -2.3540   -0.9250  -49.2420 O.2   195  HIS195     -0.2718
     84  CB        -3.1380   -3.0250  -47.4800 C.3   195  HIS195      0.0759
     85  CG        -3.4920   -3.8970  -48.6360 C.ar  195  HIS195      0.0818
     86  ND1       -3.5290   -5.2730  -48.5390 N.ar  195  HIS195     -0.2268
     87  CD2       -3.8140   -3.5950  -49.9170 C.ar  195  HIS195      0.1154
     88  CE1       -3.8710   -5.7800  -49.7090 C.ar  195  HIS195      0.1986
     89  NE2       -4.0470   -4.7840  -50.5610 N.ar  195  HIS195     -0.2212
     90  N         -0.6990   -0.2800  -47.8700 N.am  196  ASN196     -0.1960
     91  CA        -0.4440    1.0250  -48.4910 C.3   196  ASN196      0.1819
     92  C          1.0350    1.2870  -48.6550 C.2   196  ASN196      0.2621
     93  O          1.7310    1.6450  -47.7050 O.2   196  ASN196     -0.2715
     94  CB        -1.0850    2.1500  -47.6770 C.3   196  ASN196      0.1195
     95  CG        -2.5630    2.2630  -47.9310 C.2   196  ASN196      0.2630
     96  OD1       -3.0020    2.8350  -48.9400 O.2   196  ASN196     -0.2716
     97  ND2       -3.3430    1.7080  -47.0360 N.am  196  ASN196     -0.0877
     98  N          1.5220    1.0930  -49.8690 N.am  197  THR197     -0.1951
     99  CA         2.9080    1.3390  -50.1880 C.3   197  THR197      0.1897
    100  C          2.9120    2.3840  -51.2810 C.2   197  THR197      0.2313
    101  O          1.9050    2.5530  -51.9660 O.2   197  THR197     -0.2863
    102  CB         3.6610    0.0360  -50.6060 C.3   197  THR197      0.1794
    103  OG1        3.0830   -0.5050  -51.8040 O.3   197  THR197     -0.2208
    104  CG2        3.6020   -1.0210  -49.4820 C.3   197  THR197      0.0378
@<TRIPOS>BOND
     1    42    41    2
     2    35    34    2
     3    41    40    1
     4    34    33    1
     5    70    67    1
     6    70    71    1
     7    36    33    1
     8    36    37    1
     9    69    68    2
    10    67    68    1
    11    67    66    1
    12    45    43    1
    13    33    32    1
    14    40    39    1
    15    40    43    1
    16    64    62    1
    17    37    38    1
    18    43    44    1
    19    71    72   ar
    20    71    73   ar
    21    66    60   am
    22    61    60    2
    23    72    74   ar
    24    76    73   ar
    25    76    78   ar
    26    60    59    1
    27    73    75   ar
    28    32    38    1
    29    32    23   am
    30    62    59    1
    31    62    63    1
    32    13    12    2
    33    24    23    2
    34    74    75   ar
    35    78    79   ar
    36    44    46    1
    37    75    77   ar
    38    23    22    1
    39    59    58    1
    40    63    65    1
    41    12    11    1
    42    79    77   ar
    43    58    55   am
    44    21    22    1
    45   101   100    2
    46   103   102    1
    47    22    25    1
    48   100    99    1
    49    55    56    2
    50    55    54    1
    51    11    14    1
    52    11    10    1
    53    14    15    1
    54   102    99    1
    55   102   104    1
    56    89    87   ar
    57    89    88   ar
    58    25    26    1
    59    57    54    1
    60    54    53    1
    61    99    98    1
    62    28    26   ar
    63    28    30   ar
    64    26    27   ar
    65    87    85   ar
    66    98    92   am
    67    88    86   ar
    68    30    31   ar
    69    15    16    1
    70    27    29   ar
    71    83    82    2
    72    16    17    1
    73    96    95    2
    74    31    29   ar
    75    53    49   am
    76    50    49    2
    77    92    91    1
    78    92    93    2
    79    85    86   ar
    80    85    84    1
    81    91    90    1
    82    91    94    1
    83     8     7   ar
    84    49    48    1
    85    82    90   am
    86    82    81    1
    87    95    94    1
    88    95    97   am
    89     9     7   ar
    90     7     6    1
    91    17    18    2
    92    81    84    1
    93    81    80    1
    94    19    18    1
    95    18    20    1
    96    48    47    1
    97    48    51    1
    98     6     5    1
    99    52    51    1
   100     5     2    1
   101     2     1    1
   102     2     3    1
   103     3     4    2
