@<TRIPOS>MOLECULE
tmp/4cf6B03.pdb
 119 122 0 0 0
SMALL
GASTEIGER

@<TRIPOS>ATOM
      1  N         -7.8110   32.1910   26.4980 N.3   103  TRP103     -0.1227
      2  CA        -6.8930   31.5200   25.5810 C.3   103  TRP103      0.1737
      3  C         -6.0510   30.4550   26.2600 C.2   103  TRP103      0.2595
      4  O         -4.8220   30.4840   26.1950 O.2   103  TRP103     -0.2718
      5  CB        -5.9960   32.5400   24.8820 C.3   103  TRP103      0.0564
      6  CG        -6.7200   33.2790   23.8050 C.ar  103  TRP103      0.0003
      7  CD1       -6.9870   34.6130   23.7620 C.ar  103  TRP103      0.0946
      8  CD2       -7.3030   32.7150   22.6230 C.ar  103  TRP103      0.0152
      9  NE1       -7.6860   34.9210   22.6190 N.ar  103  TRP103     -0.2442
     10  CE2       -7.8940   33.7710   21.9040 C.ar  103  TRP103      0.0810
     11  CE3       -7.3770   31.4210   22.1000 C.ar  103  TRP103      0.0012
     12  CZ2       -8.5470   33.5740   20.6890 C.ar  103  TRP103      0.0191
     13  CZ3       -8.0260   31.2280   20.8960 C.ar  103  TRP103      0.0001
     14  CH2       -8.6020   32.2980   20.2040 C.ar  103  TRP103      0.0015
     15  N         -6.7360   29.5250   26.9190 N.am  104  PHE104     -0.1976
     16  CA        -6.1160   28.3280   27.4760 C.3   104  PHE104      0.1639
     17  C         -5.0880   28.6820   28.5400 C.2   104  PHE104      0.2290
     18  O         -4.1510   27.9300   28.7920 O.2   104  PHE104     -0.2864
     19  CB        -5.4820   27.4930   26.3590 C.3   104  PHE104      0.0560
     20  CG        -6.4850   26.8800   25.4110 C.ar  104  PHE104     -0.0200
     21  CD1       -7.2380   27.6730   24.5600 C.ar  104  PHE104     -0.0042
     22  CD2       -6.6610   25.5080   25.3650 C.ar  104  PHE104     -0.0042
     23  CE1       -8.1570   27.1110   23.6930 C.ar  104  PHE104     -0.0003
     24  CE2       -7.5740   24.9350   24.4980 C.ar  104  PHE104     -0.0003
     25  CZ        -8.3240   25.7400   23.6600 C.ar  104  PHE104     -0.0000
     26  N        -15.6780   29.4800   28.8960 N.3   147  GLY147     -0.1210
     27  CA       -16.7240   29.5250   27.8930 C.3   147  GLY147      0.1956
     28  C        -17.1510   28.1200   27.5160 C.2   147  GLY147      0.2612
     29  O        -18.3260   27.7740   27.6090 O.2   147  GLY147     -0.2717
     30  N        -16.1850   27.3040   27.1040 N.am  148  GLY148     -0.1942
     31  CA       -16.4540   25.9340   26.7040 C.3   148  GLY148      0.2014
     32  C        -16.9940   25.0610   27.8210 C.2   148  GLY148      0.2640
     33  O        -17.0980   25.4940   28.9680 O.2   148  GLY148     -0.2714
     34  N        -17.3350   23.8220   27.4800 N.am  149  SER149     -0.1935
     35  CA       -17.9210   22.8870   28.4360 C.3   149  SER149      0.2055
     36  C        -16.9130   21.8610   28.9350 C.2   149  SER149      0.2644
     37  O        -15.7950   21.7820   28.4310 O.2   149  SER149     -0.2714
     38  CB       -19.1090   22.1650   27.8080 C.3   149  SER149      0.2130
     39  OG       -18.7480   21.5800   26.5690 O.3   149  SER149     -0.2179
     40  N        -17.3240   21.0680   29.9200 N.am  150  GLY150     -0.1939
     41  CA       -16.4510   20.0700   30.5080 C.3   150  GLY150      0.2014
     42  C        -16.0990   18.9640   29.5340 C.2   150  GLY150      0.2640
     43  O        -15.0440   18.3390   29.6430 O.2   150  GLY150     -0.2714
     44  N        -16.9900   18.7270   28.5790 N.am  151  SER151     -0.1935
     45  CA       -16.7860   17.6990   27.5680 C.3   151  SER151      0.2055
     46  C        -15.7960   18.1590   26.5060 C.2   151  SER151      0.2643
     47  O        -15.0710   17.3490   25.9370 O.2   151  SER151     -0.2714
     48  CB       -18.1140   17.3210   26.9170 C.3   151  SER151      0.2130
     49  OG       -18.7030   18.4480   26.2910 O.3   151  SER151     -0.2179
     50  N        -15.7780   19.4610   26.2390 N.am  152  MET152     -0.1962
     51  CA       -14.8220   20.0410   25.3010 C.3   152  MET152      0.1736
     52  C        -13.3990   19.8770   25.8160 C.2   152  MET152      0.2616
     53  O        -12.4590   19.7270   25.0360 O.2   152  MET152     -0.2715
     54  CB       -15.1200   21.5240   25.0650 C.3   152  MET152      0.0427
     55  CG       -15.9810   21.8260   23.8480 C.3   152  MET152      0.0599
     56  SD       -16.2900   23.5980   23.6830 S.3   152  MET152     -0.1393
     57  CE       -15.7680   23.8960   22.0000 C.3   152  MET152      0.0692
     58  N        -13.2490   19.9140   27.1360 N.am  153  TYR153     -0.1974
     59  CA       -11.9390   19.7810   27.7610 C.3   153  TYR153      0.1639
     60  C        -11.7550   18.3900   28.3490 C.2   153  TYR153      0.2290
     61  O        -10.8340   18.1490   29.1290 O.2   153  TYR153     -0.2864
     62  CB       -11.7450   20.8430   28.8420 C.3   153  TYR153      0.0560
     63  CG       -11.8210   22.2550   28.3110 C.ar  153  TYR153     -0.0198
     64  CD1      -10.7870   22.7890   27.5540 C.ar  153  TYR153     -0.0009
     65  CD2      -12.9280   23.0510   28.5640 C.ar  153  TYR153     -0.0009
     66  CE1      -10.8550   24.0760   27.0650 C.ar  153  TYR153      0.0417
     67  CE2      -13.0050   24.3370   28.0790 C.ar  153  TYR153      0.0417
     68  CZ       -11.9670   24.8450   27.3310 C.ar  153  TYR153      0.1957
     69  OH       -12.0420   26.1300   26.8480 O.3   153  TYR153     -0.2866
     70  N        -10.7870   20.1800   22.5010 N.3   159  HIS159     -0.1241
     71  CA        -9.7410   21.0340   23.0460 C.3   159  HIS159      0.1621
     72  C         -8.6440   20.2180   23.7140 C.2   159  HIS159      0.2264
     73  O         -7.4600   20.4760   23.5080 O.2   159  HIS159     -0.2867
     74  CB       -10.3390   22.0380   24.0310 C.3   159  HIS159      0.0745
     75  CG       -11.1330   23.1210   23.3750 C.ar  159  HIS159      0.0817
     76  ND1      -11.0380   23.4040   22.0280 N.ar  159  HIS159     -0.2268
     77  CD2      -12.0400   23.9960   23.8760 C.ar  159  HIS159      0.1154
     78  CE1      -11.8470   24.4020   21.7300 C.ar  159  HIS159      0.1986
     79  NE2      -12.4680   24.7800   22.8350 N.ar  159  HIS159     -0.2212
     80  N        -17.5770   25.3720   34.0130 N.3   188  TYR188     -0.1227
     81  CA       -17.6760   25.2850   32.5620 C.3   188  TYR188      0.1736
     82  C        -18.9630   25.9110   32.0490 C.2   188  TYR188      0.2596
     83  O        -19.8920   26.1610   32.8160 O.2   188  TYR188     -0.2718
     84  CB       -17.6070   23.8290   32.0970 C.3   188  TYR188      0.0548
     85  CG       -16.3030   23.1150   32.3770 C.ar  188  TYR188     -0.0200
     86  CD1      -15.1810   23.3420   31.5910 C.ar  188  TYR188     -0.0009
     87  CD2      -16.2050   22.1890   33.4070 C.ar  188  TYR188     -0.0009
     88  CE1      -13.9910   22.6780   31.8360 C.ar  188  TYR188      0.0417
     89  CE2      -15.0220   21.5210   33.6570 C.ar  188  TYR188      0.0417
     90  CZ       -13.9180   21.7680   32.8690 C.ar  188  TYR188      0.1957
     91  OH       -12.7400   21.1010   33.1200 O.3   188  TYR188     -0.2866
     92  N        -18.9960   26.1530   30.7420 N.am  189  SER189     -0.1938
     93  CA       -20.1960   26.5900   30.0310 C.3   189  SER189      0.2055
     94  C        -20.9670   27.7020   30.7240 C.2   189  SER189      0.2643
     95  O        -22.1960   27.7140   30.6990 O.2   189  SER189     -0.2714
     96  CB       -21.1330   25.4020   29.8060 C.3   189  SER189      0.2130
     97  OG       -20.7310   24.6450   28.6810 O.3   189  SER189     -0.2179
     98  N        -20.2550   28.6320   31.3440 N.am  190  ILE190     -0.1963
     99  CA       -20.9170   29.7750   31.9480 C.3   190  ILE190      0.1727
    100  C        -21.5310   30.6050   30.8200 C.2   190  ILE190      0.2617
    101  O        -21.0200   30.6180   29.6960 O.2   190  ILE190     -0.2715
    102  CB       -19.9390   30.6140   32.8060 C.3   190  ILE190      0.0290
    103  CG1      -20.7070   31.4970   33.7890 C.3   190  ILE190      0.0022
    104  CG2      -18.9970   31.4180   31.9290 C.3   190  ILE190      0.0023
    105  CD1      -21.5250   30.7140   34.7930 C.3   190  ILE190      0.0001
    106  N        -22.6480   31.2650   31.1030 N.am  191  GLY191     -0.1940
    107  CA       -23.3820   31.9770   30.0710 C.3   191  GLY191      0.2014
    108  C        -24.5020   31.1200   29.5090 C.2   191  GLY191      0.2638
    109  O        -25.5150   31.6300   29.0320 O.2   191  GLY191     -0.2714
    110  N        -24.3060   29.8070   29.5600 N.am  192  HIS192     -0.1973
    111  CA       -25.3520   28.8590   29.2070 C.3   192  HIS192      0.1656
    112  C        -25.8920   28.2160   30.4740 C.2   192  HIS192      0.2291
    113  O        -26.5640   27.1870   30.4310 O.2   192  HIS192     -0.2864
    114  CB       -24.8240   27.7980   28.2420 C.3   192  HIS192      0.0771
    115  CG       -24.6200   28.3020   26.8490 C.ar  192  HIS192      0.0820
    116  ND1      -24.2470   29.6010   26.5740 N.ar  192  HIS192     -0.2267
    117  CD2      -24.7400   27.6840   25.6500 C.ar  192  HIS192      0.1154
    118  CE1      -24.1440   29.7600   25.2670 C.ar  192  HIS192      0.1986
    119  NE2      -24.4390   28.6120   24.6830 N.ar  192  HIS192     -0.2212
@<TRIPOS>BOND
     1    14    12   ar
     2    14    13   ar
     3    12    10   ar
     4    13    11   ar
     5    78    76   ar
     6    78    79   ar
     7    10     9   ar
     8    10     8   ar
     9    57    56    1
    10    76    75   ar
    11    11     8   ar
    12    70    71    1
    13     9     7   ar
    14     8     6   ar
    15    79    77   ar
    16    71    72    1
    17    71    74    1
    18    75    77   ar
    19    75    74    1
    20    73    72    2
    21    25    23   ar
    22    25    24   ar
    23    56    55    1
    24    23    21   ar
    25     7     6   ar
    26     6     5    1
    27    55    54    1
    28    24    22   ar
    29    21    20   ar
    30   119   118   ar
    31   119   117   ar
    32     5     2    1
    33    53    52    2
    34    54    51    1
    35   118   116   ar
    36    51    52    1
    37    51    50    1
    38    22    20   ar
    39    20    19    1
    40     2     3    1
    41     2     1    1
    42   117   115   ar
    43    52    58   am
    44    47    46    2
    45     4     3    2
    46    50    46   am
    47     3    15   am
    48    49    48    1
    49    19    16    1
    50    46    45    1
    51    39    38    1
    52   116   115   ar
    53    31    30    1
    54    31    32    1
    55    69    68    1
    56   115   114    1
    57    48    45    1
    58    15    16    1
    59    66    68   ar
    60    66    64   ar
    61    30    28   am
    62    58    59    1
    63    68    67   ar
    64    16    17    1
    65    34    32   am
    66    34    35    1
    67    28    29    2
    68    28    27    1
    69    64    63   ar
    70    45    44    1
    71    59    60    1
    72    59    62    1
    73    38    35    1
    74    32    33    2
    75    27    26    1
    76    67    65   ar
    77   114   111    1
    78    63    65   ar
    79    63    62    1
    80    60    61    2
    81    37    36    2
    82    35    36    1
    83    17    18    2
    84    44    42   am
    85    97    96    1
    86    36    40   am
    87   109   108    2
    88   111   110    1
    89   111   112    1
    90   108   110   am
    91   108   107    1
    92    42    43    2
    93    42    41    1
    94   101   100    2
    95    96    93    1
    96    40    41    1
    97    93    94    1
    98    93    92    1
    99   107   106    1
   100   113   112    2
   101    95    94    2
   102    94    98   am
   103    92    82   am
   104   100   106   am
   105   100    99    1
   106    98    99    1
   107    86    88   ar
   108    86    85   ar
   109    88    90   ar
   110   104   102    1
   111    99   102    1
   112    82    81    1
   113    82    83    2
   114    84    85    1
   115    84    81    1
   116    85    87   ar
   117    81    80    1
   118   102   103    1
   119    90    91    1
   120    90    89   ar
   121    87    89   ar
   122   103   105    1
