@<TRIPOS>MOLECULE
tmp/4cf6B01.pdb
 99 98 0 0 0
SMALL
GASTEIGER

@<TRIPOS>ATOM
      1  N         19.0770   43.3760   32.3450 N.3    64  GLN64      -0.1245
      2  CA        18.4480   42.0610   32.4040 C.3    64  GLN64       0.1566
      3  C         17.5350   41.9890   33.6180 C.2    64  GLN64       0.2260
      4  O         18.0060   42.0320   34.7510 O.2    64  GLN64      -0.2867
      5  CB        19.5030   40.9570   32.4690 C.3    64  GLN64       0.0367
      6  CG        20.3980   40.8760   31.2450 C.3    64  GLN64       0.0905
      7  CD        21.7070   40.1660   31.5320 C.2    64  GLN64       0.2608
      8  OE1       22.6890   40.7930   31.9290 O.2    64  GLN64      -0.2717
      9  NE2       21.7270   38.8500   31.3340 N.am   64  GLN64      -0.0878
     10  N         15.6180   39.5770   35.1760 N.3    66  PRO66      -0.2102
     11  CA        15.7210   38.5760   36.2470 C.3    66  PRO66       0.1504
     12  C         16.8780   38.8260   37.2110 C.2    66  PRO66       0.2575
     13  O         16.7040   38.7040   38.4230 O.2    66  PRO66      -0.2718
     14  CB        15.9440   37.2660   35.4860 C.3    66  PRO66       0.0282
     15  CG        15.4090   37.5140   34.1280 C.3    66  PRO66       0.0208
     16  CD        15.7070   38.9460   33.8440 C.3    66  PRO66       0.0893
     17  N         18.0400   39.1820   36.6740 N.am   67  ALA67      -0.1980
     18  CA        19.2300   39.3650   37.4930 C.3    67  ALA67       0.1597
     19  C         19.2730   40.7380   38.1600 C.2    67  ALA67       0.2287
     20  O         20.0480   40.9550   39.0920 O.2    67  ALA67      -0.2864
     21  CB        20.4780   39.1520   36.6560 C.3    67  ALA67       0.0319
     22  N         11.0520   32.5450   44.7810 N.3   124  TYR124     -0.1241
     23  CA        11.7370   31.3070   44.4200 C.3   124  TYR124      0.1605
     24  C         13.2580   31.4160   44.4830 C.2   124  TYR124      0.2264
     25  O         13.8140   32.5100   44.5710 O.2   124  TYR124     -0.2867
     26  CB        11.3210   30.8710   43.0140 C.3   124  TYR124      0.0534
     27  CG        11.8800   31.7520   41.9210 C.ar  124  TYR124     -0.0201
     28  CD1       11.3080   32.9820   41.6330 C.ar  124  TYR124     -0.0009
     29  CD2       12.9790   31.3530   41.1770 C.ar  124  TYR124     -0.0009
     30  CE1       11.8170   33.7890   40.6360 C.ar  124  TYR124      0.0417
     31  CE2       13.4940   32.1520   40.1790 C.ar  124  TYR124      0.0417
     32  CZ        12.9100   33.3680   39.9130 C.ar  124  TYR124      0.1957
     33  OH        13.4230   34.1660   38.9180 O.3   124  TYR124     -0.2866
     34  N         16.9010   28.6770   43.2400 N.3   126  TYR126     -0.1241
     35  CA        17.3840   27.4070   42.7040 C.3   126  TYR126      0.1605
     36  C         17.6370   26.3860   43.8090 C.2   126  TYR126      0.2264
     37  O         17.5590   25.1790   43.5830 O.2   126  TYR126     -0.2867
     38  CB        18.6610   27.6290   41.8980 C.3   126  TYR126      0.0534
     39  CG        18.5670   28.7950   40.9440 C.ar  126  TYR126     -0.0201
     40  CD1       17.5050   28.9030   40.0530 C.ar  126  TYR126     -0.0009
     41  CD2       19.5370   29.7900   40.9350 C.ar  126  TYR126     -0.0009
     42  CE1       17.4110   29.9730   39.1780 C.ar  126  TYR126      0.0417
     43  CE2       19.4540   30.8650   40.0640 C.ar  126  TYR126      0.0417
     44  CZ        18.3900   30.9510   39.1880 C.ar  126  TYR126      0.1957
     45  OH        18.3030   32.0160   38.3210 O.3   126  TYR126     -0.2866
     46  N          6.1190   25.8070   41.8800 N.3   176  PHE176     -0.1241
     47  CA         7.5310   26.1570   41.7390 C.3   176  PHE176      0.1605
     48  C          8.0080   27.0700   42.8590 C.2   176  PHE176      0.2264
     49  O          9.1790   27.0500   43.2360 O.2   176  PHE176     -0.2867
     50  CB         7.7810   26.8250   40.3880 C.3   176  PHE176      0.0534
     51  CG         9.2120   27.2300   40.1650 C.ar  176  PHE176     -0.0203
     52  CD1       10.2070   26.2760   40.0620 C.ar  176  PHE176     -0.0042
     53  CD2        9.5600   28.5630   40.0440 C.ar  176  PHE176     -0.0042
     54  CE1       11.5230   26.6410   39.8520 C.ar  176  PHE176     -0.0003
     55  CE2       10.8760   28.9350   39.8320 C.ar  176  PHE176     -0.0003
     56  CZ        11.8560   27.9710   39.7370 C.ar  176  PHE176     -0.0000
     57  N         21.2410   19.0780   41.3720 N.3   229  ASN229     -0.1225
     58  CA        22.5950   19.4770   41.0240 C.3   229  ASN229      0.1785
     59  C         22.6770   19.9020   39.5750 C.2   229  ASN229      0.2597
     60  O         21.8850   19.4710   38.7440 O.2   229  ASN229     -0.2718
     61  CB        23.5790   18.3370   41.2710 C.3   229  ASN229      0.1169
     62  CG        23.5550   17.8490   42.6990 C.2   229  ASN229      0.2627
     63  OD1       23.4780   18.6400   43.6400 O.2   229  ASN229     -0.2716
     64  ND2       23.6170   16.5350   42.8710 N.am  229  ASN229     -0.0877
     65  N         23.6500   20.7450   39.2720 N.am  230  PHE230     -0.1962
     66  CA        23.8000   21.2490   37.9220 C.3   230  PHE230      0.1771
     67  C         24.6590   20.2910   37.1140 C.2   230  PHE230      0.2619
     68  O         24.5310   20.2100   35.8940 O.2   230  PHE230     -0.2715
     69  CB        24.3860   22.6570   37.9500 C.3   230  PHE230      0.0574
     70  CG        23.5650   23.6220   38.7600 C.ar  230  PHE230     -0.0200
     71  CD1       22.3970   24.1330   38.2500 C.ar  230  PHE230     -0.0042
     72  CD2       23.9450   23.9920   40.0360 C.ar  230  PHE230     -0.0042
     73  CE1       21.6210   25.0230   38.9800 C.ar  230  PHE230     -0.0003
     74  CE2       23.1720   24.8740   40.7850 C.ar  230  PHE230     -0.0003
     75  CZ        22.0130   25.3810   40.2480 C.ar  230  PHE230     -0.0000
     76  N         25.5110   19.5410   37.8070 N.am  231  GLN231     -0.1977
     77  CA        26.2780   18.4820   37.1670 C.3   231  GLN231      0.1601
     78  C         25.3500   17.3410   36.7580 C.2   231  GLN231      0.2287
     79  O         25.5830   16.6720   35.7520 O.2   231  GLN231     -0.2864
     80  CB        27.3810   17.9730   38.0970 C.3   231  GLN231      0.0394
     81  CG        28.7660   17.9780   37.4660 C.3   231  GLN231      0.0908
     82  CD        29.3620   16.5880   37.3470 C.2   231  GLN231      0.2608
     83  OE1       28.7580   15.6020   37.7700 O.2   231  GLN231     -0.2717
     84  NE2       30.5550   16.5040   36.7700 N.am  231  GLN231     -0.0878
     85  N         22.2130   18.0020   36.1310 N.3   233  GLY233     -0.1210
     86  CA        21.2450   18.6710   35.2800 C.3   233  GLY233      0.1956
     87  C         19.8220   18.5750   35.7980 C.2   233  GLY233      0.2611
     88  O         18.8740   18.5560   35.0140 O.2   233  GLY233     -0.2717
     89  N         19.6840   18.5140   37.1210 N.am  234  PHE234     -0.1976
     90  CA        18.3870   18.3990   37.7930 C.3   234  PHE234      0.1639
     91  C         17.5380   17.2530   37.2640 C.2   234  PHE234      0.2290
     92  O         16.3370   17.4110   37.0590 O.2   234  PHE234     -0.2864
     93  CB        17.6010   19.7040   37.6750 C.3   234  PHE234      0.0560
     94  CG        18.1220   20.8060   38.5460 C.ar  234  PHE234     -0.0200
     95  CD1       17.7710   20.8770   39.8830 C.ar  234  PHE234     -0.0042
     96  CD2       18.9560   21.7740   38.0310 C.ar  234  PHE234     -0.0042
     97  CE1       18.2510   21.8940   40.6900 C.ar  234  PHE234     -0.0003
     98  CE2       19.4270   22.7880   38.8290 C.ar  234  PHE234     -0.0003
     99  CZ        19.0790   22.8490   40.1620 C.ar  234  PHE234     -0.0000
@<TRIPOS>BOND
     1     6     7    1
     2     6     5    1
     3     9     7   am
     4     7     8    2
     5     1     2    1
     6     2     5    1
     7     2     3    1
     8     3     4    2
     9    16    15    1
    10    16    10    1
    11    15    14    1
    12    88    87    2
    13    10    11    1
    14    86    87    1
    15    86    85    1
    16    14    11    1
    17    79    78    2
    18    87    89   am
    19    68    67    2
    20    11    12    1
    21    21    18    1
    22    17    12   am
    23    17    18    1
    24    78    77    1
    25    84    82   am
    26    92    91    2
    27    67    76   am
    28    67    66    1
    29    89    90    1
    30    77    76    1
    31    77    80    1
    32    12    13    2
    33    91    90    1
    34    82    81    1
    35    82    83    2
    36    81    80    1
    37    18    19    1
    38    93    90    1
    39    93    94    1
    40    66    69    1
    41    66    65    1
    42    69    70    1
    43    96    94   ar
    44    96    98   ar
    45    19    20    2
    46    71    70   ar
    47    71    73   ar
    48    45    44    1
    49    94    95   ar
    50    60    59    2
    51    70    72   ar
    52    98    99   ar
    53    33    32    1
    54    73    75   ar
    55    42    44   ar
    56    42    40   ar
    57    44    43   ar
    58    65    59   am
    59    59    58    1
    60    56    55   ar
    61    56    54   ar
    62    55    53   ar
    63    54    52   ar
    64    95    97   ar
    65    32    31   ar
    66    32    30   ar
    67    72    74   ar
    68    53    51   ar
    69    40    39   ar
    70    52    51   ar
    71    43    41   ar
    72    99    97   ar
    73    51    50    1
    74    31    29   ar
    75    75    74   ar
    76    50    47    1
    77    30    28   ar
    78    41    39   ar
    79    39    38    1
    80    58    61    1
    81    58    57    1
    82    29    27   ar
    83    61    62    1
    84    28    27   ar
    85    47    46    1
    86    47    48    1
    87    38    35    1
    88    27    26    1
    89    62    64   am
    90    62    63    2
    91    35    34    1
    92    35    36    1
    93    48    49    2
    94    26    23    1
    95    37    36    2
    96    23    24    1
    97    23    22    1
    98    24    25    2
