@<TRIPOS>MOLECULE
tmp/4cf9A01.pdb
 88 87 0 0 0
SMALL
GASTEIGER

@<TRIPOS>ATOM
      1  N         10.5860  -46.1990    5.5940 N.3    40  GLN40      -0.1231
      2  CA        11.4380  -45.6680    6.6500 C.3    40  GLN40       0.1698
      3  C         12.2110  -44.4250    6.2250 C.2    40  GLN40       0.2592
      4  O         12.2550  -43.4440    6.9640 O.2    40  GLN40      -0.2718
      5  CB        12.3910  -46.7380    7.1620 C.3    40  GLN40       0.0381
      6  CG        11.7880  -47.5720    8.2770 C.3    40  GLN40       0.0905
      7  CD        12.8040  -48.4990    8.9030 C.2    40  GLN40       0.2608
      8  OE1       13.0110  -49.5960    8.4040 O.2    40  GLN40      -0.2717
      9  NE2       13.4550  -48.0630    9.9840 N.am   40  GLN40      -0.0878
     10  N         12.8240  -44.4640    5.0510 N.am   41  GLU41      -0.1979
     11  CA        13.5850  -43.3070    4.5630 C.3    41  GLU41       0.1602
     12  C         12.6640  -42.1130    4.3850 C.2    41  GLU41       0.2287
     13  O         13.0050  -41.0020    4.7790 O.2    41  GLU41      -0.2864
     14  CB        14.2800  -43.6130    3.2350 C.3    41  GLU41       0.0415
     15  CG        15.4280  -44.6070    3.3320 C.3    41  GLU41       0.1163
     16  CD        16.6440  -44.0960    4.0910 C.2    41  GLU41       0.3649
     17  OE1       16.7170  -42.9070    4.4680 O.co2  41  GLU41      -0.2457
     18  OE2       17.5560  -44.9090    4.3040 O.co2  41  GLU41      -0.2457
     19  N          9.7440  -41.5780    5.8080 N.3    43  ALA43      -0.1231
     20  CA         9.2540  -41.1790    7.1130 C.3    43  ALA43       0.1694
     21  C         10.2530  -40.2860    7.8130 C.2    43  ALA43       0.2592
     22  O          9.8890  -39.2530    8.3580 O.2    43  ALA43      -0.2718
     23  CB         8.9720  -42.4090    7.9700 C.3    43  ALA43       0.0304
     24  N         11.5110  -40.6980    7.7900 N.am   44  TYR44      -0.1976
     25  CA        12.5830  -39.9310    8.4090 C.3    44  TYR44       0.1639
     26  C         12.7560  -38.5810    7.7310 C.2    44  TYR44       0.2290
     27  O         12.9110  -37.5520    8.3880 O.2    44  TYR44      -0.2864
     28  CB        13.8800  -40.7270    8.3610 C.3    44  TYR44       0.0560
     29  CG        15.0480  -40.0090    8.9850 C.ar   44  TYR44      -0.0198
     30  CD1       15.1060  -39.8150   10.3480 C.ar   44  TYR44      -0.0009
     31  CD2       16.0920  -39.5180    8.2080 C.ar   44  TYR44      -0.0009
     32  CE1       16.1740  -39.1640   10.9300 C.ar   44  TYR44       0.0417
     33  CE2       17.1700  -38.8700    8.7810 C.ar   44  TYR44       0.0417
     34  CZ        17.2000  -38.6890   10.1430 C.ar   44  TYR44       0.1957
     35  OH        18.2430  -38.0220   10.7350 O.3    44  TYR44      -0.2866
     36  N          9.8660  -36.3050    8.7110 N.3    47  LEU47      -0.1245
     37  CA        10.0860  -35.8260   10.0580 C.3    47  LEU47       0.1561
     38  C         11.0470  -34.6290   10.0470 C.2    47  LEU47       0.2260
     39  O         10.7790  -33.6160   10.6910 O.2    47  LEU47      -0.2867
     40  CB        10.6150  -36.9480   10.9400 C.3    47  LEU47       0.0270
     41  CG        11.0740  -36.5110   12.3260 C.3    47  LEU47       0.0019
     42  CD1        9.9450  -35.8730   13.1130 C.3    47  LEU47       0.0001
     43  CD2       11.6470  -37.6970   13.0600 C.3    47  LEU47       0.0001
     44  N          4.8070  -46.8930    8.2090 N.3    70  THR70      -0.1218
     45  CA         5.8840  -46.0530    8.7250 C.3    70  THR70       0.1862
     46  C          5.7330  -44.5910    8.2870 C.2    70  THR70       0.2287
     47  O          5.9070  -43.6670    9.0960 O.2    70  THR70      -0.2866
     48  CB         7.2590  -46.5900    8.3130 C.3    70  THR70       0.1770
     49  OG1        7.3080  -47.9940    8.5620 O.3    70  THR70      -0.2211
     50  CG2        8.3580  -45.9160    9.1140 C.3    70  THR70       0.0375
     51  N          2.8260  -43.2210   10.2030 N.3    73  ALA73      -0.1231
     52  CA         3.2880  -42.9870   11.5710 C.3    73  ALA73       0.1694
     53  C          4.0600  -41.6740   11.6910 C.2    73  ALA73       0.2591
     54  O          3.8560  -40.9210   12.6390 O.2    73  ALA73      -0.2718
     55  CB         4.1450  -44.1460   12.0490 C.3    73  ALA73       0.0304
     56  N          4.9200  -41.3880   10.7170 N.am   74  ALA74      -0.1980
     57  CA         5.6600  -40.1290   10.7040 C.3    74  ALA74       0.1597
     58  C          4.7350  -38.9380   10.4960 C.2    74  ALA74       0.2287
     59  O          4.8930  -37.9130   11.1500 O.2    74  ALA74      -0.2864
     60  CB         6.7290  -40.1480    9.6290 C.3    74  ALA74       0.0319
     61  N          1.4500  -38.8470   11.1450 N.3    76  TRP76      -0.1227
     62  CA         0.8040  -38.7390   12.4260 C.3    76  TRP76       0.1737
     63  C          1.7370  -38.0010   13.4060 C.2    76  TRP76       0.2595
     64  O          1.3680  -36.9780   13.9730 O.2    76  TRP76      -0.2718
     65  CB         0.3990  -40.1070   12.9870 C.3    76  TRP76       0.0564
     66  CG         0.0590  -39.9720   14.4290 C.ar   76  TRP76       0.0003
     67  CD1       -1.1030  -39.4850   14.9560 C.ar   76  TRP76       0.0946
     68  CD2        0.9270  -40.2130   15.5260 C.ar   76  TRP76       0.0152
     69  NE1       -1.0210  -39.4390   16.3240 N.ar   76  TRP76      -0.2442
     70  CE2        0.2230  -39.8690   16.7010 C.ar   76  TRP76       0.0810
     71  CE3        2.2300  -40.7000   15.6370 C.ar   76  TRP76       0.0012
     72  CZ2        0.7740  -40.0140   17.9660 C.ar   76  TRP76       0.0191
     73  CZ3        2.7790  -40.8400   16.8940 C.ar   76  TRP76       0.0001
     74  CH2        2.0540  -40.5010   18.0450 C.ar   76  TRP76       0.0015
     75  N          2.9530  -38.5000   13.5830 N.am   77  TRP77      -0.1976
     76  CA         3.8530  -37.9170   14.5730 C.3    77  TRP77       0.1640
     77  C          4.0370  -36.4320   14.3510 C.2    77  TRP77       0.2290
     78  O          3.8780  -35.6370   15.2750 O.2    77  TRP77      -0.2864
     79  CB         5.2210  -38.5990   14.5660 C.3    77  TRP77       0.0576
     80  CG         5.9370  -38.3550   15.8350 C.ar   77  TRP77       0.0006
     81  CD1        5.9690  -39.1750   16.9190 C.ar   77  TRP77       0.0946
     82  CD2        6.6920  -37.1960   16.1820 C.ar   77  TRP77       0.0152
     83  NE1        6.6900  -38.6010   17.9220 N.ar   77  TRP77      -0.2442
     84  CE2        7.1510  -37.3820   17.4940 C.ar   77  TRP77       0.0810
     85  CE3        7.0140  -36.0070   15.5140 C.ar   77  TRP77       0.0012
     86  CZ2        7.9330  -36.4290   18.1540 C.ar   77  TRP77       0.0191
     87  CZ3        7.7760  -35.0680   16.1610 C.ar   77  TRP77       0.0001
     88  CH2        8.2270  -35.2780   17.4760 C.ar   77  TRP77       0.0015
@<TRIPOS>BOND
     1    14    15    1
     2    14    11    1
     3    15    16    1
     4    16    18   ar
     5    16    17   ar
     6    12    11    1
     7    12    13    2
     8    11    10    1
     9    10     3   am
    10     1     2    1
    11    19    20    1
    12     3     2    1
    13     3     4    2
    14     2     5    1
    15    20    21    1
    16    20    23    1
    17     5     6    1
    18    26    27    2
    19    26    25    1
    20    24    21   am
    21    24    25    1
    22    21    22    2
    23    31    33   ar
    24    31    29   ar
    25    44    45    1
    26     6     7    1
    27    46    45    1
    28    46    47    2
    29    48    49    1
    30    48    45    1
    31    48    50    1
    32    28    25    1
    33    28    29    1
    34     8     7    2
    35    36    37    1
    36    33    34   ar
    37     7     9   am
    38    29    30   ar
    39    60    57    1
    40    38    37    1
    41    38    39    2
    42    37    40    1
    43    34    35    1
    44    34    32   ar
    45    51    52    1
    46    30    32   ar
    47    58    57    1
    48    58    59    2
    49    57    56    1
    50    56    53   am
    51    40    41    1
    52    61    62    1
    53    52    53    1
    54    52    55    1
    55    53    54    2
    56    41    43    1
    57    41    42    1
    58    62    65    1
    59    62    63    1
    60    65    66    1
    61    63    75   am
    62    63    64    2
    63    75    76    1
    64    77    76    1
    65    77    78    2
    66    66    67   ar
    67    66    68   ar
    68    79    76    1
    69    79    80    1
    70    67    69   ar
    71    85    87   ar
    72    85    82   ar
    73    68    71   ar
    74    68    70   ar
    75    71    73   ar
    76    80    82   ar
    77    80    81   ar
    78    87    88   ar
    79    82    84   ar
    80    69    70   ar
    81    70    72   ar
    82    73    74   ar
    83    81    83   ar
    84    88    86   ar
    85    84    83   ar
    86    84    86   ar
    87    72    74   ar
