@<TRIPOS>MOLECULE
tmp/4cfbA01.pdb
 88 87 0 0 0
SMALL
GASTEIGER

@<TRIPOS>ATOM
      1  N        -10.9000   46.8420    5.0310 N.3    39  GLN39      -0.1231
      2  CA       -11.6890   46.2550    6.1240 C.3    39  GLN39       0.1698
      3  C        -12.4960   45.0020    5.7500 C.2    39  GLN39       0.2592
      4  O        -12.5280   44.0310    6.5160 O.2    39  GLN39      -0.2718
      5  CB       -12.6140   47.2830    6.7610 C.3    39  GLN39       0.0381
      6  CG       -11.8520   48.2780    7.6530 C.3    39  GLN39       0.0905
      7  CD       -12.7720   49.0620    8.5500 C.2    39  GLN39       0.2608
      8  OE1      -13.5680   48.4950    9.2960 O.2    39  GLN39      -0.2717
      9  NE2      -12.6750   50.3820    8.4730 N.am   39  GLN39      -0.0878
     10  N        -13.1330   45.0170    4.5930 N.am   40  GLU40      -0.1979
     11  CA       -13.8960   43.8180    4.1370 C.3    40  GLU40       0.1602
     12  C        -12.9340   42.6750    3.8910 C.2    40  GLU40       0.2287
     13  O        -13.2270   41.5240    4.2420 O.2    40  GLU40      -0.2864
     14  CB       -14.7090   44.0800    2.8550 C.3    40  GLU40       0.0415
     15  CG       -15.8560   45.0710    3.0210 C.3    40  GLU40       0.1163
     16  CD       -17.0400   44.5010    3.7830 C.2    40  GLU40       0.3649
     17  OE1      -17.0550   43.3190    4.1860 O.co2  40  GLU40      -0.2457
     18  OE2      -17.9760   45.2710    3.9910 O.co2  40  GLU40      -0.2457
     19  N         -9.8890   42.1890    5.2150 N.3    42  ALA42      -0.1231
     20  CA        -9.4130   41.7610    6.5380 C.3    42  ALA42       0.1694
     21  C        -10.4200   40.8280    7.2240 C.2    42  ALA42       0.2592
     22  O        -10.0480   39.7680    7.7420 O.2    42  ALA42      -0.2718
     23  CB        -9.1390   43.0200    7.4430 C.3    42  ALA42       0.0304
     24  N        -11.6910   41.2490    7.2440 N.am   43  TYR43      -0.1976
     25  CA       -12.7650   40.4440    7.8500 C.3    43  TYR43       0.1639
     26  C        -12.9180   39.0790    7.1440 C.2    43  TYR43       0.2290
     27  O        -13.0530   38.0370    7.7810 O.2    43  TYR43      -0.2864
     28  CB       -14.0840   41.2540    7.8670 C.3    43  TYR43       0.0560
     29  CG       -15.2210   40.5000    8.5690 C.ar   43  TYR43      -0.0198
     30  CD1      -15.1890   40.3050    9.9330 C.ar   43  TYR43      -0.0009
     31  CD2      -16.2850   39.9470    7.8350 C.ar   43  TYR43      -0.0009
     32  CE1      -16.1960   39.5940   10.5840 C.ar   43  TYR43       0.0417
     33  CE2      -17.3250   39.2420    8.4880 C.ar   43  TYR43       0.0417
     34  CZ       -17.2530   39.0660    9.8640 C.ar   43  TYR43       0.1957
     35  OH       -18.2260   38.3440   10.5430 O.3    43  TYR43      -0.2866
     36  N        -10.0340   36.7990    8.2250 N.3    46  LEU46      -0.1245
     37  CA       -10.2840   36.3440    9.6130 C.3    46  LEU46       0.1561
     38  C        -11.2570   35.1640    9.6090 C.2    46  LEU46       0.2260
     39  O        -11.0110   34.1390   10.2710 O.2    46  LEU46      -0.2867
     40  CB       -10.8180   37.5020   10.4870 C.3    46  LEU46       0.0270
     41  CG       -11.1870   37.2120   11.9330 C.3    46  LEU46       0.0019
     42  CD1       -9.9370   36.6130   12.6890 C.3    46  LEU46       0.0001
     43  CD2      -11.6470   38.4970   12.6280 C.3    46  LEU46       0.0001
     44  N         -5.1070   47.4520    7.6180 N.3    69  THR69      -0.1218
     45  CA        -6.1360   46.5940    8.2030 C.3    69  THR69       0.1862
     46  C         -5.9680   45.1420    7.7480 C.2    69  THR69       0.2287
     47  O         -6.1620   44.2060    8.5470 O.2    69  THR69      -0.2866
     48  CB        -7.5160   47.1220    7.8550 C.3    69  THR69       0.1770
     49  OG1       -7.5150   48.5440    8.0590 O.3    69  THR69      -0.2211
     50  CG2       -8.5850   46.4740    8.7300 C.3    69  THR69       0.0375
     51  N         -3.0370   43.8300    9.6550 N.3    72  ALA72      -0.1231
     52  CA        -3.4170   43.5570   11.0610 C.3    72  ALA72       0.1694
     53  C         -4.1880   42.2340   11.1700 C.2    72  ALA72       0.2591
     54  O         -3.9050   41.4180   12.0620 O.2    72  ALA72      -0.2718
     55  CB        -4.2170   44.7150   11.6420 C.3    72  ALA72       0.0304
     56  N         -5.1100   41.9720   10.2360 N.am   73  ALA73      -0.1980
     57  CA        -5.8200   40.6740   10.2370 C.3    73  ALA73       0.1597
     58  C         -4.8580   39.5130   10.0150 C.2    73  ALA73       0.2287
     59  O         -4.9760   38.4570   10.6720 O.2    73  ALA73      -0.2864
     60  CB        -6.9300   40.6280    9.1310 C.3    73  ALA73       0.0319
     61  N         -1.5770   39.4060   10.6620 N.3    75  TRP75      -0.1227
     62  CA        -0.9220   39.2750   11.9590 C.3    75  TRP75       0.1737
     63  C         -1.8010   38.5430   12.9900 C.2    75  TRP75       0.2595
     64  O         -1.3620   37.5630   13.6090 O.2    75  TRP75      -0.2718
     65  CB        -0.5030   40.6470   12.4950 C.3    75  TRP75       0.0564
     66  CG        -0.0410   40.4840   13.9120 C.ar   75  TRP75       0.0003
     67  CD1        1.1670   40.0060   14.3360 C.ar   75  TRP75       0.0946
     68  CD2       -0.8220   40.7300   15.0790 C.ar   75  TRP75       0.0152
     69  NE1        1.1940   39.9700   15.7320 N.ar   75  TRP75      -0.2442
     70  CE2       -0.0190   40.3910   16.2040 C.ar   75  TRP75       0.0810
     71  CE3       -2.1230   41.2340   15.2900 C.ar   75  TRP75       0.0012
     72  CZ2       -0.4860   40.5060   17.5130 C.ar   75  TRP75       0.0191
     73  CZ3       -2.5980   41.3500   16.6120 C.ar   75  TRP75       0.0001
     74  CH2       -1.7690   41.0100   17.6980 C.ar   75  TRP75       0.0015
     75  N         -3.0480   38.9970   13.1530 N.am   76  TRP76      -0.1976
     76  CA        -3.9330   38.4440   14.1750 C.3    76  TRP76       0.1640
     77  C         -4.0810   36.9270   14.0150 C.2    76  TRP76       0.2290
     78  O         -3.9460   36.1390   14.9910 O.2    76  TRP76      -0.2864
     79  CB        -5.3160   39.1610   14.1890 C.3    76  TRP76       0.0576
     80  CG        -5.9840   38.9060   15.4670 C.ar   76  TRP76       0.0006
     81  CD1       -5.9280   39.6830   16.5910 C.ar   76  TRP76       0.0946
     82  CD2       -6.6810   37.7040   15.8390 C.ar   76  TRP76       0.0152
     83  NE1       -6.5900   39.0570   17.6210 N.ar   76  TRP76      -0.2442
     84  CE2       -7.0880   37.8600   17.1790 C.ar   76  TRP76       0.0810
     85  CE3       -7.0860   36.5540   15.1350 C.ar   76  TRP76       0.0012
     86  CZ2       -7.8340   36.8700   17.8650 C.ar   76  TRP76       0.0191
     87  CZ3       -7.8210   35.5710   15.8140 C.ar   76  TRP76       0.0001
     88  CH2       -8.1740   35.7380   17.1650 C.ar   76  TRP76       0.0015
@<TRIPOS>BOND
     1    14    15    1
     2    14    11    1
     3    15    16    1
     4    16    18   ar
     5    16    17   ar
     6    12    11    1
     7    12    13    2
     8    11    10    1
     9    10     3   am
    10     1     2    1
    11    19    20    1
    12     3     2    1
    13     3     4    2
    14     2     5    1
    15    20    21    1
    16    20    23    1
    17     5     6    1
    18    26    27    2
    19    26    25    1
    20    21    24   am
    21    21    22    2
    22    24    25    1
    23    44    45    1
    24     6     7    1
    25    46    45    1
    26    46    47    2
    27    31    33   ar
    28    31    29   ar
    29    25    28    1
    30    48    49    1
    31    48    45    1
    32    48    50    1
    33    28    29    1
    34    36    37    1
    35     9     7   am
    36    33    34   ar
    37     7     8    2
    38    29    30   ar
    39    60    57    1
    40    38    37    1
    41    38    39    2
    42    37    40    1
    43    51    52    1
    44    34    35    1
    45    34    32   ar
    46    30    32   ar
    47    58    57    1
    48    58    59    2
    49    56    57    1
    50    56    53   am
    51    40    41    1
    52    61    62    1
    53    52    53    1
    54    52    55    1
    55    53    54    2
    56    41    43    1
    57    41    42    1
    58    62    65    1
    59    62    63    1
    60    65    66    1
    61    63    75   am
    62    63    64    2
    63    75    76    1
    64    66    67   ar
    65    66    68   ar
    66    77    76    1
    67    77    78    2
    68    76    79    1
    69    79    80    1
    70    67    69   ar
    71    68    71   ar
    72    68    70   ar
    73    85    87   ar
    74    85    82   ar
    75    71    73   ar
    76    80    82   ar
    77    80    81   ar
    78    69    70   ar
    79    87    88   ar
    80    82    84   ar
    81    70    72   ar
    82    81    83   ar
    83    73    74   ar
    84    88    86   ar
    85    84    83   ar
    86    84    86   ar
    87    72    74   ar
