@<TRIPOS>MOLECULE
tmp/4cfeC01.pdb
 83 75 0 0 0
SMALL
GASTEIGER

@<TRIPOS>ATOM
      1  N        512.2660   44.8560 1058.2380 N.3     2  VAL2       -0.1245
      2  CA       513.4130   44.9310 1057.3400 C.3     2  VAL2        0.1561
      3  C        514.3720   46.0540 1057.7230 C.2     2  VAL2        0.2260
      4  O        514.0140   47.2300 1057.6780 O.2     2  VAL2       -0.2867
      5  CB       512.9670   45.1310 1055.8840 C.3     2  VAL2        0.0252
      6  CG1      514.1510   44.9720 1054.9420 C.3     2  VAL2        0.0019
      7  CG2      511.8660   44.1460 1055.5350 C.3     2  VAL2        0.0019
      8  N        513.4390   49.8500 1056.2380 N.3     9  LEU9       -0.1231
      9  CA       512.8600   50.1040 1054.9250 C.3     9  LEU9        0.1693
     10  C        511.3370   50.1250 1054.9860 C.2     9  LEU9        0.2592
     11  O        510.7300   49.4270 1055.8000 O.2     9  LEU9       -0.2718
     12  CB       513.3420   49.0560 1053.9220 C.3     9  LEU9        0.0284
     13  CG       514.8440   49.0690 1053.6310 C.3     9  LEU9        0.0019
     14  CD1      515.2230   47.9650 1052.6540 C.3     9  LEU9        0.0001
     15  CD2      515.2760   50.4290 1053.0990 C.3     9  LEU9        0.0001
     16  N        510.7260   50.9300 1054.1210 N.am   10  GLY10      -0.1957
     17  CA       509.2840   51.0900 1054.1180 C.3    10  GLY10       0.1869
     18  C        508.6500   50.9690 1052.7460 C.2    10  GLY10       0.2309
     19  O        509.0510   50.1350 1051.9330 O.2    10  GLY10      -0.2863
     20  N        509.7430   53.4680 1041.2180 N.3    15  VAL15      -0.1245
     21  CA       510.7880   52.7540 1040.4950 C.3    15  VAL15       0.1561
     22  C        511.3940   53.6320 1039.4000 C.2    15  VAL15       0.2260
     23  O        510.6860   54.1340 1038.5260 O.2    15  VAL15      -0.2867
     24  CB       510.2690   51.4240 1039.9020 C.3    15  VAL15       0.0252
     25  CG1      508.9330   51.6290 1039.2050 C.3    15  VAL15       0.0019
     26  CG2      511.2960   50.8210 1038.9550 C.3    15  VAL15       0.0019
     27  N        516.3030   50.3590 1038.9860 N.3    19  GLY19      -0.1210
     28  CA       516.2470   50.0760 1040.4070 C.3    19  GLY19       0.1956
     29  C        514.9570   50.4810 1041.0930 C.2    19  GLY19       0.2611
     30  O        514.1670   51.2620 1040.5640 O.2    19  GLY19      -0.2717
     31  N        514.7510   49.9430 1042.2890 N.am   20  LYS20      -0.1979
     32  CA       513.5620   50.2390 1043.0750 C.3    20  LYS20       0.1596
     33  C        513.9260   51.1720 1044.2310 C.2    20  LYS20       0.2287
     34  O        514.8660   50.9050 1044.9820 O.2    20  LYS20      -0.2864
     35  CB       512.9500   48.9350 1043.6000 C.3    20  LYS20       0.0298
     36  CG       511.4780   49.0140 1043.9910 C.3    20  LYS20       0.0038
     37  CD       510.8930   47.6190 1044.2480 C.3    20  LYS20       0.0206
     38  CE       510.5930   46.8360 1042.9600 C.3    20  LYS20       0.1093
     39  NZ       510.0280   45.4810 1043.2690 N.3    20  LYS20      -0.1314
     40  N        512.7790   52.9170 1047.6980 N.3    22  LYS22      -0.1245
     41  CA       511.8390   52.9580 1048.8130 C.3    22  LYS22       0.1561
     42  C        512.3880   53.7010 1050.0260 C.2    22  LYS22       0.2260
     43  O        513.5790   53.6390 1050.3230 O.2    22  LYS22      -0.2867
     44  CB       511.3710   51.5520 1049.2020 C.3    22  LYS22       0.0271
     45  CG       512.4790   50.5580 1049.4970 C.3    22  LYS22       0.0035
     46  CD       511.8850   49.2060 1049.8620 C.3    22  LYS22       0.0206
     47  CE       510.8670   48.7590 1048.8200 C.3    22  LYS22       0.1093
     48  NZ       510.1470   47.5220 1049.2210 N.3    22  LYS22      -0.1314
     49  N        517.4350   50.4340 1045.3070 N.3    37  ILE37      -0.1245
     50  CA       517.8930   49.0510 1045.3510 C.3    37  ILE37       0.1561
     51  C        518.2590   48.5290 1043.9660 C.2    37  ILE37       0.2260
     52  O        517.4410   48.5490 1043.0470 O.2    37  ILE37      -0.2867
     53  CB       516.8340   48.1280 1045.9740 C.3    37  ILE37       0.0252
     54  CG1      516.3430   48.7050 1047.3020 C.3    37  ILE37       0.0019
     55  CG2      517.3990   46.7310 1046.1690 C.3    37  ILE37       0.0019
     56  CD1      515.2670   47.8730 1047.9680 C.3    37  ILE37       0.0001
     57  N        519.7290   45.1920 1041.8870 N.3    39  ASN39      -0.1240
     58  CA       519.9770   43.7570 1041.9430 C.3    39  ASN39       0.1653
     59  C        521.2350   43.3750 1041.1680 C.2    39  ASN39       0.2266
     60  O        521.2940   43.5400 1039.9490 O.2    39  ASN39      -0.2867
     61  CB       518.7740   42.9900 1041.3950 C.3    39  ASN39       0.1155
     62  CG       518.5440   41.6740 1042.1130 C.2    39  ASN39       0.2627
     63  OD1      519.4560   41.1150 1042.7190 O.2    39  ASN39      -0.2716
     64  ND2      517.3170   41.1750 1042.0500 N.am   39  ASN39      -0.0877
     65  N        522.2670   42.3250 1046.5040 N.3    79  ASP79      -0.1239
     66  CA       521.7560   43.6450 1046.1440 C.3    79  ASP79       0.1674
     67  C        522.6760   44.7900 1046.5540 C.2    79  ASP79       0.2266
     68  O        523.5140   44.6490 1047.4450 O.2    79  ASP79      -0.2867
     69  CB       520.3660   43.8630 1046.7470 C.3    79  ASP79       0.1410
     70  CG       519.3330   42.8990 1046.1970 C.2    79  ASP79       0.3668
     71  OD1      518.7130   43.2180 1045.1600 O.co2  79  ASP79      -0.2456
     72  OD2      519.1380   41.8230 1046.8010 O.co2  79  ASP79      -0.2456
     73  N        522.5050   48.6110 1048.0300 N.3    81  PHE81      -0.1241
     74  CA       521.6460   49.5900 1048.6820 C.3    81  PHE81       0.1605
     75  C        522.2940   50.9670 1048.6800 C.2    81  PHE81       0.2264
     76  O        523.2270   51.2260 1049.4400 O.2    81  PHE81      -0.2867
     77  CB       521.3300   49.1570 1050.1140 C.3    81  PHE81       0.0534
     78  CG       520.4920   47.9150 1050.2000 C.ar   81  PHE81      -0.0203
     79  CD1      519.1090   47.9960 1050.1920 C.ar   81  PHE81      -0.0042
     80  CD2      521.0850   46.6660 1050.2870 C.ar   81  PHE81      -0.0042
     81  CE1      518.3330   46.8560 1050.2710 C.ar   81  PHE81      -0.0003
     82  CE2      520.3140   45.5210 1050.3660 C.ar   81  PHE81      -0.0003
     83  CZ       518.9360   45.6170 1050.3580 C.ar   81  PHE81      -0.0000
@<TRIPOS>BOND
     1    23    22    2
     2    26    24    1
     3    27    28    1
     4    25    24    1
     5    22    21    1
     6    24    21    1
     7    60    59    2
     8    28    29    1
     9    21    20    1
    10    30    29    2
    11    29    31   am
    12    59    58    1
    13    61    58    1
    14    61    62    1
    15    57    58    1
    16    64    62   am
    17    62    63    2
    18    31    32    1
    19    38    39    1
    20    38    37    1
    21    52    51    2
    22    32    35    1
    23    32    33    1
    24    35    36    1
    25    51    50    1
    26    36    37    1
    27    33    34    2
    28    71    70   ar
    29    49    50    1
    30    50    53    1
    31    53    55    1
    32    53    54    1
    33    66    65    1
    34    66    67    1
    35    66    69    1
    36    70    69    1
    37    70    72   ar
    38    67    68    2
    39    54    56    1
    40    40    41    1
    41    73    74    1
    42    75    74    1
    43    75    76    2
    44    74    77    1
    45    41    44    1
    46    41    42    1
    47    47    48    1
    48    47    46    1
    49    44    45    1
    50    45    46    1
    51    42    43    2
    52    77    78    1
    53    79    78   ar
    54    79    81   ar
    55    78    80   ar
    56    81    83   ar
    57    80    82   ar
    58    83    82   ar
    59    19    18    2
    60    14    13    1
    61    18    17    1
    62    15    13    1
    63    13    12    1
    64    12     9    1
    65    17    16    1
    66    16    10   am
    67     9    10    1
    68     9     8    1
    69     6     5    1
    70    10    11    2
    71     7     5    1
    72     5     2    1
    73     2     3    1
    74     2     1    1
    75     4     3    2
