@<TRIPOS>MOLECULE
tmp/4cffA01.pdb
 87 80 0 0 0
SMALL
GASTEIGER

@<TRIPOS>ATOM
      1  N        -25.1930   -9.9130  216.8030 N.3     4  VAL4       -0.1245
      2  CA       -23.9600  -10.0090  216.0370 C.3     4  VAL4        0.1561
      3  C        -22.9710   -8.8940  216.4120 C.2     4  VAL4        0.2260
      4  O        -23.3730   -7.7610  216.6990 O.2     4  VAL4       -0.2867
      5  CB       -24.2610  -10.0420  214.5220 C.3     4  VAL4        0.0252
      6  CG1      -24.0300   -8.6870  213.8820 C.3     4  VAL4        0.0019
      7  CG2      -23.4300  -11.1100  213.8490 C.3     4  VAL4        0.0019
      8  N        -23.9380   -4.9130  214.4650 N.3    11  LEU11      -0.1231
      9  CA       -24.5730   -4.6660  213.1750 C.3    11  LEU11       0.1693
     10  C        -26.0950   -4.7100  213.2730 C.2    11  LEU11       0.2593
     11  O        -26.6600   -5.5320  213.9950 O.2    11  LEU11      -0.2718
     12  CB       -24.0900   -5.6700  212.1240 C.3    11  LEU11       0.0284
     13  CG       -22.6020   -5.6900  211.7690 C.3    11  LEU11       0.0019
     14  CD1      -22.3190   -6.8100  210.7840 C.3    11  LEU11       0.0001
     15  CD2      -22.1530   -4.3550  211.1980 C.3    11  LEU11       0.0001
     16  N        -26.7490   -3.8180  212.5350 N.am   12  GLY12      -0.1942
     17  CA       -28.1980   -3.7410  212.5140 C.3    12  GLY12       0.2014
     18  C        -28.7590   -3.8530  211.1100 C.2    12  GLY12       0.2639
     19  O        -28.3520   -4.7200  210.3400 O.2    12  GLY12      -0.2714
     20  N        -29.6840   -2.9610  210.7730 N.am   13  ASP13      -0.1957
     21  CA       -30.3790   -3.0150  209.4900 C.3    13  ASP13       0.1840
     22  C        -29.5260   -2.5570  208.3140 C.2    13  ASP13       0.2622
     23  O        -28.6520   -1.7070  208.4580 O.2    13  ASP13      -0.2715
     24  CB       -31.6640   -2.1910  209.5480 C.3    13  ASP13       0.1450
     25  CG       -32.6980   -2.7960  210.4690 C.2    13  ASP13       0.3671
     26  OD1      -32.7000   -4.0350  210.6360 O.co2  13  ASP13      -0.2456
     27  OD2      -33.5120   -2.0340  211.0270 O.co2  13  ASP13      -0.2456
     28  N        -29.8010   -3.1280  207.1470 N.am   14  THR14      -0.1951
     29  CA       -29.0690   -2.8020  205.9290 C.3    14  THR14       0.1897
     30  C        -29.3870   -1.3980  205.4220 C.2    14  THR14       0.2313
     31  O        -30.5360   -1.0850  205.1110 O.2    14  THR14      -0.2863
     32  CB       -29.3690   -3.8150  204.8090 C.3    14  THR14       0.1794
     33  OG1      -28.9790   -5.1280  205.2290 O.3    14  THR14      -0.2208
     34  CG2      -28.6150   -3.4460  203.5450 C.3    14  THR14       0.0378
     35  N        -22.3220   -4.9990  200.4330 N.3    22  LYS22      -0.1245
     36  CA       -23.5160   -4.5100  201.1160 C.3    22  LYS22       0.1561
     37  C        -23.1950   -3.6890  202.3610 C.2    22  LYS22       0.2260
     38  O        -22.4070   -4.1070  203.2100 O.2    22  LYS22      -0.2867
     39  CB       -24.4470   -5.6640  201.4820 C.3    22  LYS22       0.0271
     40  CG       -25.7170   -5.2080  202.1790 C.3    22  LYS22       0.0035
     41  CD       -26.8170   -6.2520  202.0770 C.3    22  LYS22       0.0206
     42  CE       -26.5850   -7.4070  203.0350 C.3    22  LYS22       0.1093
     43  NZ       -27.5220   -8.5240  202.7570 N.3    22  LYS22      -0.1314
     44  N        -24.3550   -1.9240  205.8510 N.3    24  LYS24      -0.1245
     45  CA       -25.3440   -1.9030  206.9210 C.3    24  LYS24       0.1561
     46  C        -24.8300   -1.1670  208.1470 C.2    24  LYS24       0.2260
     47  O        -23.6340   -1.1610  208.4280 O.2    24  LYS24      -0.2867
     48  CB       -25.7920   -3.3180  207.2920 C.3    24  LYS24       0.0271
     49  CG       -24.6840   -4.2120  207.7910 C.3    24  LYS24       0.0035
     50  CD       -25.2140   -5.6050  208.0430 C.3    24  LYS24       0.0206
     51  CE       -25.9910   -6.1100  206.8370 C.3    24  LYS24       0.1093
     52  NZ       -26.5300   -7.4770  207.0650 N.3    24  LYS24      -0.1314
     53  N        -19.8420   -4.4100  203.5230 N.3    39  ILE39      -0.1245
     54  CA       -19.3410   -5.7750  203.6270 C.3    39  ILE39       0.1561
     55  C        -18.9430   -6.3520  202.2760 C.2    39  ILE39       0.2260
     56  O        -19.7510   -6.4110  201.3510 O.2    39  ILE39      -0.2867
     57  CB       -20.3670   -6.7190  204.2700 C.3    39  ILE39       0.0252
     58  CG1      -20.8860   -6.1420  205.5840 C.3    39  ILE39       0.0019
     59  CG2      -19.7480   -8.0880  204.4870 C.3    39  ILE39       0.0019
     60  CD1      -21.8380   -7.0610  206.3010 C.3    39  ILE39       0.0001
     61  N        -17.2300   -9.7440  200.2320 N.3    41  ASN41      -0.1240
     62  CA       -16.9820  -11.1760  200.3650 C.3    41  ASN41       0.1653
     63  C        -15.7430  -11.6250  199.5980 C.2    41  ASN41       0.2266
     64  O        -15.6830  -11.5080  198.3720 O.2    41  ASN41      -0.2867
     65  CB       -18.1970  -11.9870  199.9190 C.3    41  ASN41       0.1155
     66  CG       -18.0210  -13.4730  200.1630 C.2    41  ASN41       0.2627
     67  OD1      -17.4250  -14.1810  199.3500 O.2    41  ASN41      -0.2716
     68  ND2      -18.5400  -13.9550  201.2860 N.am   41  ASN41      -0.0877
     69  N        -14.6840  -12.6160  204.9560 N.3    81  ASP81      -0.1239
     70  CA       -15.1960  -11.3130  204.5330 C.3    81  ASP81       0.1674
     71  C        -14.4050  -10.1130  205.0480 C.2    81  ASP81       0.2266
     72  O        -13.6700  -10.2030  206.0320 O.2    81  ASP81      -0.2867
     73  CB       -16.6630  -11.1620  204.9370 C.3    81  ASP81       0.1410
     74  CG       -17.5500  -12.2220  204.3200 C.2    81  ASP81       0.3668
     75  OD1      -17.6840  -13.3060  204.9240 O.co2  81  ASP81      -0.2456
     76  OD2      -18.1110  -11.9740  203.2330 O.co2  81  ASP81      -0.2456
     77  N        -14.8090   -6.2670  206.4610 N.3    83  PHE83      -0.1241
     78  CA       -15.7450   -5.3160  207.0490 C.3    83  PHE83       0.1605
     79  C        -15.1650   -3.9090  207.0380 C.2    83  PHE83       0.2264
     80  O        -14.2640   -3.5980  207.8120 O.2    83  PHE83      -0.2867
     81  CB       -16.0830   -5.7190  208.4840 C.3    83  PHE83       0.0534
     82  CG       -16.8590   -7.0010  208.5890 C.ar   83  PHE83      -0.0203
     83  CD1      -16.2150   -8.2240  208.5330 C.ar   83  PHE83      -0.0042
     84  CD2      -18.2320   -6.9830  208.7530 C.ar   83  PHE83      -0.0042
     85  CE1      -16.9270   -9.4070  208.6310 C.ar   83  PHE83      -0.0003
     86  CE2      -18.9480   -8.1600  208.8540 C.ar   83  PHE83      -0.0003
     87  CZ       -18.2940   -9.3730  208.7920 C.ar   83  PHE83      -0.0000
@<TRIPOS>BOND
     1    64    63    2
     2    67    66    2
     3    63    62    1
     4    65    66    1
     5    65    62    1
     6    66    68   am
     7    61    62    1
     8    35    36    1
     9    36    39    1
    10    36    37    1
    11    56    55    2
    12    39    40    1
    13    41    40    1
    14    41    42    1
    15    55    54    1
    16    37    38    2
    17    43    42    1
    18    76    74   ar
    19    53    54    1
    20    34    32    1
    21    54    57    1
    22    57    59    1
    23    57    58    1
    24    74    75   ar
    25    74    73    1
    26    70    73    1
    27    70    69    1
    28    70    71    1
    29    32    33    1
    30    32    29    1
    31    71    72    2
    32    31    30    2
    33    30    29    1
    34    58    60    1
    35    44    45    1
    36    29    28    1
    37    77    78    1
    38    51    52    1
    39    51    50    1
    40    45    48    1
    41    45    46    1
    42    79    78    1
    43    79    80    2
    44    78    81    1
    45    28    22   am
    46    48    49    1
    47    49    50    1
    48    46    47    2
    49    22    23    2
    50    22    21    1
    51    81    82    1
    52    83    82   ar
    53    83    85   ar
    54    82    84   ar
    55    85    87   ar
    56    84    86   ar
    57    87    86   ar
    58    21    24    1
    59    21    20    1
    60    24    25    1
    61    19    18    2
    62    25    26   ar
    63    25    27   ar
    64    20    18   am
    65    14    13    1
    66    18    17    1
    67    15    13    1
    68    13    12    1
    69    12     9    1
    70    17    16    1
    71    16    10   am
    72     9    10    1
    73     9     8    1
    74    10    11    2
    75     7     5    1
    76     6     5    1
    77     5     2    1
    78     2     3    1
    79     2     1    1
    80     3     4    2
