@<TRIPOS>MOLECULE
tmp/4cfkA00.pdb
 133 131 0 0 0
SMALL
GASTEIGER

@<TRIPOS>ATOM
      1  N         34.6690   43.2580    1.9870 N.3    40  TRP40      -0.1228
      2  CA        34.9540   44.6080    2.4990 C.3    40  TRP40       0.1722
      3  C         33.7560   45.5380    2.6450 C.2    40  TRP40       0.2437
      4  O         33.6860   46.2620    3.6360 O.2    40  TRP40      -0.2733
      5  CB        36.1150   45.2840    1.7370 C.3    40  TRP40       0.0563
      6  CG        35.8260   45.5710    0.2870 C.ar   40  TRP40       0.0003
      7  CD1       36.1320   44.7800   -0.8160 C.ar   40  TRP40       0.0946
      8  CD2       35.1250   46.7370   -0.2650 C.ar   40  TRP40       0.0152
      9  NE1       35.6810   45.3590   -1.9740 N.ar   40  TRP40      -0.2442
     10  CE2       35.0660   46.5310   -1.7160 C.ar   40  TRP40       0.0810
     11  CE3       34.5520   47.8860    0.2770 C.ar   40  TRP40       0.0012
     12  CZ2       34.4700   47.4560   -2.5660 C.ar   40  TRP40       0.0191
     13  CZ3       33.9510   48.8040   -0.5880 C.ar   40  TRP40       0.0001
     14  CH2       33.9200   48.5960   -1.9750 C.ar   40  TRP40       0.0015
     15  N         32.7930   45.5390    1.6920 N.am   41  PRO41      -0.2718
     16  CA        31.6550   46.4480    1.9040 C.3    41  PRO41       0.1535
     17  C         30.7810   46.0610    3.1010 C.2    41  PRO41       0.2598
     18  O         30.0070   46.8900    3.5960 O.2    41  PRO41      -0.2715
     19  CB        30.8410   46.3110    0.6080 C.3    41  PRO41       0.0310
     20  CG        31.7730   45.6930   -0.3710 C.3    41  PRO41       0.0237
     21  CD        32.6090   44.7670    0.4570 C.3    41  PRO41       0.0939
     22  N         30.9190   44.8210    3.5610 N.am   42  PHE42      -0.1974
     23  CA        30.0720   44.2840    4.6230 C.3    42  PHE42       0.1639
     24  C         30.7850   44.1890    5.9590 C.2    42  PHE42       0.2290
     25  O         30.2320   43.6440    6.9060 O.2    42  PHE42      -0.2864
     26  CB        29.5450   42.9150    4.1920 C.3    42  PHE42       0.0560
     27  CG        28.8670   42.9470    2.8670 C.ar   42  PHE42      -0.0200
     28  CD1       27.5480   43.3470    2.7730 C.ar   42  PHE42      -0.0042
     29  CD2       29.5550   42.6340    1.7030 C.ar   42  PHE42      -0.0042
     30  CE1       26.9160   43.4120    1.5490 C.ar   42  PHE42      -0.0003
     31  CE2       28.9220   42.6880    0.4690 C.ar   42  PHE42      -0.0003
     32  CZ        27.6020   43.0810    0.3930 C.ar   42  PHE42      -0.0000
     33  N         31.4820   46.6600    7.9150 N.3    44  GLN44      -0.1231
     34  CA        31.0140   47.7420    8.7930 C.3    44  GLN44       0.1683
     35  C         29.6460   48.2290    8.3070 C.2    44  GLN44       0.2434
     36  O         29.2630   47.9230    7.1890 O.2    44  GLN44      -0.2733
     37  CB        32.0140   48.9070    8.8170 C.3    44  GLN44       0.0380
     38  CG        32.2900   49.5380    7.4610 C.3    44  GLN44       0.0905
     39  CD        33.1590   48.6600    6.5910 C.2    44  GLN44       0.2608
     40  OE1       34.1940   48.1720    7.0430 O.2    44  GLN44      -0.2717
     41  NE2       32.7440   48.4410    5.3490 N.am   44  GLN44      -0.0878
     42  N         28.9010   48.9720    9.1500 N.am   45  PRO45      -0.2718
     43  CA        27.5950   49.4900    8.7160 C.3    45  PRO45       0.1535
     44  C         27.6600   50.3170    7.4260 C.2    45  PRO45       0.2598
     45  O         28.6800   50.9480    7.1370 O.2    45  PRO45      -0.2715
     46  CB        27.1760   50.3960    9.8790 C.3    45  PRO45       0.0310
     47  CG        27.8710   49.8300   11.0690 C.3    45  PRO45       0.0237
     48  CD        29.1700   49.2700   10.5690 C.3    45  PRO45       0.0939
     49  N         26.5760   50.3040    6.6590 N.am   46  VAL46      -0.1964
     50  CA        26.4670   51.1570    5.4730 C.3    46  VAL46       0.1727
     51  C         26.5040   52.6340    5.8920 C.2    46  VAL46       0.2616
     52  O         25.6920   53.0760    6.6990 O.2    46  VAL46      -0.2715
     53  CB        25.1710   50.8670    4.6750 C.3    46  VAL46       0.0290
     54  CG1       24.9870   51.9110    3.5760 C.3    46  VAL46       0.0023
     55  CG2       25.2060   49.4650    4.0860 C.3    46  VAL46       0.0023
     56  N         27.4580   53.3790    5.3410 N.am   47  ASP47      -0.1971
     57  CA        27.5650   54.8150    5.5870 C.3    47  ASP47       0.1709
     58  C         26.7670   55.5250    4.4980 C.2    47  ASP47       0.2293
     59  O         27.3090   55.9080    3.4600 O.2    47  ASP47      -0.2864
     60  CB        29.0370   55.2590    5.6030 C.3    47  ASP47       0.1436
     61  CG        29.2150   56.6960    6.0670 C.2    47  ASP47       0.3671
     62  OD1       28.2400   57.4720    6.0300 O.co2  47  ASP47      -0.2456
     63  OD2       30.3460   57.0550    6.4620 O.co2  47  ASP47      -0.2456
     64  N         28.0740   57.5660    1.1340 N.3    51  LEU51      -0.1245
     65  CA        27.7020   56.9660   -0.1450 C.3    51  LEU51       0.1561
     66  C         26.5960   57.7420   -0.8760 C.2    51  LEU51       0.2260
     67  O         26.2450   57.3900   -1.9950 O.2    51  LEU51      -0.2867
     68  CB        27.2720   55.5090    0.0590 C.3    51  LEU51       0.0270
     69  CG        28.3870   54.5540    0.4930 C.3    51  LEU51       0.0019
     70  CD1       27.8150   53.2820    1.1030 C.3    51  LEU51       0.0001
     71  CD2       29.2920   54.2310   -0.6860 C.3    51  LEU51       0.0001
     72  N         23.2970   57.9850   -0.0890 N.3    53  LEU53      -0.1245
     73  CA        22.0930   57.1610   -0.1740 C.3    53  LEU53       0.1561
     74  C         21.1010   57.6510    0.8810 C.2    53  LEU53       0.2260
     75  O         20.7780   56.9260    1.8130 O.2    53  LEU53      -0.2867
     76  CB        22.4350   55.6800    0.0670 C.3    53  LEU53       0.0270
     77  CG        23.4340   54.9940   -0.8710 C.3    53  LEU53       0.0019
     78  CD1       23.6830   53.5480   -0.4480 C.3    53  LEU53       0.0001
     79  CD2       22.9550   55.0520   -2.3100 C.3    53  LEU53       0.0001
     80  N         18.4260   55.2340    2.1020 N.3    56  TYR56      -0.1241
     81  CA        18.7980   53.8780    2.5320 C.3    56  TYR56       0.1605
     82  C         18.0900   53.4640    3.8130 C.2    56  TYR56       0.2264
     83  O         17.4870   52.3940    3.8780 O.2    56  TYR56      -0.2867
     84  CB        20.3140   53.7460    2.7170 C.3    56  TYR56       0.0534
     85  CG        20.7170   52.3370    3.0860 C.ar   56  TYR56      -0.0201
     86  CD1       20.9120   51.3730    2.1050 C.ar   56  TYR56      -0.0009
     87  CD2       20.8630   51.9600    4.4180 C.ar   56  TYR56      -0.0009
     88  CE1       21.2600   50.0750    2.4350 C.ar   56  TYR56       0.0417
     89  CE2       21.2140   50.6630    4.7620 C.ar   56  TYR56       0.0417
     90  CZ        21.4100   49.7250    3.7620 C.ar   56  TYR56       0.1957
     91  OH        21.7510   48.4400    4.0900 O.3    56  TYR56      -0.2866
     92  N         20.5560   43.8740    1.2980 N.3    95  CYS95      -0.1235
     93  CA        21.2170   44.1620    0.0400 C.3    95  CYS95       0.1677
     94  C         20.3270   43.8220   -1.1600 C.2    95  CYS95       0.2270
     95  O         20.2040   44.6140   -2.0940 O.2    95  CYS95      -0.2867
     96  CB        22.5290   43.3870   -0.0280 C.3    95  CYS95       0.0956
     97  SG        23.5730   43.8950   -1.3900 S.3    95  CYS95      -0.0801
     98  N         17.2990   46.4460   -1.2090 N.3    98  TYR98      -0.1227
     99  CA        17.6080   47.8280   -1.5710 C.3    98  TYR98       0.1736
    100  C         18.1020   47.9910   -3.0120 C.2    98  TYR98       0.2595
    101  O         17.9790   49.0740   -3.5910 O.2    98  TYR98      -0.2718
    102  CB        18.6480   48.4220   -0.6120 C.3    98  TYR98       0.0548
    103  CG        18.9070   49.8890   -0.8760 C.ar   98  TYR98      -0.0200
    104  CD1       17.9920   50.8570   -0.4830 C.ar   98  TYR98      -0.0009
    105  CD2       20.0510   50.3030   -1.5460 C.ar   98  TYR98      -0.0009
    106  CE1       18.2170   52.1970   -0.7360 C.ar   98  TYR98       0.0417
    107  CE2       20.2860   51.6400   -1.8060 C.ar   98  TYR98       0.0417
    108  CZ        19.3660   52.5830   -1.3950 C.ar   98  TYR98       0.1957
    109  OH        19.5850   53.9130   -1.6510 O.3    98  TYR98      -0.2866
    110  N         18.6680   46.9360   -3.5880 N.am   99  ASN99      -0.1974
    111  CA        19.3190   47.0460   -4.8940 C.3    99  ASN99       0.1688
    112  C         18.6160   46.2130   -5.9680 C.2    99  ASN99       0.2292
    113  O         17.7290   45.4100   -5.6780 O.2    99  ASN99      -0.2864
    114  CB        20.7890   46.6400   -4.7750 C.3    99  ASN99       0.1181
    115  CG        21.5450   47.4740   -3.7510 C.2    99  ASN99       0.2629
    116  OD1       21.9100   48.6210   -4.0160 O.2    99  ASN99      -0.2716
    117  ND2       21.7890   46.8950   -2.5760 N.am   99  ASN99      -0.0877
    118  N         23.2070   43.8980   -9.7600 N.3   103  ASP103     -0.1239
    119  CA        24.1040   44.9930   -9.3750 C.3   103  ASP103      0.1674
    120  C         25.3830   44.4480   -8.7390 C.2   103  ASP103      0.2266
    121  O         25.3770   43.3730   -8.1380 O.2   103  ASP103     -0.2867
    122  CB        23.4290   45.9340   -8.3670 C.3   103  ASP103      0.1410
    123  CG        22.4070   46.8650   -9.0010 C.2   103  ASP103      0.3668
    124  OD1       22.2650   46.8910  -10.2430 O.co2 103  ASP103     -0.2456
    125  OD2       21.7390   47.5900   -8.2350 O.co2 103  ASP103     -0.2456
    126  N         26.9800   45.2320   -6.0210 N.3   105  ILE105     -0.1245
    127  CA        26.8530   44.9750   -4.5830 C.3   105  ILE105      0.1561
    128  C         26.0290   43.7110   -4.3020 C.2   105  ILE105      0.2260
    129  O         26.3200   42.9610   -3.3630 O.2   105  ILE105     -0.2867
    130  CB        26.2780   46.2030   -3.8220 C.3   105  ILE105      0.0252
    131  CG1       26.5520   46.0800   -2.3190 C.3   105  ILE105      0.0019
    132  CG2       24.7880   46.3950   -4.0850 C.3   105  ILE105      0.0019
    133  CD1       28.0210   46.1260   -1.9540 C.3   105  ILE105      0.0001
@<TRIPOS>BOND
     1   124   123   ar
     2   118   119    1
     3   119   120    1
     4   119   122    1
     5   123   122    1
     6   123   125   ar
     7   120   121    2
     8   126   127    1
     9   112   113    2
    10   112   111    1
    11   111   114    1
    12   111   110    1
    13   114   115    1
    14   127   128    1
    15   127   130    1
    16   128   129    2
    17   132   130    1
    18   116   115    2
    19   130   131    1
    20   115   117   am
    21   101   100    2
    22   110   100   am
    23   100    99    1
    24    12    14   ar
    25    12    10   ar
    26   131   133    1
    27    79    77    1
    28    95    94    2
    29    67    66    2
    30    14    13   ar
    31     9    10   ar
    32     9     7   ar
    33   107   105   ar
    34   107   108   ar
    35    10     8   ar
    36   109   108    1
    37    99    98    1
    38    99   102    1
    39   105   103   ar
    40   108   106   ar
    41    97    96    1
    42    94    93    1
    43   103   102    1
    44   103   104   ar
    45    66    65    1
    46    77    78    1
    47    77    76    1
    48     7     6   ar
    49   106   104   ar
    50    71    69    1
    51    13    11   ar
    52    20    21    1
    53    20    19    1
    54     8    11   ar
    55     8     6   ar
    56    73    72    1
    57    73    76    1
    58    73    74    1
    59    65    68    1
    60    65    64    1
    61    96    93    1
    62    93    92    1
    63    68    69    1
    64     6     5    1
    65    32    31   ar
    66    32    30   ar
    67    21    15    1
    68    31    29   ar
    69    69    70    1
    70    19    16    1
    71    74    75    2
    72    30    28   ar
    73    15    16    1
    74    15     3   am
    75    29    27   ar
    76     5     2    1
    77    16    17    1
    78     1     2    1
    79    80    81    1
    80    86    88   ar
    81    86    85   ar
    82    88    90   ar
    83     2     3    1
    84    81    84    1
    85    81    82    1
    86     3     4    2
    87    84    85    1
    88    28    27   ar
    89    27    26    1
    90    85    87   ar
    91    17    22   am
    92    17    18    2
    93    59    58    2
    94    22    23    1
    95    54    53    1
    96    90    91    1
    97    90    89   ar
    98    82    83    2
    99    55    53    1
   100    26    23    1
   101    87    89   ar
   102    58    57    1
   103    23    24    1
   104    53    50    1
   105    56    57    1
   106    56    51   am
   107    41    39   am
   108    50    51    1
   109    50    49    1
   110    57    60    1
   111    60    61    1
   112    51    52    2
   113    24    25    2
   114    62    61   ar
   115    61    63   ar
   116    39    40    2
   117    39    38    1
   118    49    44   am
   119    45    44    2
   120    36    35    2
   121    44    43    1
   122    38    37    1
   123    33    34    1
   124    35    34    1
   125    35    42   am
   126    43    42    1
   127    43    46    1
   128    34    37    1
   129    42    48    1
   130    46    47    1
   131    48    47    1
