@<TRIPOS>MOLECULE
tmp/4cfnA00.pdb
 157 151 0 0 0
SMALL
GASTEIGER

@<TRIPOS>ATOM
      1  N          1.6720   47.3860   44.3340 N.3    13  ILE13      -0.1231
      2  CA         1.4530   46.1910   45.1520 C.3    13  ILE13       0.1692
      3  C          0.2170   46.3070   46.0750 C.2    13  ILE13       0.2593
      4  O         -0.4950   45.3120   46.2860 O.2    13  ILE13      -0.2718
      5  CB         2.6340   45.9170   46.1280 C.3    13  ILE13       0.0266
      6  CG1        3.8090   45.3480   45.3760 C.3    13  ILE13       0.0019
      7  CG2        2.2660   44.8620   47.1920 C.3    13  ILE13       0.0020
      8  CD1        5.0630   45.2340   46.2090 C.3    13  ILE13       0.0001
      9  N         -0.0300   47.4930   46.6640 N.am   14  GLY14      -0.1942
     10  CA        -1.0750   47.7250   47.6830 C.3    14  GLY14       0.2014
     11  C         -0.5430   48.6620   48.7590 C.2    14  GLY14       0.2639
     12  O          0.6660   48.9700   48.7830 O.2    14  GLY14      -0.2714
     13  N         -1.4120   49.1060   49.6590 N.am   15  GLU15      -0.1963
     14  CA        -1.0630   50.0860   50.7420 C.3    15  GLU15       0.1733
     15  C         -1.0050   49.4790   52.1010 C.2    15  GLU15       0.2616
     16  O         -1.8010   48.5890   52.3840 O.2    15  GLU15      -0.2715
     17  CB        -2.1120   51.2190   50.7990 C.3    15  GLU15       0.0429
     18  CG        -2.5870   51.6180   49.4140 C.3    15  GLU15       0.1163
     19  CD        -3.4830   52.8320   49.4190 C.2    15  GLU15       0.3649
     20  OE1       -4.3110   52.8850   50.3660 O.co2  15  GLU15      -0.2457
     21  OE2       -3.3580   53.6940   48.4870 O.co2  15  GLU15      -0.2457
     22  N         -0.0940   49.9830   52.9370 N.am   16  GLY16      -0.1955
     23  CA         0.1520   49.4160   54.2900 C.3    16  GLY16       0.1869
     24  C         -0.2040   50.3500   55.4650 C.2    16  GLY16       0.2309
     25  O         -1.2490   50.9840   55.4080 O.2    16  GLY16      -0.2863
     26  N          2.8550   51.0480   48.4650 N.3    21  VAL21      -0.1301
     27  CA         3.9840   50.1920   48.0590 C.3    21  VAL21       0.1246
     28  C          3.8800   49.7320   46.5680 C.3    21  VAL21       0.2009
     29  O          2.8360   49.1080   46.1320 O.3    21  VAL21      -0.2188
     30  CB         4.0710   48.9900   49.0120 C.3    21  VAL21       0.0202
     31  CG1        5.3400   48.1890   48.7630 C.3    21  VAL21       0.0016
     32  CG2        4.0960   49.4500   50.4610 C.3    21  VAL21       0.0016
     33  N         11.1300   47.5650   46.0710 N.3    34  ALA34      -0.1245
     34  CA         9.7940   47.9690   46.5160 C.3    34  ALA34       0.1562
     35  C          9.8990   49.4390   46.8670 C.2    34  ALA34       0.2260
     36  O         10.8270   49.8390   47.5990 O.2    34  ALA34      -0.2867
     37  CB         9.3780   47.1450   47.7140 C.3    34  ALA34       0.0290
     38  N          8.0410   52.7650   48.5780 N.3    36  LYS36      -0.1245
     39  CA         6.9270   53.2380   49.3850 C.3    36  LYS36       0.1561
     40  C          6.8700   54.7510   49.1360 C.2    36  LYS36       0.2260
     41  O          7.8180   55.4870   49.3980 O.2    36  LYS36      -0.2867
     42  CB         7.2730   52.8830   50.8280 C.3    36  LYS36       0.0271
     43  CG         6.1950   52.8350   51.8910 C.3    36  LYS36       0.0035
     44  CD         6.7140   51.8600   52.9700 C.3    36  LYS36       0.0206
     45  CE         6.0010   51.9510   54.2810 C.3    36  LYS36       0.1093
     46  NZ         6.3620   50.7570   55.1290 N.3    36  LYS36      -0.1314
     47  N         14.1620   43.7470   56.4760 N.3    64  VAL64      -0.1245
     48  CA        14.0250   44.3300   55.1660 C.3    64  VAL64       0.1561
     49  C         14.9930   45.5250   55.0350 C.2    64  VAL64       0.2260
     50  O         15.0770   46.3980   55.9190 O.2    64  VAL64      -0.2867
     51  CB        12.5770   44.7830   54.8500 C.3    64  VAL64       0.0252
     52  CG1       12.1440   45.9970   55.7060 C.3    64  VAL64       0.0019
     53  CG2       12.4410   45.1060   53.3670 C.3    64  VAL64       0.0019
     54  N         13.2190   50.0240   49.0910 N.3    80  PHE80      -0.1227
     55  CA        13.5050   48.8100   49.8080 C.3    80  PHE80       0.1736
     56  C         13.8630   47.6860   48.8720 C.2    80  PHE80       0.2595
     57  O         13.4160   47.6820   47.7270 O.2    80  PHE80      -0.2718
     58  CB        12.1990   48.3730   50.4650 C.3    80  PHE80       0.0547
     59  CG        11.7500   49.2210   51.6290 C.ar   80  PHE80      -0.0202
     60  CD1       12.3100   49.0180   52.8870 C.ar   80  PHE80      -0.0042
     61  CD2       10.7320   50.1270   51.4970 C.ar   80  PHE80      -0.0042
     62  CE1       11.8780   49.7430   53.9680 C.ar   80  PHE80      -0.0003
     63  CE2       10.3110   50.8840   52.5660 C.ar   80  PHE80      -0.0003
     64  CZ        10.8750   50.6740   53.8120 C.ar   80  PHE80      -0.0000
     65  N         14.6180   46.7180   49.3470 N.am   81  GLU81      -0.1965
     66  CA        14.8080   45.4590   48.6310 C.3    81  GLU81       0.1733
     67  C         13.4240   44.8710   48.3820 C.2    81  GLU81       0.2616
     68  O         12.5300   45.0200   49.2180 O.2    81  GLU81      -0.2715
     69  CB        15.6670   44.4660   49.4000 C.3    81  GLU81       0.0429
     70  CG        15.0450   43.9730   50.6830 C.3    81  GLU81       0.1163
     71  CD        15.8220   42.8130   51.2870 C.2    81  GLU81       0.3649
     72  OE1       16.0300   41.8250   50.5940 O.co2  81  GLU81      -0.2457
     73  OE2       16.2060   42.8790   52.4590 O.co2  81  GLU81      -0.2457
     74  N         13.2560   44.2090   47.2430 N.am   82  PHE82      -0.1960
     75  CA        11.9450   43.6200   46.8820 C.3    82  PHE82       0.1771
     76  C         11.8120   42.2010   47.3990 C.2    82  PHE82       0.2619
     77  O         12.6730   41.3870   47.1880 O.2    82  PHE82      -0.2715
     78  CB        11.7430   43.5470   45.3980 C.3    82  PHE82       0.0574
     79  CG        10.4390   42.9030   45.0040 C.ar   82  PHE82      -0.0200
     80  CD1        9.2530   43.5920   45.1550 C.ar   82  PHE82      -0.0042
     81  CD2       10.4010   41.6000   44.4980 C.ar   82  PHE82      -0.0042
     82  CE1        8.0580   43.0090   44.7880 C.ar   82  PHE82      -0.0003
     83  CE2        9.2000   41.0250   44.1210 C.ar   82  PHE82      -0.0003
     84  CZ         8.0240   41.7290   44.2850 C.ar   82  PHE82      -0.0000
     85  N         10.7820   41.9490   48.1600 N.am   83  LEU83      -0.1963
     86  CA        10.5200   40.5920   48.6020 C.3    83  LEU83       0.1728
     87  C          9.1500   40.1970   48.0750 C.2    83  LEU83       0.2616
     88  O          8.2250   41.0340   48.0130 O.2    83  LEU83      -0.2715
     89  CB        10.6510   40.4990   50.0800 C.3    83  LEU83       0.0311
     90  CG        12.0980   40.4400   50.5410 C.3    83  LEU83       0.0022
     91  CD1       12.3300   41.4800   51.5960 C.3    83  LEU83       0.0001
     92  CD2       12.3060   39.1090   51.2060 C.3    83  LEU83       0.0001
     93  N          9.0740   38.9410   47.6530 N.am   84  HIS84      -0.1959
     94  CA         8.0390   38.4200   46.7600 C.3    84  HIS84       0.1787
     95  C          6.6580   38.3100   47.3550 C.2    84  HIS84       0.2620
     96  O          5.6830   38.7040   46.7250 O.2    84  HIS84      -0.2715
     97  CB         8.5200   37.1090   46.1380 C.3    84  HIS84       0.0785
     98  CG         9.8960   37.2260   45.5440 C.ar   84  HIS84       0.0821
     99  ND1       10.1240   37.3350   44.1800 N.ar   84  HIS84      -0.2267
    100  CD2       11.1140   37.3180   46.1300 C.ar   84  HIS84       0.1154
    101  CE1       11.4210   37.4400   43.9530 C.ar   84  HIS84       0.1986
    102  NE2       12.0430   37.4270   45.1210 N.ar   84  HIS84      -0.2212
    103  N          6.5480   37.7980   48.5620 N.am   85  GLN85      -0.1963
    104  CA         5.2660   37.8580   49.2080 C.3    85  GLN85       0.1733
    105  C          5.3640   37.8950   50.7190 C.2    85  GLN85       0.2616
    106  O          6.4270   37.8270   51.3150 O.2    85  GLN85      -0.2715
    107  CB         4.3410   36.7560   48.6940 C.3    85  GLN85       0.0408
    108  CG         4.5240   35.3700   49.2370 C.3    85  GLN85       0.0908
    109  CD         3.6630   34.3470   48.5140 C.2    85  GLN85       0.2608
    110  OE1        2.8590   34.6670   47.6140 O.2    85  GLN85      -0.2717
    111  NE2        3.8690   33.0930   48.8560 N.am   85  GLN85      -0.0878
    112  N          4.2320   38.1010   51.3480 N.am   86  ASP86      -0.1971
    113  CA         4.1730   38.1190   52.7940 C.3    86  ASP86       0.1709
    114  C          3.7140   36.7530   53.3260 C.2    86  ASP86       0.2293
    115  O          3.1820   35.9600   52.5800 O.2    86  ASP86      -0.2864
    116  CB         3.2850   39.2600   53.2690 C.3    86  ASP86       0.1436
    117  CG         1.8120   39.0430   52.9670 C.2    86  ASP86       0.3671
    118  OD1        1.2110   38.0620   53.4400 O.co2  86  ASP86      -0.2456
    119  OD2        1.2340   39.8920   52.2720 O.co2  86  ASP86      -0.2456
    120  N          1.3470   39.3440   57.8920 N.3   131  GLN131     -0.1231
    121  CA         1.3370   40.3420   56.8310 C.3   131  GLN131      0.1698
    122  C          2.5880   41.2320   56.7590 C.2   131  GLN131      0.2592
    123  O          2.8900   41.7640   55.7070 O.2   131  GLN131     -0.2718
    124  CB         0.1120   41.2300   56.9260 C.3   131  GLN131      0.0381
    125  CG        -1.2160   40.4610   56.9870 C.3   131  GLN131      0.0905
    126  CD        -1.7340   40.1570   58.4360 C.2   131  GLN131      0.2608
    127  OE1       -1.1350   39.4470   59.2250 O.2   131  GLN131     -0.2717
    128  NE2       -2.9130   40.7090   58.7300 N.am  131  GLN131     -0.0878
    129  N          3.2960   41.3800   57.8750 N.am  132  ASN132     -0.1974
    130  CA         4.5000   42.2210   57.9570 C.3   132  ASN132      0.1688
    131  C          5.7990   41.3750   57.9190 C.2   132  ASN132      0.2292
    132  O          6.8760   41.8820   58.1500 O.2   132  ASN132     -0.2864
    133  CB         4.4810   43.1250   59.2170 C.3   132  ASN132      0.1181
    134  CG         3.3990   44.2370   59.1850 C.2   132  ASN132      0.2629
    135  OD1        2.9550   44.6450   58.1380 O.2   132  ASN132     -0.2716
    136  ND2        3.0140   44.7630   60.3650 N.am  132  ASN132     -0.0877
    137  N          8.0710   39.1600   55.3900 N.3   134  LEU134     -0.1245
    138  CA         8.1790   39.0220   53.9560 C.3   134  LEU134      0.1561
    139  C          9.1830   37.9300   53.5680 C.2   134  LEU134      0.2260
    140  O         10.1790   37.7650   54.2260 O.2   134  LEU134     -0.2867
    141  CB         8.5800   40.3270   53.3170 C.3   134  LEU134      0.0270
    142  CG         7.8000   41.5830   53.6480 C.3   134  LEU134      0.0019
    143  CD1        8.4660   42.7590   52.9270 C.3   134  LEU134      0.0001
    144  CD2        6.3170   41.4730   53.2620 C.3   134  LEU134      0.0001
    145  N          9.4340   43.3520   58.4570 N.3   144  ALA144     -0.1231
    146  CA         9.2020   44.5570   57.6640 C.3   144  ALA144      0.1694
    147  C          8.1450   45.4290   58.3160 C.2   144  ALA144      0.2592
    148  O          7.6010   45.0570   59.2960 O.2   144  ALA144     -0.2718
    149  CB         8.7700   44.1820   56.2520 C.3   144  ALA144      0.0304
    150  N          7.8980   46.5910   57.7270 N.am  145  ASP145     -0.1974
    151  CA         7.0160   47.6240   58.2330 C.3   145  ASP145      0.1709
    152  C          7.3260   48.0230   59.6780 C.2   145  ASP145      0.2293
    153  O          6.6790   47.5930   60.6100 O.2   145  ASP145     -0.2864
    154  CB         5.5610   47.2480   58.0930 C.3   145  ASP145      0.1436
    155  CG         4.6340   48.4860   58.1810 C.2   145  ASP145      0.3671
    156  OD1        5.1170   49.6590   58.4050 O.co2 145  ASP145     -0.2456
    157  OD2        3.4070   48.3200   57.9650 O.co2 145  ASP145     -0.2456
@<TRIPOS>BOND
     1   101    99   ar
     2   101   102   ar
     3    83    84   ar
     4    83    81   ar
     5    99    98   ar
     6    84    82   ar
     7     1     2    1
     8    81    79   ar
     9    82    80   ar
    10    79    80   ar
    11    79    78    1
    12   102   100   ar
    13     2     3    1
    14     2     5    1
    15     6     5    1
    16     6     8    1
    17    78    75    1
    18    98   100   ar
    19    98    97    1
    20    33    34    1
    21     3     4    2
    22     3     9   am
    23     5     7    1
    24    29    28    1
    25    97    94    1
    26    34    35    1
    27    34    37    1
    28    28    27    1
    29     9    10    1
    30    96    95    2
    31    94    95    1
    32    94    93    1
    33    35    36    2
    34    75    74    1
    35    75    76    1
    36    77    76    2
    37    74    67   am
    38    95   103   am
    39    76    85   am
    40   110   109    2
    41    93    87   am
    42    10    11    1
    43    57    56    2
    44    88    87    2
    45    27    26    1
    46    27    30    1
    47    87    86    1
    48    85    86    1
    49    67    66    1
    50    67    68    2
    51    21    19   ar
    52   109   111   am
    53   109   108    1
    54   103   104    1
    55    38    39    1
    56    86    89    1
    57    66    65    1
    58    66    69    1
    59   107   104    1
    60   107   108    1
    61    11    12    2
    62    11    13   am
    63    31    30    1
    64    56    65   am
    65    56    55    1
    66    30    32    1
    67    54    55    1
    68    40    39    1
    69    40    41    2
    70   104   105    1
    71    39    42    1
    72    69    70    1
    73    18    19    1
    74    18    17    1
    75    19    20   ar
    76    13    14    1
    77    55    58    1
    78    89    90    1
    79    58    59    1
    80    90    92    1
    81    90    91    1
    82    72    71   ar
    83    70    71    1
    84   105   106    2
    85   105   112   am
    86    14    17    1
    87    14    15    1
    88    42    43    1
    89    71    73   ar
    90   112   113    1
    91    61    59   ar
    92    61    63   ar
    93    59    60   ar
    94    43    44    1
    95    15    16    2
    96    15    22   am
    97   119   117   ar
    98    63    64   ar
    99   115   114    2
   100   113   116    1
   101   113   114    1
   102    60    62   ar
   103   143   142    1
   104    22    23    1
   105   117   116    1
   106   117   118   ar
   107    44    45    1
   108   144   142    1
   109   141   142    1
   110   141   138    1
   111    53    51    1
   112   139   138    1
   113   139   140    2
   114    64    62   ar
   115   138   137    1
   116    45    46    1
   117    23    24    1
   118    51    48    1
   119    51    52    1
   120    49    48    1
   121    49    50    2
   122    48    47    1
   123    25    24    2
   124   123   122    2
   125   149   146    1
   126   122   121    1
   127   122   129   am
   128   121   124    1
   129   121   120    1
   130   124   125    1
   131   125   126    1
   132   146   147    1
   133   146   145    1
   134   150   151    1
   135   150   147   am
   136   129   130    1
   137   131   130    1
   138   131   132    2
   139   130   133    1
   140   157   155   ar
   141   154   155    1
   142   154   151    1
   143   135   134    2
   144   155   156   ar
   145   151   152    1
   146   147   148    2
   147   126   128   am
   148   126   127    2
   149   134   133    1
   150   134   136   am
   151   152   153    2
