@<TRIPOS>MOLECULE
tmp/4cfoA00.pdb
 223 212 0 0 0
SMALL
GASTEIGER

@<TRIPOS>ATOM
      1  N         23.1540   -3.4970   26.8170 N.3    30  PRO30      -0.2116
      2  CA        22.6420   -2.2640   26.1900 C.3    30  PRO30       0.1372
      3  C         21.7420   -2.5170   25.0010 C.2    30  PRO30       0.2244
      4  O         20.6570   -1.9670   24.9030 O.2    30  PRO30      -0.2868
      5  CB        23.9070   -1.5360   25.7190 C.3    30  PRO30       0.0268
      6  CG        24.9770   -2.5540   25.7110 C.3    30  PRO30       0.0207
      7  CD        24.6200   -3.5680   26.7590 C.3    30  PRO30       0.0892
      8  N         24.9580    3.5440   21.0650 N.3   185  GLN185     -0.1245
      9  CA        25.0170    3.0850   22.4540 C.3   185  GLN185      0.1566
     10  C         23.9480    2.0820   22.8470 C.2   185  GLN185      0.2260
     11  O         24.2440    1.1290   23.5220 O.2   185  GLN185     -0.2867
     12  CB        24.9660    4.2750   23.4220 C.3   185  GLN185      0.0367
     13  CG        26.1980    5.1600   23.3940 C.3   185  GLN185      0.0905
     14  CD        27.4930    4.3560   23.4160 C.2   185  GLN185      0.2608
     15  OE1       28.1300    4.2120   24.4720 O.2   185  GLN185     -0.2717
     16  NE2       27.8730    3.7830   22.2540 N.am  185  GLN185     -0.0878
     17  N         24.5230   -1.5070   31.0790 N.3   194  SER194     -0.1202
     18  CA        25.8630   -1.9650   30.7810 C.3   194  SER194      0.2020
     19  C         26.3750   -2.8480   31.9050 C.2   194  SER194      0.2619
     20  O         25.7810   -2.9260   32.9920 O.2   194  SER194     -0.2717
     21  CB        26.7790   -0.7450   30.7160 C.3   194  SER194      0.2103
     22  OG        27.9410   -0.9390   29.9520 O.3   194  SER194     -0.2182
     23  N         27.5060   -3.4880   31.6320 N.am  195  ARG195     -0.1965
     24  CA        28.2480   -4.2520   32.6400 C.3   195  ARG195      0.1729
     25  C         28.9370   -3.3290   33.6080 C.2   195  ARG195      0.2616
     26  O         29.2010   -3.7010   34.7350 O.2   195  ARG195     -0.2715
     27  CB        29.2800   -5.1790   31.9680 C.3   195  ARG195      0.0348
     28  CG        28.8230   -6.6330   31.7480 C.3   195  ARG195      0.0492
     29  CD        27.3340   -6.8950   32.0290 C.3   195  ARG195      0.2205
     30  NE        27.0230   -6.8300   33.4650 N.pl3 195  ARG195     -0.0865
     31  CZ        25.9380   -6.2590   33.9930 C.cat 195  ARG195      0.5346
     32  NH1       25.0180   -5.6800   33.2150 N.pl3 195  ARG195      0.1354
     33  NH2       25.7810   -6.2410   35.3180 N.pl3 195  ARG195      0.1354
     34  N         29.2030   -2.1180   33.1510 N.am  196  SER196     -0.1950
     35  CA        29.8200   -1.0880   33.9430 C.3   196  SER196      0.1924
     36  C         28.7600   -0.1170   34.4190 C.2   196  SER196      0.2314
     37  O         29.0440    1.0290   34.7310 O.2   196  SER196     -0.2863
     38  CB        30.8440   -0.3660   33.0750 C.3   196  SER196      0.2116
     39  OG        31.6680   -1.3040   32.4010 O.3   196  SER196     -0.2180
     40  N         26.5270    1.6210   32.8290 N.3   198  ALA198     -0.1245
     41  CA        26.0070    2.6860   32.0160 C.3   198  ALA198      0.1562
     42  C         24.5350    2.3400   31.8160 C.2   198  ALA198      0.2260
     43  O         24.1860    1.1910   31.5790 O.2   198  ALA198     -0.2867
     44  CB        26.7340    2.7490   30.6860 C.3   198  ALA198      0.0290
     45  N         23.1030    5.3490   27.3660 N.3   203  GLN203     -0.1231
     46  CA        24.0910    4.6410   28.1890 C.3   203  GLN203      0.1698
     47  C         24.9760    5.5640   29.0170 C.2   203  GLN203      0.2592
     48  O         26.1490    5.7840   28.6970 O.2   203  GLN203     -0.2718
     49  CB        24.9160    3.7200   27.3100 C.3   203  GLN203      0.0381
     50  CG        24.1390    2.4820   26.8710 C.3   203  GLN203      0.0905
     51  CD        24.0010    1.5100   28.0010 C.2   203  GLN203      0.2608
     52  OE1       24.8200    0.6230   28.1490 O.2   203  GLN203     -0.2717
     53  NE2       22.9950    1.6950   28.8230 N.am  203  GLN203     -0.0878
     54  N         24.3710    6.0980   30.0800 N.am  204  VAL204     -0.1966
     55  CA        24.9990    7.0900   30.9590 C.3   204  VAL204      0.1727
     56  C         25.2510    6.4370   32.3020 C.2   204  VAL204      0.2616
     57  O         24.3280    5.8670   32.8610 O.2   204  VAL204     -0.2715
     58  CB        24.0660    8.3140   31.2230 C.3   204  VAL204      0.0290
     59  CG1       24.7660    9.3440   32.0980 C.3   204  VAL204      0.0023
     60  CG2       23.6040    8.9710   29.9250 C.3   204  VAL204      0.0023
     61  N         26.4670    6.5510   32.8370 N.am  205  VAL205     -0.1977
     62  CA        26.7980    5.9640   34.1350 C.3   205  VAL205      0.1596
     63  C         26.6480    7.0700   35.1930 C.2   205  VAL205      0.2287
     64  O         27.1790    8.1710   35.0290 O.2   205  VAL205     -0.2864
     65  CB        28.2140    5.3180   34.1610 C.3   205  VAL205      0.0276
     66  CG1       28.6440    4.8320   32.7870 C.3   205  VAL205      0.0022
     67  CG2       29.2660    6.2680   34.6810 C.3   205  VAL205      0.0022
     68  N         27.9250    7.8280   38.0830 N.3   207  HIS207     -0.1226
     69  CA        29.0690    8.4420   38.8070 C.3   207  HIS207      0.1752
     70  C         30.2430    9.0100   37.9450 C.2   207  HIS207      0.2597
     71  O         31.3150    9.2570   38.4780 O.2   207  HIS207     -0.2718
     72  CB        29.6250    7.4140   39.8140 C.3   207  HIS207      0.0759
     73  CG        30.5280    6.3900   39.1810 C.ar  207  HIS207      0.0818
     74  ND1       30.0480    5.2530   38.5460 N.ar  207  HIS207     -0.2268
     75  CD2       31.8800    6.3560   39.0390 C.ar  207  HIS207      0.1154
     76  CE1       31.0670    4.5560   38.0640 C.ar  207  HIS207      0.1986
     77  NE2       32.1880    5.1990   38.3560 N.ar  207  HIS207     -0.2212
     78  N         30.0740    9.1900   36.6370 N.am  208  THR208     -0.1939
     79  CA        31.0370    9.9940   35.8560 C.3   208  THR208      0.2028
     80  C         30.3450   11.1520   35.1150 C.2   208  THR208      0.2642
     81  O         30.4540   12.3100   35.5210 O.2   208  THR208     -0.2714
     82  CB        31.8820    9.1550   34.8760 C.3   208  THR208      0.1808
     83  OG1       31.1390    8.0280   34.4250 O.3   208  THR208     -0.2208
     84  CG2       33.1010    8.6440   35.5520 C.3   208  THR208      0.0379
     85  N         29.6320   10.8570   34.0360 N.am  209  ALA209     -0.1977
     86  CA        28.9620   11.9000   33.2880 C.3   209  ALA209      0.1597
     87  C         27.7700   12.4490   34.0740 C.2   209  ALA209      0.2287
     88  O         27.4720   13.6590   34.0510 O.2   209  ALA209     -0.2864
     89  CB        28.5160   11.3560   31.9550 C.3   209  ALA209      0.0319
     90  N         27.4290   12.7790   37.1540 N.3   211  LYS211     -0.1231
     91  CA        27.8880   13.6260   38.2590 C.3   211  LYS211      0.1693
     92  C         28.3060   14.9480   37.7010 C.2   211  LYS211      0.2592
     93  O         27.8290   15.9910   38.1400 O.2   211  LYS211     -0.2718
     94  CB        29.0840   12.9890   38.9730 C.3   211  LYS211      0.0285
     95  CG        28.9730   12.9420   40.5020 C.3   211  LYS211      0.0035
     96  CD        29.7220   14.0680   41.1860 C.3   211  LYS211      0.0206
     97  CE        28.9380   14.6950   42.3520 C.3   211  LYS211      0.1093
     98  NZ        28.4670   16.1050   42.0970 N.3   211  LYS211     -0.1314
     99  N         29.2050   14.8890   36.7220 N.am  212  ASP212     -0.1974
    100  CA        29.6520   16.0740   36.0060 C.3   212  ASP212      0.1709
    101  C         28.4820   16.8520   35.4340 C.2   212  ASP212      0.2293
    102  O         28.5250   18.0820   35.4150 O.2   212  ASP212     -0.2864
    103  CB        30.5970   15.7020   34.8600 C.3   212  ASP212      0.1436
    104  CG        32.0420   15.8630   35.2160 C.2   212  ASP212      0.3671
    105  OD1       32.3800   16.1610   36.3610 O.co2 212  ASP212     -0.2456
    106  OD2       32.8780   15.6580   34.3380 O.co2 212  ASP212     -0.2456
    107  N         26.6380   18.4310   38.0950 N.3   215  ARG215     -0.1245
    108  CA        27.5350   19.4330   38.6450 C.3   215  ARG215      0.1563
    109  C         27.5240   20.7110   37.8740 C.2   215  ARG215      0.2260
    110  O         27.7360   21.7560   38.4180 O.2   215  ARG215     -0.2867
    111  CB        28.9460   18.9000   38.7890 C.3   215  ARG215      0.0307
    112  CG        29.8390   19.7160   39.7020 C.3   215  ARG215      0.0489
    113  CD        30.9430   18.8840   40.3500 C.3   215  ARG215      0.2205
    114  NE        30.9010   18.8830   41.8160 N.pl3 215  ARG215     -0.0865
    115  CZ        31.5600   18.0490   42.6080 C.cat 215  ARG215      0.5346
    116  NH1       32.3520   17.1340   42.1130 N.pl3 215  ARG215      0.1354
    117  NH2       31.4180   18.1310   43.9100 N.pl3 215  ARG215      0.1354
    118  N         22.7330   12.7620   28.7060 N.3   238  GLY238     -0.1225
    119  CA        23.7710   12.3750   27.7640 C.3   238  GLY238      0.1811
    120  C         24.1320   13.5630   26.9050 C.2   238  GLY238      0.2280
    121  O         25.3040   13.7780   26.5700 O.2   238  GLY238     -0.2866
    122  N         26.1560   16.2110   28.6190 N.3   241  TYR241     -0.1241
    123  CA        27.5400   15.7910   28.6710 C.3   241  TYR241      0.1605
    124  C         28.2570   16.0470   27.3700 C.2   241  TYR241      0.2264
    125  O         29.3920   16.4690   27.3820 O.2   241  TYR241     -0.2867
    126  CB        27.6030   14.3120   29.0120 C.3   241  TYR241      0.0534
    127  CG        28.9670   13.8210   29.3750 C.ar  241  TYR241     -0.0201
    128  CD1       29.6810   14.3940   30.4220 C.ar  241  TYR241     -0.0009
    129  CD2       29.5510   12.7650   28.6870 C.ar  241  TYR241     -0.0009
    130  CE1       30.9570   13.9330   30.7590 C.ar  241  TYR241      0.0417
    131  CE2       30.8190   12.2940   29.0250 C.ar  241  TYR241      0.0417
    132  CZ        31.5140   12.8730   30.0670 C.ar  241  TYR241      0.1957
    133  OH        32.7470   12.4010   30.4310 O.3   241  TYR241     -0.2866
    134  N         35.9320   20.3530   28.2750 N.3   249  TYR249     -0.1241
    135  CA        36.9950   19.3620   28.2700 C.3   249  TYR249      0.1605
    136  C         37.7790   19.3120   26.9730 C.2   249  TYR249      0.2264
    137  O         38.9950   19.2910   27.0010 O.2   249  TYR249     -0.2867
    138  CB        36.4580   17.9650   28.6200 C.3   249  TYR249      0.0534
    139  CG        35.9120   17.8670   30.0260 C.ar  249  TYR249     -0.0201
    140  CD1       36.6640   18.2900   31.1410 C.ar  249  TYR249     -0.0009
    141  CD2       34.6480   17.3410   30.2610 C.ar  249  TYR249     -0.0009
    142  CE1       36.1500   18.1990   32.4240 C.ar  249  TYR249      0.0417
    143  CE2       34.1400   17.2450   31.5410 C.ar  249  TYR249      0.0417
    144  CZ        34.8830   17.6810   32.6060 C.ar  249  TYR249      0.1957
    145  OH        34.3590   17.5870   33.8600 O.3   249  TYR249     -0.2866
    146  N         33.0030   10.5640   24.5640 N.3   267  TYR267     -0.1227
    147  CA        31.6990   10.2750   25.1040 C.3   267  TYR267      0.1736
    148  C         31.7180    8.8440   25.5840 C.2   267  TYR267      0.2595
    149  O         31.0640    8.5000   26.5390 O.2   267  TYR267     -0.2718
    150  CB        30.6010   10.5150   24.0830 C.3   267  TYR267      0.0548
    151  CG        29.2530   10.3490   24.7040 C.ar  267  TYR267     -0.0200
    152  CD1       28.6350   11.3820   25.3350 C.ar  267  TYR267     -0.0009
    153  CD2       28.6220    9.1340   24.6920 C.ar  267  TYR267     -0.0009
    154  CE1       27.4110   11.2100   25.9260 C.ar  267  TYR267      0.0417
    155  CE2       27.4050    8.9430   25.2850 C.ar  267  TYR267      0.0417
    156  CZ        26.7960    9.9760   25.8990 C.ar  267  TYR267      0.1957
    157  OH        25.5630    9.7770   26.4940 O.3   267  TYR267     -0.2866
    158  N         32.5390    8.0240   24.9520 N.am  268  ASN268     -0.1960
    159  CA        32.6260    6.5930   25.2580 C.3   268  ASN268      0.1819
    160  C         33.7590    6.1620   26.2030 C.2   268  ASN268      0.2622
    161  O         33.6310    5.1860   26.9170 O.2   268  ASN268     -0.2715
    162  CB        32.7660    5.8350   23.9360 C.3   268  ASN268      0.1195
    163  CG        33.2600    4.4380   24.1300 C.2   268  ASN268      0.2630
    164  OD1       34.4470    4.1520   23.9390 O.2   268  ASN268     -0.2716
    165  ND2       32.3670    3.5610   24.5550 N.am  268  ASN268     -0.0877
    166  N         34.8810    6.8540   26.1760 N.am  269  GLY269     -0.1940
    167  CA        36.0160    6.4730   27.0220 C.3   269  GLY269      0.2014
    168  C         36.6310    7.5810   27.8730 C.2   269  GLY269      0.2639
    169  O         37.6820    7.3780   28.4830 O.2   269  GLY269     -0.2714
    170  N         36.0050    8.7560   27.8980 N.am  270  GLY270     -0.1939
    171  CA        36.5430    9.9020   28.6390 C.3   270  GLY270      0.2014
    172  C         37.4790   10.8470   27.8910 C.2   270  GLY270      0.2639
    173  O         38.2490   10.4270   27.0530 O.2   270  GLY270     -0.2714
    174  N         37.4100   12.1310   28.2220 N.am  271  ALA271     -0.1963
    175  CA        38.1840   13.1520   27.5350 C.3   271  ALA271      0.1728
    176  C         39.6540   13.0370   27.8620 C.2   271  ALA271      0.2617
    177  O         40.5350   13.3620   27.0090 O.2   271  ALA271     -0.2715
    178  CB        37.7020   14.5220   27.9430 C.3   271  ALA271      0.0334
    179  N         39.9140   12.6270   29.1110 N.am  272  GLY272     -0.1940
    180  CA        41.2710   12.3730   29.5740 C.3   272  GLY272      0.2014
    181  C         41.9390   11.3250   28.7080 C.2   272  GLY272      0.2639
    182  O         43.1070   11.4630   28.3850 O.2   272  GLY272     -0.2714
    183  N         41.1870   10.2900   28.3210 N.am  273  SER273     -0.1949
    184  CA        41.7290    9.1570   27.5780 C.3   273  SER273      0.1924
    185  C         41.9290    9.5390   26.1280 C.2   273  SER273      0.2314
    186  O         42.8600    9.0370   25.4690 O.2   273  SER273     -0.2863
    187  CB        40.8110    7.9650   27.6510 C.3   273  SER273      0.2116
    188  OG        39.6230    8.2340   26.9520 O.3   273  SER273     -0.2180
    189  N         44.9010   11.8750   25.9560 N.3   276  ARG276     -0.1245
    190  CA        46.0980   11.1150   26.3680 C.3   276  ARG276      0.1563
    191  C         46.6660   10.2660   25.2590 C.2   276  ARG276      0.2260
    192  O         47.5790    9.4940   25.4910 O.2   276  ARG276     -0.2867
    193  CB        45.7670   10.1920   27.5540 C.3   276  ARG276      0.0307
    194  CG        46.6120   10.3970   28.8120 C.3   276  ARG276      0.0489
    195  CD        45.7930   10.0210   30.0550 C.3   276  ARG276      0.2205
    196  NE        45.1170    8.7200   29.8870 N.pl3 276  ARG276     -0.0865
    197  CZ        44.0250    8.3190   30.5510 C.cat 276  ARG276      0.5346
    198  NH1       43.4530    9.1250   31.4510 N.pl3 276  ARG276      0.1354
    199  NH2       43.4760    7.1170   30.3040 N.pl3 276  ARG276      0.1354
    200  N         47.4000   18.0080   28.9880 N.3   282  LYS282     -0.1245
    201  CA        46.1340   18.3810   28.3630 C.3   282  LYS282      0.1561
    202  C         46.2610   19.5760   27.4280 C.2   282  LYS282      0.2260
    203  O         45.4430   19.7380   26.5120 O.2   282  LYS282     -0.2867
    204  CB        45.0840   18.7030   29.4430 C.3   282  LYS282      0.0271
    205  CG        44.6270   17.5120   30.2860 C.3   282  LYS282      0.0035
    206  CD        43.6040   17.9240   31.3540 C.3   282  LYS282      0.0206
    207  CE        42.6840   16.7700   31.7600 C.3   282  LYS282      0.1093
    208  NZ        43.4300   15.6180   32.3490 N.3   282  LYS282     -0.1314
    209  N         41.4040    1.8860   23.8720 N.3   307  SER307     -0.1217
    210  CA        40.2500    1.0120   23.9730 C.3   307  SER307      0.1889
    211  C         39.8450    0.4950   22.5970 C.2   307  SER307      0.2288
    212  O         39.7080    1.2820   21.6680 O.2   307  SER307     -0.2866
    213  CB        39.1020    1.7880   24.6170 C.3   307  SER307      0.2089
    214  OG        38.0680    0.9250   25.0260 O.3   307  SER307     -0.2183
    215  N         36.8980   -1.1460   22.0190 N.3   309  GLU309     -0.1245
    216  CA        35.5510   -0.5990   22.0570 C.3   309  GLU309      0.1567
    217  C         35.5100    0.8540   21.4820 C.2   309  GLU309      0.2260
    218  O         34.6970    1.1390   20.6070 O.2   309  GLU309     -0.2867
    219  CB        35.0140   -0.7020   23.5100 C.3   309  GLU309      0.0388
    220  CG        33.5730   -0.2650   23.7350 C.3   309  GLU309      0.1160
    221  CD        33.1700   -0.2020   25.2190 C.2   309  GLU309      0.3649
    222  OE1       33.6660    0.6950   25.9590 O.co2 309  GLU309     -0.2457
    223  OE2       32.3220   -1.0380   25.6400 O.co2 309  GLU309     -0.2457
@<TRIPOS>BOND
     1   218   217    2
     2     8     9    1
     3   217   216    1
     4   212   211    2
     5   215   216    1
     6   216   219    1
     7    16    14   am
     8     9    10    1
     9     9    12    1
    10   211   210    1
    11    10    11    2
    12    13    14    1
    13    13    12    1
    14    14    15    2
    15   219   220    1
    16   220   221    1
    17   209   210    1
    18   162   163    1
    19   162   159    1
    20   164   163    2
    21   210   213    1
    22   150   151    1
    23   150   147    1
    24   163   165   am
    25   146   147    1
    26   213   214    1
    27   153   151   ar
    28   153   155   ar
    29   151   152   ar
    30     4     3    2
    31   158   159    1
    32   158   148   am
    33     3     2    1
    34   147   148    1
    35   221   223   ar
    36   221   222   ar
    37   159   160    1
    38   191   192    2
    39   191   190    1
    40   155   156   ar
    41   152   154   ar
    42   186   185    2
    43   148   149    2
    44     6     5    1
    45     6     7    1
    46     5     2    1
    47   156   154   ar
    48   156   157    1
    49   189   190    1
    50   185   184    1
    51   166   160   am
    52   166   167    1
    53     2     1    1
    54   160   161    2
    55   190   193    1
    56   203   202    2
    57   121   120    2
    58     7     1    1
    59    50    49    1
    60    50    51    1
    61   120   119    1
    62   188   187    1
    63   136   137    2
    64   136   135    1
    65   177   176    2
    66   167   168    1
    67   173   172    2
    68    49    46    1
    69    45    46    1
    70   124   125    2
    71   124   123    1
    72   202   201    1
    73   175   176    1
    74   175   178    1
    75   175   174    1
    76   193   194    1
    77   184   187    1
    78   184   183    1
    79   119   118    1
    80   176   179   am
    81   168   170   am
    82   168   169    2
    83   172   174   am
    84   172   171    1
    85   170   171    1
    86    51    52    2
    87    51    53   am
    88    46    47    1
    89   135   134    1
    90   135   138    1
    91   183   181   am
    92   201   200    1
    93   201   204    1
    94   182   181    2
    95   122   123    1
    96   138   139    1
    97   123   126    1
    98   129   131   ar
    99   129   127   ar
   100    48    47    2
   101   181   180    1
   102   194   195    1
   103   126   127    1
   104    47    54   am
   105   131   132   ar
   106   179   180    1
   107   127   128   ar
   108   204   205    1
   109   196   195    1
   110   196   197    2
   111    60    58    1
   112    22    21    1
   113   139   141   ar
   114   139   140   ar
   115   132   133    1
   116   132   130   ar
   117    54    55    1
   118   141   143   ar
   119   205   206    1
   120   199   197    1
   121   128   130   ar
   122   197   198    1
   123    44    41    1
   124    21    18    1
   125    18    17    1
   126    18    19    1
   127    55    58    1
   128    55    56    1
   129   140   142   ar
   130    58    59    1
   131   206   207    1
   132   143   144   ar
   133    43    42    2
   134    23    19   am
   135    23    24    1
   136    28    27    1
   137    28    29    1
   138   207   208    1
   139    42    41    1
   140    19    20    2
   141    89    86    1
   142    27    24    1
   143    41    40    1
   144    29    30    1
   145    56    61   am
   146    56    57    2
   147    39    38    1
   148   142   144   ar
   149   144   145    1
   150    24    25    1
   151    66    65    1
   152    61    62    1
   153    38    35    1
   154    34    25   am
   155    34    35    1
   156    32    31    1
   157    86    85    1
   158    86    87    1
   159    30    31    2
   160    25    26    2
   161    35    36    1
   162    31    33    1
   163    85    80   am
   164    88    87    2
   165    62    65    1
   166    62    63    1
   167    65    67    1
   168   106   104   ar
   169    36    37    2
   170    83    82    1
   171   103   104    1
   172   103   100    1
   173    82    84    1
   174    82    79    1
   175    64    63    2
   176    80    81    2
   177    80    79    1
   178   104   105   ar
   179   102   101    2
   180   101   100    1
   181    79    78    1
   182   100    99    1
   183    78    70   am
   184    99    92   am
   185    90    91    1
   186    92    93    2
   187    92    91    1
   188   109   110    2
   189   109   108    1
   190    70    71    2
   191    70    69    1
   192    76    77   ar
   193    76    74   ar
   194    68    69    1
   195   107   108    1
   196    91    94    1
   197    77    75   ar
   198    74    73   ar
   199   108   111    1
   200   111   112    1
   201    69    72    1
   202    94    95    1
   203    75    73   ar
   204    73    72    1
   205   112   113    1
   206   113   114    1
   207    95    96    1
   208    96    97    1
   209   114   115    2
   210    98    97    1
   211   116   115    1
   212   115   117    1
