@<TRIPOS>MOLECULE
tmp/4cfpA02.pdb
 84 78 0 0 0
SMALL
GASTEIGER

@<TRIPOS>ATOM
      1  N        -20.1040   19.7530   20.6840 N.3   102  TYR102     -0.1227
      2  CA       -19.4410   19.4790   21.9590 C.3   102  TYR102      0.1736
      3  C        -18.1140   18.7570   21.7570 C.2   102  TYR102      0.2596
      4  O        -18.0720   17.6720   21.1710 O.2   102  TYR102     -0.2718
      5  CB       -20.3350   18.6490   22.8740 C.3   102  TYR102      0.0548
      6  CG       -19.6890   18.3660   24.2140 C.ar  102  TYR102     -0.0200
      7  CD1      -19.6000   19.3550   25.1880 C.ar  102  TYR102     -0.0009
      8  CD2      -19.1610   17.1200   24.5000 C.ar  102  TYR102     -0.0009
      9  CE1      -18.9940   19.1080   26.4190 C.ar  102  TYR102      0.0417
     10  CE2      -18.5560   16.8610   25.7180 C.ar  102  TYR102      0.0417
     11  CZ       -18.4770   17.8600   26.6740 C.ar  102  TYR102      0.1957
     12  OH       -17.8850   17.6040   27.8850 O.3   102  TYR102     -0.2866
     13  N        -17.0290   19.3840   22.2090 N.am  103  GLY103     -0.1957
     14  CA       -15.6930   18.8460   22.0060 C.3   103  GLY103      0.1869
     15  C        -14.9250   19.3630   20.7980 C.2   103  GLY103      0.2309
     16  O        -13.6950   19.2970   20.7650 O.2   103  GLY103     -0.2863
     17  N        -13.6940   24.8270   22.0790 N.3   106  VAL106     -0.1245
     18  CA       -13.5540   25.1710   23.4890 C.3   106  VAL106      0.1561
     19  C        -13.6870   26.6830   23.6360 C.2   106  VAL106      0.2260
     20  O        -13.3910   27.4240   22.7040 O.2   106  VAL106     -0.2867
     21  CB       -12.1960   24.7170   24.0620 C.3   106  VAL106      0.0252
     22  CG1      -12.0480   23.1930   23.9960 C.3   106  VAL106      0.0019
     23  CG2      -11.0640   25.3690   23.3120 C.3   106  VAL106      0.0019
     24  N        -10.8480   27.2780   27.6970 N.3   110  GLY110     -0.1225
     25  CA       -10.2580   26.0270   27.2700 C.3   110  GLY110      0.1811
     26  C        -11.1810   24.8480   27.5000 C.2   110  GLY110      0.2280
     27  O        -10.8080   23.7080   27.2250 O.2   110  GLY110     -0.2866
     28  N        -14.7000   22.5890   26.9170 N.3   112  PRO112     -0.2116
     29  CA       -15.7610   22.2540   25.9580 C.3   112  PRO112      0.1372
     30  C        -17.1060   22.7690   26.4470 C.2   112  PRO112      0.2244
     31  O        -17.3170   22.8790   27.6610 O.2   112  PRO112     -0.2868
     32  CB       -15.7320   20.7220   25.9060 C.3   112  PRO112      0.0268
     33  CG       -14.9450   20.2930   27.1190 C.3   112  PRO112      0.0207
     34  CD       -13.9790   21.3990   27.4000 C.3   112  PRO112      0.0892
     35  N        -11.2170   23.3130   17.5160 N.3   149  VAL149     -0.1245
     36  CA       -10.0110   22.6690   17.9890 C.3   149  VAL149      0.1561
     37  C         -9.2100   22.1340   16.8000 C.2   149  VAL149      0.2260
     38  O         -9.7650   21.8700   15.7220 O.2   149  VAL149     -0.2867
     39  CB       -10.3470   21.5580   19.0140 C.3   149  VAL149      0.0252
     40  CG1      -11.0700   22.1700   20.2090 C.3   149  VAL149      0.0019
     41  CG2      -11.1920   20.4740   18.3900 C.3   149  VAL149      0.0019
     42  N         -7.7990   19.2610   16.1730 N.3   151  ASN151     -0.1240
     43  CA        -8.2080   17.9270   15.7280 C.3   151  ASN151      0.1653
     44  C         -9.7380   17.8000   15.6200 C.2   151  ASN151      0.2266
     45  O        -10.3040   16.7680   15.9990 O.2   151  ASN151     -0.2867
     46  CB        -7.6300   16.8370   16.6780 C.3   151  ASN151      0.1155
     47  CG        -8.1530   16.9400   18.1120 C.2   151  ASN151      0.2627
     48  OD1       -8.5870   18.0000   18.5570 O.2   151  ASN151     -0.2716
     49  ND2       -8.1260   15.8210   18.8340 N.am  151  ASN151     -0.0877
     50  N        -11.0690   14.7780   13.5160 N.3   154  ASP154     -0.1225
     51  CA       -11.0510   13.5040   14.2210 C.3   154  ASP154      0.1805
     52  C        -12.1890   13.4280   15.2190 C.2   154  ASP154      0.2597
     53  O        -12.8420   12.3940   15.3360 O.2   154  ASP154     -0.2718
     54  CB        -9.7110   13.2930   14.9220 C.3   154  ASP154      0.1424
     55  CG        -8.5890   13.0230   13.9480 C.2   154  ASP154      0.3668
     56  OD1       -8.8890   12.6760   12.7850 O.co2 154  ASP154     -0.2456
     57  OD2       -7.4110   13.1560   14.3310 O.co2 154  ASP154     -0.2456
     58  N        -12.4520   14.5270   15.9160 N.am  155  LYS155     -0.1979
     59  CA       -13.5410   14.5210   16.8890 C.3   155  LYS155      0.1596
     60  C        -14.8470   14.1740   16.2160 C.2   155  LYS155      0.2287
     61  O        -15.5850   13.3050   16.6760 O.2   155  LYS155     -0.2864
     62  CB       -13.6580   15.8730   17.5910 C.3   155  LYS155      0.0298
     63  CG       -12.4860   16.1710   18.5040 C.3   155  LYS155      0.0038
     64  CD       -12.3270   15.1040   19.5730 C.3   155  LYS155      0.0206
     65  CE       -12.2520   15.7220   20.9620 C.3   155  LYS155      0.1093
     66  NZ       -13.5370   15.5410   21.6900 N.3   155  LYS155     -0.1314
     67  N        -15.3230   10.6060   14.8910 N.3   158  HIS158     -0.1241
     68  CA       -15.5480    9.6720   15.9830 C.3   158  HIS158      0.1621
     69  C        -17.0330    9.3450   16.1430 C.2   158  HIS158      0.2264
     70  O        -17.3860    8.2160   16.4710 O.2   158  HIS158     -0.2867
     71  CB       -14.9830   10.2360   17.3000 C.3   158  HIS158      0.0745
     72  CG       -14.8220    9.2070   18.3730 C.ar  158  HIS158      0.0817
     73  ND1      -15.7700    8.9930   19.3530 N.ar  158  HIS158     -0.2268
     74  CD2      -13.8240    8.3230   18.6170 C.ar  158  HIS158      0.1154
     75  CE1      -15.3660    8.0220   20.1510 C.ar  158  HIS158      0.1986
     76  NE2      -14.1870    7.6010   19.7290 N.ar  158  HIS158     -0.2212
     77  N        -17.8130    6.4330   13.3920 N.3   161  LEU161     -0.1245
     78  CA       -16.9250    5.2900   13.2570 C.3   161  LEU161      0.1561
     79  C        -17.6660    3.9620   13.4500 C.2   161  LEU161      0.2260
     80  O        -17.3760    2.9950   12.7670 O.2   161  LEU161     -0.2867
     81  CB       -15.7730    5.3960   14.2510 C.3   161  LEU161      0.0270
     82  CG       -14.7410    6.4730   13.9150 C.3   161  LEU161      0.0019
     83  CD1      -13.5780    6.4160   14.8850 C.3   161  LEU161      0.0001
     84  CD2      -14.2540    6.3040   12.4800 C.3   161  LEU161      0.0001
@<TRIPOS>BOND
     1    84    82    1
     2    80    79    2
     3    56    55   ar
     4    78    77    1
     5    78    79    1
     6    78    81    1
     7    50    51    1
     8    82    81    1
     9    82    83    1
    10    55    57   ar
    11    55    54    1
    12    51    54    1
    13    51    52    1
    14    67    68    1
    15    52    53    2
    16    52    58   am
    17    44    43    1
    18    44    45    2
    19    38    37    2
    20    43    42    1
    21    43    46    1
    22    58    59    1
    23    68    69    1
    24    68    71    1
    25    69    70    2
    26    60    61    2
    27    60    59    1
    28    46    47    1
    29    37    36    1
    30    59    62    1
    31    71    72    1
    32    35    36    1
    33    62    63    1
    34    36    39    1
    35    47    48    2
    36    47    49   am
    37    72    74   ar
    38    72    73   ar
    39    41    39    1
    40    63    64    1
    41    74    76   ar
    42    39    40    1
    43    73    75   ar
    44    64    65    1
    45    76    75   ar
    46     1     2    1
    47    16    15    2
    48    15    14    1
    49    65    66    1
    50     4     3    2
    51     3     2    1
    52     3    13   am
    53     2     5    1
    54    14    13    1
    55    17    18    1
    56    20    19    2
    57     5     6    1
    58    23    21    1
    59    18    19    1
    60    18    21    1
    61    22    21    1
    62     6     8   ar
    63     6     7   ar
    64     8    10   ar
    65     7     9   ar
    66    10    11   ar
    67    32    29    1
    68    32    33    1
    69    29    30    1
    70    29    28    1
    71     9    11   ar
    72    30    31    2
    73    11    12    1
    74    28    34    1
    75    33    34    1
    76    27    26    2
    77    25    26    1
    78    25    24    1
