@<TRIPOS>MOLECULE
tmp/4cfpB00.pdb
 165 160 0 0 0
SMALL
GASTEIGER

@<TRIPOS>ATOM
      1  N         -1.1590  -12.6690   27.7000 N.3   203  GLN203     -0.1231
      2  CA        -0.2280  -13.4160   28.5150 C.3   203  GLN203      0.1698
      3  C          0.6110  -12.5210   29.4190 C.2   203  GLN203      0.2592
      4  O          1.8240  -12.4450   29.2850 O.2   203  GLN203     -0.2718
      5  CB         0.6470  -14.2620   27.6120 C.3   203  GLN203      0.0381
      6  CG        -0.0780  -15.5170   27.1300 C.3   203  GLN203      0.0905
      7  CD        -0.2910  -16.5050   28.2520 C.2   203  GLN203      0.2608
      8  OE1        0.6000  -17.2760   28.5650 O.2   203  GLN203     -0.2717
      9  NE2       -1.4580  -16.4720   28.8740 N.am  203  GLN203     -0.0878
     10  N         -0.0690  -11.8240   30.3180 N.am  204  VAL204     -0.1966
     11  CA         0.5810  -10.8580   31.1990 C.3   204  VAL204      0.1727
     12  C          0.9980  -11.5200   32.5330 C.2   204  VAL204      0.2616
     13  O          0.1950  -12.1960   33.1740 O.2   204  VAL204     -0.2715
     14  CB        -0.3600   -9.6550   31.4490 C.3   204  VAL204      0.0290
     15  CG1        0.2130   -8.7230   32.4890 C.3   204  VAL204      0.0023
     16  CG2       -0.6700   -8.9110   30.1010 C.3   204  VAL204      0.0023
     17  N          2.2700  -11.3720   32.9030 N.am  205  VAL205     -0.1977
     18  CA         2.7660  -11.8480   34.1980 C.3   205  VAL205      0.1596
     19  C          2.5610  -10.7880   35.2830 C.2   205  VAL205      0.2287
     20  O          2.9500   -9.6210   35.1200 O.2   205  VAL205     -0.2864
     21  CB         4.2600  -12.2140   34.1480 C.3   205  VAL205      0.0276
     22  CG1        4.7140  -12.7840   35.5220 C.3   205  VAL205      0.0022
     23  CG2        4.5220  -13.2000   33.0200 C.3   205  VAL205      0.0022
     24  N          3.8150  -10.1670   38.4230 N.3   207  HIS207     -0.1226
     25  CA         4.8550   -9.5730   39.2550 C.3   207  HIS207      0.1752
     26  C          5.9550   -8.8660   38.4620 C.2   207  HIS207      0.2597
     27  O          6.8810   -8.3160   39.0560 O.2   207  HIS207     -0.2718
     28  CB         5.4800  -10.6480   40.1530 C.3   207  HIS207      0.0759
     29  CG         6.3110  -11.6440   39.4100 C.ar  207  HIS207      0.0818
     30  ND1        7.6830  -11.5390   39.3040 N.ar  207  HIS207     -0.2268
     31  CD2        5.9650  -12.7670   38.7320 C.ar  207  HIS207      0.1154
     32  CE1        8.1470  -12.5560   38.5950 C.ar  207  HIS207      0.1986
     33  NE2        7.1240  -13.3110   38.2300 N.ar  207  HIS207     -0.2212
     34  N          5.8580   -8.8800   37.1330 N.am  208  THR208     -0.1939
     35  CA         6.7970   -8.1260   36.2970 C.3   208  THR208      0.2028
     36  C          6.0550   -7.0220   35.5230 C.2   208  THR208      0.2642
     37  O          5.9250   -5.9210   36.0280 O.2   208  THR208     -0.2714
     38  CB         7.5550   -9.0470   35.3250 C.3   208  THR208      0.1808
     39  OG1        6.6110   -9.7900   34.5480 O.3   208  THR208     -0.2208
     40  CG2        8.4660  -10.0320   36.1180 C.3   208  THR208      0.0379
     41  N          5.5490   -7.3190   34.3280 N.am  209  ALA209     -0.1977
     42  CA         4.8270   -6.3260   33.5400 C.3   209  ALA209      0.1597
     43  C          3.6270   -5.7770   34.3040 C.2   209  ALA209      0.2287
     44  O          3.4230   -4.5580   34.3660 O.2   209  ALA209     -0.2864
     45  CB         4.3740   -6.9220   32.1850 C.3   209  ALA209      0.0319
     46  N          3.0580   -5.5020   37.4360 N.3   211  LYS211     -0.1231
     47  CA         3.4950   -4.5810   38.4840 C.3   211  LYS211      0.1693
     48  C          3.9760   -3.2390   37.9220 C.2   211  LYS211      0.2592
     49  O          3.5320   -2.1750   38.3580 O.2   211  LYS211     -0.2718
     50  CB         4.6030   -5.2270   39.3130 C.3   211  LYS211      0.0285
     51  CG         5.2670   -4.2710   40.2550 C.3   211  LYS211      0.0035
     52  CD         5.3340   -4.8590   41.6300 C.3   211  LYS211      0.0206
     53  CE         6.4070   -4.1580   42.4410 C.3   211  LYS211      0.1093
     54  NZ         7.6660   -4.9730   42.5170 N.3   211  LYS211     -0.1314
     55  N          4.8740   -3.2990   36.9440 N.am  212  ASP212     -0.1974
     56  CA         5.3170   -2.1020   36.2190 C.3   212  ASP212      0.1709
     57  C          4.1640   -1.2220   35.6920 C.2   212  ASP212      0.2293
     58  O          4.2530    0.0090   35.7200 O.2   212  ASP212     -0.2864
     59  CB         6.2140   -2.5060   35.0500 C.3   212  ASP212      0.1436
     60  CG         7.6830   -2.4040   35.3800 C.2   212  ASP212      0.3671
     61  OD1        8.0060   -2.1320   36.5490 O.co2 212  ASP212     -0.2456
     62  OD2        8.5150   -2.5920   34.4690 O.co2 212  ASP212     -0.2456
     63  N          2.3950    0.4490   38.6470 N.3   215  ARG215     -0.1245
     64  CA         3.2880    1.5440   39.0710 C.3   215  ARG215      0.1563
     65  C          3.0970    2.7680   38.1890 C.2   215  ARG215      0.2260
     66  O          2.8220    3.8530   38.6770 O.2   215  ARG215     -0.2867
     67  CB         4.7720    1.1460   39.0120 C.3   215  ARG215      0.0307
     68  CG         5.2050    0.0620   39.9750 C.3   215  ARG215      0.0489
     69  CD         5.1240    0.5220   41.4170 C.3   215  ARG215      0.2205
     70  NE         5.0340   -0.6060   42.3480 N.pl3 215  ARG215     -0.0865
     71  CZ         3.9320   -1.3270   42.5670 C.cat 215  ARG215      0.5346
     72  NH1        2.7960   -1.0580   41.9220 N.pl3 215  ARG215      0.1354
     73  NH2        3.9650   -2.3260   43.4370 N.pl3 215  ARG215      0.1354
     74  N          1.7330   -1.9940   28.7580 N.3   241  TYR241     -0.1241
     75  CA         3.1420   -2.4110   28.8530 C.3   241  TYR241      0.1605
     76  C          3.8610   -2.1520   27.5460 C.2   241  TYR241      0.2264
     77  O          5.0260   -1.7790   27.5440 O.2   241  TYR241     -0.2867
     78  CB         3.2860   -3.8940   29.2260 C.3   241  TYR241      0.0534
     79  CG         4.6810   -4.2880   29.6810 C.ar  241  TYR241     -0.0201
     80  CD1        5.2980   -3.6440   30.7540 C.ar  241  TYR241     -0.0009
     81  CD2        5.3670   -5.3190   29.0560 C.ar  241  TYR241     -0.0009
     82  CE1        6.5670   -4.0190   31.1830 C.ar  241  TYR241      0.0417
     83  CE2        6.6280   -5.7060   29.4740 C.ar  241  TYR241      0.0417
     84  CZ         7.2230   -5.0620   30.5430 C.ar  241  TYR241      0.1957
     85  OH         8.4840   -5.4590   30.9370 O.3   241  TYR241     -0.2866
     86  N         11.4670    2.2860   28.5890 N.3   249  TYR249     -0.1241
     87  CA        12.6130    1.3880   28.5950 C.3   249  TYR249      0.1605
     88  C         13.4240    1.3940   27.3190 C.2   249  TYR249      0.2264
     89  O         14.6410    1.2810   27.3620 O.2   249  TYR249     -0.2867
     90  CB        12.1680   -0.0380   28.8990 C.3   249  TYR249      0.0534
     91  CG        11.6930   -0.2390   30.3040 C.ar  249  TYR249     -0.0201
     92  CD1       12.4990    0.1060   31.3890 C.ar  249  TYR249     -0.0009
     93  CD2       10.4450   -0.7570   30.5580 C.ar  249  TYR249     -0.0009
     94  CE1       12.0630   -0.0770   32.6860 C.ar  249  TYR249      0.0417
     95  CE2        9.9950   -0.9450   31.8520 C.ar  249  TYR249      0.0417
     96  CZ        10.8050   -0.6000   32.9110 C.ar  249  TYR249      0.1957
     97  OH        10.3490   -0.7870   34.1990 O.3   249  TYR249     -0.2866
     98  N         10.9670   -7.3690   23.5790 N.3   266  ALA266     -0.1231
     99  CA        11.0620   -7.0890   25.0170 C.3   266  ALA266      0.1694
    100  C          9.7560   -7.3690   25.7080 C.2   266  ALA266      0.2592
    101  O          9.7080   -7.5170   26.9310 O.2   266  ALA266     -0.2718
    102  CB        11.4760   -5.6390   25.2630 C.3   266  ALA266      0.0304
    103  N          8.6830   -7.4140   24.9300 N.am  267  TYR267     -0.1962
    104  CA         7.3780   -7.7300   25.4800 C.3   267  TYR267      0.1771
    105  C          7.4360   -9.1490   26.0140 C.2   267  TYR267      0.2620
    106  O          6.7700   -9.4930   26.9830 O.2   267  TYR267     -0.2715
    107  CB         6.2600   -7.6040   24.4270 C.3   267  TYR267      0.0574
    108  CG         4.9030   -7.8250   25.0370 C.ar  267  TYR267     -0.0198
    109  CD1        4.3660   -9.1090   25.1770 C.ar  267  TYR267     -0.0009
    110  CD2        4.1750   -6.7590   25.5200 C.ar  267  TYR267     -0.0009
    111  CE1        3.1310   -9.2980   25.7910 C.ar  267  TYR267      0.0417
    112  CE2        2.9540   -6.9380   26.1160 C.ar  267  TYR267      0.0417
    113  CZ         2.4320   -8.1980   26.2470 C.ar  267  TYR267      0.1957
    114  OH         1.2120   -8.3240   26.8470 O.3   267  TYR267     -0.2866
    115  N          8.2350   -9.9640   25.3390 N.am  268  ASN268     -0.1958
    116  CA         8.3080  -11.3740   25.6210 C.3   268  ASN268      0.1819
    117  C          9.4840  -11.7100   26.5100 C.2   268  ASN268      0.2622
    118  O          9.3460  -12.5110   27.4090 O.2   268  ASN268     -0.2715
    119  CB         8.4160  -12.1840   24.3260 C.3   268  ASN268      0.1195
    120  CG         8.3580  -13.6790   24.5840 C.2   268  ASN268      0.2630
    121  OD1        7.2830  -14.2220   24.7690 O.2   268  ASN268     -0.2716
    122  ND2        9.5140  -14.3370   24.6420 N.am  268  ASN268     -0.0877
    123  N         10.6260  -11.0810   26.2470 N.am  269  GLY269     -0.1940
    124  CA        11.8540  -11.3960   26.9390 C.3   269  GLY269      0.2014
    125  C         12.3720  -10.3050   27.8670 C.2   269  GLY269      0.2639
    126  O         13.3780  -10.5060   28.5320 O.2   269  GLY269     -0.2714
    127  N         11.7060   -9.1510   27.9140 N.am  270  GLY270     -0.1939
    128  CA        12.1330   -8.0690   28.7910 C.3   270  GLY270      0.2014
    129  C         13.0990   -7.0800   28.1440 C.2   270  GLY270      0.2639
    130  O         13.9880   -7.4770   27.3810 O.2   270  GLY270     -0.2714
    131  N         12.9180   -5.7890   28.4400 N.am  271  ALA271     -0.1963
    132  CA        13.7810   -4.7360   27.8810 C.3   271  ALA271      0.1728
    133  C         15.2700   -4.9490   28.1720 C.2   271  ALA271      0.2617
    134  O         16.1110   -4.7830   27.2800 O.2   271  ALA271     -0.2715
    135  CB        13.3390   -3.3710   28.3930 C.3   271  ALA271      0.0334
    136  N         15.5950   -5.3000   29.4200 N.am  272  GLY272     -0.1940
    137  CA        16.9760   -5.5750   29.8050 C.3   272  GLY272      0.2014
    138  C         17.6320   -6.6610   28.9630 C.2   272  GLY272      0.2639
    139  O         18.7800   -6.5140   28.5190 O.2   272  GLY272     -0.2714
    140  N         16.9020   -7.7530   28.7370 N.am  273  SER273     -0.1949
    141  CA        17.3960   -8.8430   27.8990 C.3   273  SER273      0.1924
    142  C         17.6300   -8.3650   26.4510 C.2   273  SER273      0.2314
    143  O         18.6370   -8.7220   25.8240 O.2   273  SER273     -0.2863
    144  CB        16.4180  -10.0330   27.9330 C.3   273  SER273      0.2116
    145  OG        15.3770   -9.8620   26.9830 O.3   273  SER273     -0.2180
    146  N         20.7380   -6.0210   26.4600 N.3   276  ARG276     -0.1245
    147  CA        21.9440   -6.8140   26.6790 C.3   276  ARG276      0.1563
    148  C         22.3300   -7.7010   25.4890 C.2   276  ARG276      0.2260
    149  O         23.4040   -8.2800   25.4840 O.2   276  ARG276     -0.2867
    150  CB        21.7910   -7.6660   27.9380 C.3   276  ARG276      0.0307
    151  CG        22.0180   -6.8790   29.2220 C.3   276  ARG276      0.0489
    152  CD        21.9570   -7.7750   30.4340 C.3   276  ARG276      0.2205
    153  NE        20.6390   -8.3770   30.6380 N.pl3 276  ARG276     -0.0865
    154  CZ        19.6940   -7.8620   31.4260 C.cat 276  ARG276      0.5346
    155  NH1       19.9130   -6.7310   32.0880 N.pl3 276  ARG276      0.1354
    156  NH2       18.5230   -8.4730   31.5500 N.pl3 276  ARG276      0.1354
    157  N         23.5310   -0.0090   29.3940 N.3   282  LYS282     -0.1245
    158  CA        22.2340    0.2410   28.7670 C.3   282  LYS282      0.1561
    159  C         22.2670    1.3980   27.7740 C.2   282  LYS282      0.2260
    160  O         21.6300    1.3530   26.7170 O.2   282  LYS282     -0.2867
    161  CB        21.1860    0.5080   29.8400 C.3   282  LYS282      0.0271
    162  CG        20.3960   -0.7240   30.2080 C.3   282  LYS282      0.0035
    163  CD        19.0480   -0.3530   30.7800 C.3   282  LYS282      0.0206
    164  CE        19.0090   -0.6460   32.2550 C.3   282  LYS282      0.1093
    165  NZ        19.0820   -2.1290   32.4350 N.3   282  LYS282     -0.1314
@<TRIPOS>BOND
     1    98    99    1
     2   119   120    1
     3   119   116    1
     4   107   108    1
     5   107   104    1
     6   120   122   am
     7   120   121    2
     8   103   104    1
     9   103   100   am
    10    99   102    1
    11    99   100    1
    12   108   109   ar
    13   108   110   ar
    14   109   111   ar
    15   115   116    1
    16   115   105   am
    17   104   105    1
    18   149   148    2
    19   148   147    1
    20   110   112   ar
    21   116   117    1
    22   100   101    2
    23   111   113   ar
    24   143   142    2
    25   105   106    2
    26   112   113   ar
    27   123   117   am
    28   123   124    1
    29   113   114    1
    30   142   141    1
    31   146   147    1
    32   117   118    2
    33   147   150    1
    34   160   159    2
    35   124   125    1
    36   145   144    1
    37     6     5    1
    38     6     7    1
    39   134   133    2
    40    88    89    2
    41    88    87    1
    42   130   129    2
    43    77    76    2
    44    76    75    1
    45     5     2    1
    46     1     2    1
    47   159   158    1
    48   125   127   am
    49   125   126    2
    50   132   133    1
    51   132   135    1
    52   132   131    1
    53   141   144    1
    54   141   140    1
    55   127   128    1
    56   150   151    1
    57   129   131   am
    58   129   128    1
    59   133   136   am
    60     7     8    2
    61     7     9   am
    62     2     3    1
    63   139   138    2
    64    86    87    1
    65    87    90    1
    66   140   138   am
    67    74    75    1
    68   158   157    1
    69   158   161    1
    70    75    78    1
    71    90    91    1
    72   138   137    1
    73    81    83   ar
    74    81    79   ar
    75   151   152    1
    76    78    79    1
    77     4     3    2
    78     3    10   am
    79   136   137    1
    80    83    84   ar
    81    79    80   ar
    82   161   162    1
    83    16    14    1
    84   162   163    1
    85    91    93   ar
    86    91    92   ar
    87    10    11    1
    88   152   153    1
    89    84    85    1
    90    84    82   ar
    91    93    95   ar
    92   153   154    2
    93    80    82   ar
    94   163   164    1
    95    11    14    1
    96    11    12    1
    97    92    94   ar
    98   154   156    1
    99   154   155    1
   100    14    15    1
   101    95    96   ar
   102    45    42    1
   103   164   165    1
   104    12    17   am
   105    12    13    2
   106    94    96   ar
   107    17    18    1
   108    96    97    1
   109    23    21    1
   110    42    43    1
   111    42    41    1
   112    21    18    1
   113    21    22    1
   114    18    19    1
   115    43    44    2
   116    41    36   am
   117    62    60   ar
   118    39    38    1
   119    59    60    1
   120    59    56    1
   121    20    19    2
   122    38    40    1
   123    38    35    1
   124    60    61   ar
   125    36    37    2
   126    36    35    1
   127    57    58    2
   128    57    56    1
   129    56    55    1
   130    35    34    1
   131    55    48   am
   132    34    26   am
   133    46    47    1
   134    48    49    2
   135    48    47    1
   136    65    66    2
   137    65    64    1
   138    33    32   ar
   139    33    31   ar
   140    24    25    1
   141    26    27    2
   142    26    25    1
   143    47    50    1
   144    32    30   ar
   145    63    64    1
   146    31    29   ar
   147    67    64    1
   148    67    68    1
   149    25    28    1
   150    30    29   ar
   151    50    51    1
   152    29    28    1
   153    68    69    1
   154    51    52    1
   155    69    70    1
   156    52    53    1
   157    72    71    1
   158    70    71    2
   159    53    54    1
   160    71    73    1
