@<TRIPOS>MOLECULE
tmp/4cfpB01.pdb
 120 112 0 0 0
SMALL
GASTEIGER

@<TRIPOS>ATOM
      1  N         -1.0600  -21.7790   26.9560 N.3    30  PRO30      -0.2116
      2  CA        -1.5550  -20.5030   26.4130 C.3    30  PRO30       0.1372
      3  C         -2.4970  -20.7180   25.2250 C.2    30  PRO30       0.2244
      4  O         -3.4500  -19.9680   25.0510 O.2    30  PRO30      -0.2868
      5  CB        -0.2810  -19.7830   25.9690 C.3    30  PRO30       0.0268
      6  CG         0.8290  -20.4050   26.8630 C.3    30  PRO30       0.0207
      7  CD         0.4110  -21.8690   26.9660 C.3    30  PRO30       0.0892
      8  N          0.3840  -14.8250   21.3120 N.3   185  GLN185     -0.1245
      9  CA         0.5680  -15.2520   22.6960 C.3   185  GLN185      0.1566
     10  C         -0.4660  -16.2840   23.1440 C.2   185  GLN185      0.2260
     11  O         -0.1260  -17.2900   23.7700 O.2   185  GLN185     -0.2867
     12  CB         0.5460  -14.0340   23.6330 C.3   185  GLN185      0.0367
     13  CG         1.8220  -13.1880   23.6010 C.3   185  GLN185      0.0905
     14  CD         3.0290  -13.9180   24.2090 C.2   185  GLN185      0.2608
     15  OE1        2.9190  -15.0470   24.6790 O.2   185  GLN185     -0.2717
     16  NE2        4.1720  -13.2630   24.2160 N.am  185  GLN185     -0.0878
     17  N          0.3220  -19.8190   31.1560 N.3   194  SER194     -0.1202
     18  CA         1.6310  -20.3670   30.8210 C.3   194  SER194      0.2020
     19  C          2.1910  -21.1780   31.9820 C.2   194  SER194      0.2619
     20  O          1.6640  -21.1550   33.0840 O.2   194  SER194     -0.2717
     21  CB         2.6180  -19.2540   30.4480 C.3   194  SER194      0.2103
     22  OG         3.2660  -18.7220   31.6000 O.3   194  SER194     -0.2182
     23  N          3.2640  -21.9010   31.7170 N.am  195  ARG195     -0.1965
     24  CA         3.9480  -22.6090   32.7760 C.3   195  ARG195      0.1729
     25  C          4.6600  -21.6090   33.7040 C.2   195  ARG195      0.2616
     26  O          5.0970  -21.9710   34.7840 O.2   195  ARG195     -0.2715
     27  CB         4.9520  -23.5950   32.1850 C.3   195  ARG195      0.0348
     28  CG         6.1050  -22.8800   31.4870 C.3   195  ARG195      0.0492
     29  CD         7.0400  -23.8610   30.8230 C.3   195  ARG195      0.2205
     30  NE         8.2110  -23.2080   30.2520 N.pl3 195  ARG195     -0.0865
     31  CZ         8.3440  -22.9170   28.9690 C.cat 195  ARG195      0.5346
     32  NH1        7.3660  -23.2180   28.1200 N.pl3 195  ARG195      0.1354
     33  NH2        9.4520  -22.3260   28.5380 N.pl3 195  ARG195      0.1354
     34  N          4.7970  -20.3550   33.2720 N.am  196  SER196     -0.1950
     35  CA         5.4330  -19.3430   34.1160 C.3   196  SER196      0.1924
     36  C          4.4130  -18.3430   34.6390 C.2   196  SER196      0.2314
     37  O          4.7630  -17.2200   34.9980 O.2   196  SER196     -0.2863
     38  CB         6.5520  -18.6300   33.3590 C.3   196  SER196      0.2116
     39  OG         7.5110  -19.5660   32.8900 O.3   196  SER196     -0.2180
     40  N          2.1150  -16.6650   33.1210 N.3   198  ALA198     -0.1245
     41  CA         1.6050  -15.5930   32.2610 C.3   198  ALA198      0.1562
     42  C          0.1130  -15.8390   32.0290 C.2   198  ALA198      0.2260
     43  O         -0.2850  -16.9460   31.7060 O.2   198  ALA198     -0.2867
     44  CB         2.3680  -15.5190   30.9440 C.3   198  ALA198      0.0290
     45  N         -3.2420  -11.6460   26.5510 N.3   202  MET202     -0.1230
     46  CA        -1.9690  -11.0020   26.1940 C.3   202  MET202      0.1702
     47  C         -0.8380  -11.5700   27.0200 C.2   202  MET202      0.2592
     48  O          0.2610  -11.0190   27.0590 O.2   202  MET202     -0.2718
     49  CB        -2.0560   -9.4670   26.3900 C.3   202  MET202      0.0401
     50  CG        -2.9440   -8.8090   25.2800 C.3   202  MET202      0.0596
     51  SD        -2.6280   -7.0700   24.9640 S.3   202  MET202     -0.1393
     52  CE        -1.0500   -7.0980   24.1380 C.3   202  MET202      0.0692
     53  N         -1.1590  -12.6690   27.7000 N.am  203  GLN203     -0.1979
     54  CA        -0.2280  -13.4160   28.5150 C.3   203  GLN203      0.1601
     55  C          0.6110  -12.5210   29.4190 C.2   203  GLN203      0.2287
     56  O          1.8240  -12.4450   29.2850 O.2   203  GLN203     -0.2864
     57  CB         0.6470  -14.2620   27.6120 C.3   203  GLN203      0.0394
     58  CG        -0.0780  -15.5170   27.1300 C.3   203  GLN203      0.0908
     59  CD        -0.2910  -16.5050   28.2520 C.2   203  GLN203      0.2608
     60  OE1        0.6000  -17.2760   28.5650 O.2   203  GLN203     -0.2717
     61  NE2       -1.4580  -16.4720   28.8740 N.am  203  GLN203     -0.0878
     62  N          2.2700  -11.3720   32.9030 N.3   205  VAL205     -0.1245
     63  CA         2.7660  -11.8480   34.1980 C.3   205  VAL205      0.1561
     64  C          2.5610  -10.7880   35.2830 C.2   205  VAL205      0.2260
     65  O          2.9500   -9.6210   35.1200 O.2   205  VAL205     -0.2867
     66  CB         4.2600  -12.2140   34.1480 C.3   205  VAL205      0.0252
     67  CG1        4.7140  -12.7840   35.5220 C.3   205  VAL205      0.0019
     68  CG2        4.5220  -13.2000   33.0200 C.3   205  VAL205      0.0019
     69  N          5.8580   -8.8800   37.1330 N.3   208  THR208     -0.1218
     70  CA         6.7970   -8.1260   36.2970 C.3   208  THR208      0.1862
     71  C          6.0550   -7.0220   35.5230 C.2   208  THR208      0.2287
     72  O          5.9250   -5.9210   36.0280 O.2   208  THR208     -0.2866
     73  CB         7.5550   -9.0470   35.3250 C.3   208  THR208      0.1770
     74  OG1        6.6110   -9.7900   34.5480 O.3   208  THR208     -0.2211
     75  CG2        8.4660  -10.0320   36.1180 C.3   208  THR208      0.0375
     76  N          8.6830   -7.4140   24.9300 N.3   267  TYR267     -0.1227
     77  CA         7.3780   -7.7300   25.4800 C.3   267  TYR267      0.1736
     78  C          7.4360   -9.1490   26.0140 C.2   267  TYR267      0.2595
     79  O          6.7700   -9.4930   26.9830 O.2   267  TYR267     -0.2718
     80  CB         6.2600   -7.6040   24.4270 C.3   267  TYR267      0.0548
     81  CG         4.9030   -7.8250   25.0370 C.ar  267  TYR267     -0.0200
     82  CD1        4.3660   -9.1090   25.1770 C.ar  267  TYR267     -0.0009
     83  CD2        4.1750   -6.7590   25.5200 C.ar  267  TYR267     -0.0009
     84  CE1        3.1310   -9.2980   25.7910 C.ar  267  TYR267      0.0417
     85  CE2        2.9540   -6.9380   26.1160 C.ar  267  TYR267      0.0417
     86  CZ         2.4320   -8.1980   26.2470 C.ar  267  TYR267      0.1957
     87  OH         1.2120   -8.3240   26.8470 O.3   267  TYR267     -0.2866
     88  N          8.2350   -9.9640   25.3390 N.am  268  ASN268     -0.1960
     89  CA         8.3080  -11.3740   25.6210 C.3   268  ASN268      0.1819
     90  C          9.4840  -11.7100   26.5100 C.2   268  ASN268      0.2621
     91  O          9.3460  -12.5110   27.4090 O.2   268  ASN268     -0.2715
     92  CB         8.4160  -12.1840   24.3260 C.3   268  ASN268      0.1195
     93  CG         8.3580  -13.6790   24.5840 C.2   268  ASN268      0.2630
     94  OD1        7.2830  -14.2220   24.7690 O.2   268  ASN268     -0.2716
     95  ND2        9.5140  -14.3370   24.6420 N.am  268  ASN268     -0.0877
     96  N         10.6260  -11.0810   26.2470 N.am  269  GLY269     -0.1954
     97  CA        11.8540  -11.3960   26.9390 C.3   269  GLY269      0.1869
     98  C         12.3720  -10.3050   27.8670 C.2   269  GLY269      0.2309
     99  O         13.3780  -10.5060   28.5320 O.2   269  GLY269     -0.2863
    100  N         17.2980  -16.2350   24.0990 N.3   307  SER307     -0.1217
    101  CA        16.1150  -17.0560   24.3630 C.3   307  SER307      0.1889
    102  C         15.4820  -17.5580   23.0650 C.2   307  SER307      0.2288
    103  O         15.0740  -16.7620   22.2220 O.2   307  SER307     -0.2866
    104  CB        15.1040  -16.2570   25.1880 C.3   307  SER307      0.2089
    105  OG        13.8520  -16.9090   25.2780 O.3   307  SER307     -0.2183
    106  N         12.7140  -18.8730   22.6530 N.3   309  GLU309     -0.1231
    107  CA        11.3210  -18.4690   22.7300 C.3   309  GLU309      0.1699
    108  C         11.1050  -17.0360   22.2020 C.2   309  GLU309      0.2592
    109  O         10.1780  -16.7900   21.4420 O.2   309  GLU309     -0.2718
    110  CB        10.8480  -18.5990   24.1790 C.3   309  GLU309      0.0402
    111  CG         9.3960  -18.2800   24.4210 C.3   309  GLU309      0.1161
    112  CD         9.1040  -18.1130   25.9010 C.2   309  GLU309      0.3649
    113  OE1        8.9130  -19.1280   26.6000 O.co2 309  GLU309     -0.2457
    114  OE2        9.0810  -16.9600   26.3650 O.co2 309  GLU309     -0.2457
    115  N         11.9660  -16.1040   22.6060 N.am  310  SER310     -0.1952
    116  CA        11.8780  -14.7120   22.1450 C.3   310  SER310      0.1924
    117  C         12.2680  -14.5710   20.6900 C.2   310  SER310      0.2314
    118  O         11.6980  -13.7560   19.9570 O.2   310  SER310     -0.2863
    119  CB        12.7580  -13.8020   23.0060 C.3   310  SER310      0.2116
    120  OG        12.1230  -13.5540   24.2500 O.3   310  SER310     -0.2180
@<TRIPOS>BOND
     1   118   117    2
     2   117   116    1
     3     8     9    1
     4   109   108    2
     5   116   115    1
     6   116   119    1
     7   108   115   am
     8   108   107    1
     9   103   102    2
    10   106   107    1
    11     9    10    1
    12     9    12    1
    13   107   110    1
    14   119   120    1
    15   102   101    1
    16    10    11    2
    17    13    12    1
    18    13    14    1
    19   100   101    1
    20    52    51    1
    21   110   111    1
    22    14    16   am
    23    14    15    2
    24    92    93    1
    25    92    89    1
    26   101   104    1
    27   111   112    1
    28    80    81    1
    29    80    77    1
    30    93    95   am
    31    93    94    2
    32    76    77    1
    33    51    50    1
    34    81    82   ar
    35    81    83   ar
    36     4     3    2
    37    82    84   ar
    38   104   105    1
    39     3     2    1
    40    50    49    1
    41    88    89    1
    42    88    78   am
    43    77    78    1
    44    83    85   ar
    45    89    90    1
    46    84    86   ar
    47   112   114   ar
    48   112   113   ar
    49     5     2    1
    50     5     6    1
    51    78    79    2
    52    85    86   ar
    53    46    49    1
    54    46    45    1
    55    46    47    1
    56    86    87    1
    57    96    90   am
    58    96    97    1
    59     2     1    1
    60    90    91    2
    61     6     7    1
    62    97    98    1
    63     1     7    1
    64    47    48    2
    65    47    53   am
    66    58    57    1
    67    58    59    1
    68    57    54    1
    69    53    54    1
    70    98    99    2
    71    32    31    1
    72    59    60    2
    73    59    61   am
    74    54    55    1
    75    33    31    1
    76    31    30    2
    77    56    55    2
    78    30    29    1
    79    21    18    1
    80    21    22    1
    81    18    17    1
    82    18    19    1
    83    29    28    1
    84    44    41    1
    85    28    27    1
    86    43    42    2
    87    23    19   am
    88    23    24    1
    89    19    20    2
    90    42    41    1
    91    27    24    1
    92    41    40    1
    93    24    25    1
    94    39    38    1
    95    62    63    1
    96    68    66    1
    97    34    25   am
    98    34    35    1
    99    38    35    1
   100    25    26    2
   101    35    36    1
   102    66    63    1
   103    66    67    1
   104    63    64    1
   105    74    73    1
   106    36    37    2
   107    65    64    2
   108    73    75    1
   109    73    70    1
   110    71    72    2
   111    71    70    1
   112    70    69    1
