@<TRIPOS>MOLECULE
tmp/4cftA02.pdb
 136 133 0 0 0
SMALL
GASTEIGER

@<TRIPOS>ATOM
      1  N         17.2730   11.6040   45.9090 N.3    40  VAL40      -0.1231
      2  CA        17.0010   11.7420   44.4780 C.3    40  VAL40       0.1692
      3  C         18.1500   11.2110   43.6060 C.2    40  VAL40       0.2591
      4  O         17.9220   10.3970   42.7070 O.2    40  VAL40      -0.2718
      5  CB        16.7100   13.2140   44.1090 C.3    40  VAL40       0.0266
      6  CG1       16.5550   13.3770   42.5900 C.3    40  VAL40       0.0020
      7  CG2       15.4650   13.7040   44.8420 C.3    40  VAL40       0.0020
      8  N         19.3710   11.6910   43.8620 N.am   41  LEU41      -0.1980
      9  CA        20.5460   11.2540   43.1050 C.3    41  LEU41       0.1596
     10  C         21.5500   10.7260   44.1090 C.2    41  LEU41       0.2287
     11  O         22.4800   11.4430   44.4750 O.2    41  LEU41      -0.2864
     12  CB        21.1950   12.4040   42.3270 C.3    41  LEU41       0.0297
     13  CG        20.4070   13.4510   41.5310 C.3    41  LEU41       0.0022
     14  CD1       21.3070   14.6350   41.1980 C.3    41  LEU41       0.0001
     15  CD2       19.8000   12.8690   40.2630 C.3    41  LEU41       0.0001
     16  N          9.0040    5.1760   37.1450 N.3   109  CYS109     -0.1235
     17  CA         7.9790    5.4610   36.1380 C.3   109  CYS109      0.1677
     18  C          6.6430    4.8050   36.4460 C.2   109  CYS109      0.2270
     19  O          6.5120    3.5400   36.4590 O.2   109  CYS109     -0.2867
     20  CB         8.4520    5.0450   34.7290 C.3   109  CYS109      0.0956
     21  SG         7.1820    5.3610   33.4660 S.3   109  CYS109     -0.0801
     22  N         15.0340   18.7430   28.7420 N.3   172  GLN172     -0.1245
     23  CA        13.8850   18.2780   27.9420 C.3   172  GLN172      0.1566
     24  C         13.8910   18.9790   26.5810 C.2   172  GLN172      0.2260
     25  O         14.4900   20.0430   26.4520 O.2   172  GLN172     -0.2867
     26  CB        12.5620   18.5760   28.6290 C.3   172  GLN172      0.0367
     27  CG        12.2990   17.7870   29.8930 C.3   172  GLN172      0.0905
     28  CD        10.9110   18.0560   30.4700 C.2   172  GLN172      0.2608
     29  OE1        9.9300   18.3060   29.7380 O.2   172  GLN172     -0.2717
     30  NE2       10.8180   17.9800   31.7840 N.am  172  GLN172     -0.0878
     31  N          6.0450   15.7680   27.0620 N.3   259  PRO259     -0.2116
     32  CA         7.1580   15.6370   28.0170 C.3   259  PRO259      0.1372
     33  C          8.2360   14.7680   27.3570 C.2   259  PRO259      0.2244
     34  O          8.0530   13.5550   27.1850 O.2   259  PRO259     -0.2868
     35  CB         6.5150   14.9090   29.2140 C.3   259  PRO259      0.0268
     36  CG         5.3740   14.1350   28.6170 C.3   259  PRO259      0.0207
     37  CD         4.9270   14.8530   27.3590 C.3   259  PRO259      0.0892
     38  N         12.0160   13.8630   27.6040 N.3   261  VAL261     -0.1245
     39  CA        13.2190   13.9360   28.4160 C.3   261  VAL261      0.1561
     40  C         14.4590   13.6440   27.5760 C.2   261  VAL261      0.2260
     41  O         14.5150   12.6080   26.9010 O.2   261  VAL261     -0.2867
     42  CB        13.1370   12.9080   29.5560 C.3   261  VAL261      0.0252
     43  CG1       14.4950   12.7580   30.2240 C.3   261  VAL261      0.0019
     44  CG2       12.0970   13.3870   30.5540 C.3   261  VAL261      0.0019
     45  N         19.0340   11.9460   29.7630 N.3   264  MET264     -0.1245
     46  CA        19.3150   10.6360   30.3730 C.3   264  MET264      0.1570
     47  C         20.1380    9.7320   29.4630 C.2   264  MET264      0.2261
     48  O         20.1500    9.8860   28.2360 O.2   264  MET264     -0.2867
     49  CB        18.0230    9.9590   30.8260 C.3   264  MET264      0.0387
     50  CG        17.3430   10.7150   31.9670 C.3   264  MET264      0.0595
     51  SD        15.9760    9.7950   32.7040 S.3   264  MET264     -0.1393
     52  CE        16.8490    8.6590   33.7960 C.3   264  MET264      0.0692
     53  N         13.4960   10.5940   24.8360 N.3   278  PHE278     -0.1241
     54  CA        12.2780    9.7990   24.7830 C.3   278  PHE278      0.1605
     55  C         11.1030   10.6370   25.2770 C.2   278  PHE278      0.2264
     56  O         11.2950   11.5930   26.0270 O.2   278  PHE278     -0.2867
     57  CB        12.4220    8.5320   25.6330 C.3   278  PHE278      0.0534
     58  CG        12.7740    8.7910   27.0920 C.ar  278  PHE278     -0.0203
     59  CD1       11.7800    9.0760   28.0320 C.ar  278  PHE278     -0.0042
     60  CD2       14.0930    8.7020   27.5260 C.ar  278  PHE278     -0.0042
     61  CE1       12.0870    9.2900   29.3790 C.ar  278  PHE278     -0.0003
     62  CE2       14.4200    8.9120   28.8760 C.ar  278  PHE278     -0.0003
     63  CZ        13.4070    9.2050   29.7980 C.ar  278  PHE278     -0.0000
     64  N          6.6300   10.5440   26.3630 N.3   280  GLY280     -0.1210
     65  CA         5.3370    9.9010   26.5610 C.3   280  GLY280      0.1956
     66  C          4.2310   10.9410   26.4550 C.2   280  GLY280      0.2612
     67  O          4.1810   11.7360   25.4970 O.2   280  GLY280     -0.2717
     68  N          3.3250   10.9160   27.4240 N.am  281  TRP281     -0.1962
     69  CA         2.3580   11.9920   27.6600 C.3   281  TRP281      0.1771
     70  C          2.4050   12.2850   29.1530 C.2   281  TRP281      0.2620
     71  O          2.9230   11.4830   29.9340 O.2   281  TRP281     -0.2715
     72  CB         0.9440   11.6130   27.1970 C.3   281  TRP281      0.0590
     73  CG         0.4170   10.3060   27.6740 C.ar  281  TRP281      0.0006
     74  CD1       -0.1840   10.0300   28.8880 C.ar  281  TRP281      0.0946
     75  CD2        0.4050    9.0860   26.9260 C.ar  281  TRP281      0.0152
     76  NE1       -0.5620    8.6940   28.9290 N.ar  281  TRP281     -0.2442
     77  CE2       -0.2120    8.1010   27.7350 C.ar  281  TRP281      0.0810
     78  CE3        0.8770    8.7280   25.6460 C.ar  281  TRP281      0.0012
     79  CZ2       -0.3670    6.7780   27.3110 C.ar  281  TRP281      0.0191
     80  CZ3        0.7120    7.3880   25.2190 C.ar  281  TRP281      0.0001
     81  CH2        0.0890    6.4450   26.0530 C.ar  281  TRP281      0.0015
     82  N          1.8990   13.4480   29.5450 N.am  282  TYR282     -0.1960
     83  CA         1.9390   13.8800   30.9340 C.3   282  TYR282      0.1771
     84  C          0.9040   13.1880   31.8180 C.2   282  TYR282      0.2619
     85  O         -0.1820   12.8400   31.3590 O.2   282  TYR282     -0.2715
     86  CB         1.6960   15.4000   30.9730 C.3   282  TYR282      0.0574
     87  CG         2.9470   16.2410   30.9880 C.ar  282  TYR282     -0.0198
     88  CD1        3.8140   16.1990   32.0830 C.ar  282  TYR282     -0.0009
     89  CD2        3.2550   17.1140   29.9220 C.ar  282  TYR282     -0.0009
     90  CE1        4.9560   16.9860   32.1430 C.ar  282  TYR282      0.0417
     91  CE2        4.3910   17.9210   29.9710 C.ar  282  TYR282      0.0417
     92  CZ         5.2330   17.8620   31.0730 C.ar  282  TYR282      0.1957
     93  OH         6.3620   18.6360   31.1370 O.3   282  TYR282     -0.2866
     94  N          1.2780   12.9680   33.0850 N.am  283  MET283     -0.1977
     95  CA         0.3130   12.7730   34.1600 C.3   283  MET283      0.1605
     96  C          0.0780   14.1790   34.7540 C.2   283  MET283      0.2287
     97  O          0.9990   14.9800   34.8920 O.2   283  MET283     -0.2864
     98  CB         0.8310   11.7710   35.2140 C.3   283  MET283      0.0413
     99  CG        -0.1200   11.5540   36.3960 C.3   283  MET283      0.0598
    100  SD         0.4520   10.1820   37.4230 S.3   283  MET283     -0.1393
    101  CE         1.6370   11.0530   38.4640 C.3   283  MET283      0.0692
    102  N          2.1440   16.2460   37.4010 N.3   286  GLU286     -0.1245
    103  CA         3.4770   16.7480   37.0470 C.3   286  GLU286      0.1567
    104  C          3.3760   18.2350   36.7120 C.2   286  GLU286      0.2260
    105  O          4.2390   19.0350   37.1130 O.2   286  GLU286     -0.2867
    106  CB         4.0700   16.0160   35.8320 C.3   286  GLU286      0.0388
    107  CG         4.3290   14.5330   36.0340 C.3   286  GLU286      0.1160
    108  CD         4.8100   13.9210   34.7220 C.2   286  GLU286      0.3649
    109  OE1        6.0300   14.0120   34.4230 O.co2 286  GLU286     -0.2457
    110  OE2        3.9620   13.3750   33.9840 O.co2 286  GLU286     -0.2457
    111  N          8.4530    7.9120   44.4070 N.3   371  TRP371     -0.1241
    112  CA         8.1910    8.4920   43.0740 C.3   371  TRP371      0.1605
    113  C          6.8800    8.0500   42.4340 C.2   371  TRP371      0.2264
    114  O          6.2950    8.7720   41.6210 O.2   371  TRP371     -0.2867
    115  CB         9.3510    8.1760   42.0970 C.3   371  TRP371      0.0550
    116  CG        10.4970    9.0900   42.2610 C.ar  371  TRP371      0.0003
    117  CD1       11.2970    9.2310   43.3620 C.ar  371  TRP371      0.0946
    118  CD2       10.9810   10.0250   41.2890 C.ar  371  TRP371      0.0152
    119  NE1       12.2420   10.2100   43.1340 N.ar  371  TRP371     -0.2442
    120  CE2       12.0750   10.7040   41.8670 C.ar  371  TRP371      0.0810
    121  CE3       10.6080   10.3330   39.9760 C.ar  371  TRP371      0.0012
    122  CZ2       12.7930   11.7030   41.1830 C.ar  371  TRP371      0.0191
    123  CZ3       11.3270   11.3470   39.2830 C.ar  371  TRP371      0.0001
    124  CH2       12.4070   12.0030   39.8960 C.ar  371  TRP371      0.0015
    125  N         20.9750    8.4150   35.1240 N.3   399  TYR399     -0.1241
    126  CA        21.4200    9.8030   35.1280 C.3   399  TYR399      0.1605
    127  C         22.8510    9.8880   34.6080 C.2   399  TYR399      0.2264
    128  O         23.6040    8.9370   34.7190 O.2   399  TYR399     -0.2867
    129  CB        21.3580   10.3690   36.5490 C.3   399  TYR399      0.0534
    130  CG        19.9570   10.4820   37.1180 C.ar  399  TYR399     -0.0201
    131  CD1       18.9290   11.0790   36.3880 C.ar  399  TYR399     -0.0009
    132  CD2       19.6720   10.0220   38.4060 C.ar  399  TYR399     -0.0009
    133  CE1       17.6490   11.2040   36.9190 C.ar  399  TYR399      0.0417
    134  CE2       18.4010   10.1460   38.9480 C.ar  399  TYR399      0.0417
    135  CZ        17.3950   10.7420   38.2020 C.ar  399  TYR399      0.1957
    136  OH        16.1370   10.8720   38.7400 O.3   399  TYR399     -0.2866
@<TRIPOS>BOND
     1    54    53    1
     2    54    55    1
     3    54    57    1
     4    80    78   ar
     5    80    81   ar
     6    55    56    2
     7    67    66    2
     8    57    58    1
     9    78    75   ar
    10    81    79   ar
    11    64    65    1
    12    25    24    2
    13    66    65    1
    14    66    68   am
    15    24    23    1
    16    41    40    2
    17    75    73   ar
    18    75    77   ar
    19    31    37    1
    20    31    32    1
    21    58    60   ar
    22    58    59   ar
    23    34    33    2
    24    72    69    1
    25    72    73    1
    26    79    77   ar
    27    33    32    1
    28    37    36    1
    29    68    69    1
    30    60    62   ar
    31    40    39    1
    32    38    39    1
    33    69    70    1
    34    73    74   ar
    35    77    76   ar
    36    23    26    1
    37    23    22    1
    38    32    35    1
    39    59    61   ar
    40    48    47    2
    41    39    42    1
    42    36    35    1
    43    26    27    1
    44    62    63   ar
    45    74    76   ar
    46    70    82   am
    47    70    71    2
    48    61    63   ar
    49    47    46    1
    50    82    83    1
    51    42    43    1
    52    42    44    1
    53    29    28    2
    54    45    46    1
    55    27    28    1
    56    89    91   ar
    57    89    87   ar
    58    91    92   ar
    59    46    49    1
    60    28    30   am
    61    49    50    1
    62    83    86    1
    63    83    84    1
    64    86    87    1
    65    87    88   ar
    66    92    93    1
    67    92    90   ar
    68    85    84    2
    69    84    94   am
    70    50    51    1
    71    88    90   ar
    72    51    52    1
    73    94    95    1
    74    21    20    1
    75   110   108   ar
    76    95    96    1
    77    95    98    1
    78   109   108   ar
    79   127   128    2
    80   127   126    1
    81   108   107    1
    82    20    17    1
    83    96    97    2
    84   125   126    1
    85   126   129    1
    86    98    99    1
    87   106   107    1
    88   106   103    1
    89    17    18    1
    90    17    16    1
    91   131   133   ar
    92   131   130   ar
    93    99   100    1
    94    18    19    2
    95   129   130    1
    96   104   103    1
    97   104   105    2
    98   133   135   ar
    99   103   102    1
   100   130   132   ar
   101   100   101    1
   102   135   136    1
   103   135   134   ar
   104   132   134   ar
   105   123   124   ar
   106   123   121   ar
   107   124   122   ar
   108   121   118   ar
   109    15    13    1
   110   122   120   ar
   111    14    13    1
   112   118   120   ar
   113   118   116   ar
   114    13    12    1
   115   114   113    2
   116   120   119   ar
   117   115   116    1
   118   115   112    1
   119   116   117   ar
   120    12     9    1
   121   113   112    1
   122     6     5    1
   123     4     3    2
   124   112   111    1
   125     9     8    1
   126     9    10    1
   127   119   117   ar
   128     3     8   am
   129     3     2    1
   130    10    11    2
   131     5     2    1
   132     5     7    1
   133     2     1    1
