@<TRIPOS>MOLECULE
tmp/4cfuA00.pdb
 171 163 0 0 0
SMALL
GASTEIGER

@<TRIPOS>ATOM
      1  N         -4.9420   19.3960  -34.8210 N.3    12  GLU12      -0.1245
      2  CA        -3.5600   19.6240  -34.4060 C.3    12  GLU12       0.1567
      3  C         -3.3770   19.2340  -32.9640 C.2    12  GLU12       0.2260
      4  O         -4.3500   19.1130  -32.2140 O.2    12  GLU12      -0.2867
      5  CB        -3.1460   21.0790  -34.6060 C.3    12  GLU12       0.0388
      6  CG        -3.7920   22.0230  -33.6130 C.3    12  GLU12       0.1160
      7  CD        -3.6600   23.4930  -34.0000 C.2    12  GLU12       0.3649
      8  OE1       -3.3560   23.8400  -35.1350 O.co2  12  GLU12      -0.2457
      9  OE2       -3.9200   24.3400  -33.1510 O.co2  12  GLU12      -0.2457
     10  N         -2.4990   20.1150  -29.2670 N.3    14  ILE14      -0.1231
     11  CA        -2.5900   21.3380  -28.5150 C.3    14  ILE14       0.1692
     12  C         -1.9400   21.2940  -27.1890 C.2    14  ILE14       0.2593
     13  O         -1.8140   22.3080  -26.5560 O.2    14  ILE14      -0.2718
     14  CB        -4.0370   21.8410  -28.2150 C.3    14  ILE14       0.0266
     15  CG1       -4.9870   20.7460  -27.7820 C.3    14  ILE14       0.0019
     16  CG2       -4.5920   22.4640  -29.4730 C.3    14  ILE14       0.0020
     17  CD1       -6.3990   21.2510  -27.4210 C.3    14  ILE14       0.0001
     18  N         -1.5310   20.1360  -26.7400 N.am   15  GLY15      -0.1942
     19  CA        -1.0890   19.9480  -25.3550 C.3    15  GLY15       0.2014
     20  C         -0.4480   18.5770  -25.1540 C.2    15  GLY15       0.2638
     21  O         -0.6170   17.6360  -25.9700 O.2    15  GLY15      -0.2714
     22  N          0.2870   18.4500  -24.0740 N.am   16  GLU16      -0.1977
     23  CA         0.8550   17.1560  -23.6970 C.3    16  GLU16       0.1602
     24  C          0.9410   17.1370  -22.1890 C.2    16  GLU16       0.2287
     25  O          0.5760   18.0910  -21.4870 O.2    16  GLU16      -0.2864
     26  CB         2.2260   16.9340  -24.2900 C.3    16  GLU16       0.0415
     27  CG         2.4920   15.4700  -24.6630 C.3    16  GLU16       0.1163
     28  CD         3.9590   15.0110  -24.5050 C.2    16  GLU16       0.3649
     29  OE1        4.5930   15.3100  -23.4320 O.co2  16  GLU16      -0.2457
     30  OE2        4.4760   14.3430  -25.4290 O.co2  16  GLU16      -0.2457
     31  N         -3.0400   15.8380  -25.8770 N.3    22  VAL22      -0.1245
     32  CA        -4.2790   16.4990  -26.1690 C.3    22  VAL22       0.1561
     33  C         -4.2400   17.0070  -27.5800 C.2    22  VAL22       0.2260
     34  O         -3.3110   17.7340  -27.9090 O.2    22  VAL22      -0.2867
     35  CB        -4.4830   17.6180  -25.1750 C.3    22  VAL22       0.0252
     36  CG1       -5.9020   18.1350  -25.1960 C.3    22  VAL22       0.0019
     37  CG2       -4.1870   17.0900  -23.7850 C.3    22  VAL22       0.0019
     38  N        -11.5490   19.0800  -27.7160 N.3    35  ALA35      -0.1245
     39  CA       -10.2650   18.6840  -27.2660 C.3    35  ALA35       0.1562
     40  C        -10.3420   17.2270  -26.8970 C.2    35  ALA35       0.2260
     41  O        -11.1660   16.8620  -26.0880 O.2    35  ALA35      -0.2867
     42  CB        -9.8310   19.4950  -26.0560 C.3    35  ALA35       0.0290
     43  N         -8.2870   14.2030  -25.2170 N.3    37  LYS37      -0.1245
     44  CA        -7.1660   13.8460  -24.3780 C.3    37  LYS37       0.1561
     45  C         -7.0410   12.3450  -24.4470 C.2    37  LYS37       0.2260
     46  O         -7.9590   11.6110  -24.0570 O.2    37  LYS37      -0.2867
     47  CB        -7.4950   14.3120  -22.9870 C.3    37  LYS37       0.0271
     48  CG        -6.5940   13.7760  -21.9330 C.3    37  LYS37       0.0035
     49  CD        -6.8420   14.4520  -20.6000 C.3    37  LYS37       0.0206
     50  CE        -5.9630   13.7610  -19.5380 C.3    37  LYS37       0.1093
     51  NZ        -5.8890   14.6080  -18.3330 N.3    37  LYS37      -0.1314
     52  N        -14.7930   22.8500  -17.2630 N.3    66  VAL66      -0.1245
     53  CA       -14.6440   22.1900  -18.5590 C.3    66  VAL66       0.1561
     54  C        -15.5850   21.0080  -18.6800 C.2    66  VAL66       0.2260
     55  O        -15.6880   20.1090  -17.7760 O.2    66  VAL66      -0.2867
     56  CB       -13.1780   21.7860  -18.7520 C.3    66  VAL66       0.0252
     57  CG1      -12.8150   20.6020  -17.7950 C.3    66  VAL66       0.0019
     58  CG2      -12.9140   21.4900  -20.2120 C.3    66  VAL66       0.0019
     59  N        -13.5920   16.6010  -24.6680 N.3    82  PHE82      -0.1227
     60  CA       -13.9880   17.7890  -23.9650 C.3    82  PHE82       0.1736
     61  C        -14.4410   18.8790  -24.9520 C.2    82  PHE82       0.2595
     62  O        -13.9890   18.9020  -26.0910 O.2    82  PHE82      -0.2718
     63  CB       -12.8160   18.3780  -23.2100 C.3    82  PHE82       0.0547
     64  CG       -12.2660   17.5380  -22.0470 C.ar   82  PHE82      -0.0202
     65  CD1      -12.7740   17.6600  -20.7710 C.ar   82  PHE82      -0.0042
     66  CD2      -11.1910   16.7210  -22.2270 C.ar   82  PHE82      -0.0042
     67  CE1      -12.2040   16.9910  -19.6890 C.ar   82  PHE82      -0.0003
     68  CE2      -10.6420   16.0320  -21.1560 C.ar   82  PHE82      -0.0003
     69  CZ       -11.1600   16.1680  -19.8870 C.ar   82  PHE82      -0.0000
     70  N        -15.2570   19.8000  -24.5010 N.am   83  GLU83      -0.1965
     71  CA       -15.4740   21.0180  -25.2300 C.3    83  GLU83       0.1733
     72  C        -14.1320   21.6870  -25.4440 C.2    83  GLU83       0.2616
     73  O        -13.3300   21.6620  -24.5610 O.2    83  GLU83      -0.2715
     74  CB       -16.3580   21.9650  -24.4180 C.3    83  GLU83       0.0429
     75  CG       -15.6940   22.4330  -23.0700 C.3    83  GLU83       0.1163
     76  CD       -16.5010   23.4860  -22.3300 C.2    83  GLU83       0.3649
     77  OE1      -16.9600   24.4520  -22.9510 O.co2  83  GLU83      -0.2457
     78  OE2      -16.7480   23.3180  -21.1180 O.co2  83  GLU83      -0.2457
     79  N        -13.8840   22.2540  -26.6260 N.am   84  PHE84      -0.1960
     80  CA       -12.6560   22.9870  -26.9100 C.3    84  PHE84       0.1771
     81  C        -12.6380   24.3730  -26.3190 C.2    84  PHE84       0.2619
     82  O        -13.5520   25.1110  -26.4650 O.2    84  PHE84      -0.2715
     83  CB       -12.4780   23.1160  -28.4190 C.3    84  PHE84       0.0574
     84  CG       -11.2140   23.8580  -28.8440 C.ar   84  PHE84      -0.0200
     85  CD1       -9.9700   23.2390  -28.7520 C.ar   84  PHE84      -0.0042
     86  CD2      -11.2690   25.1350  -29.3670 C.ar   84  PHE84      -0.0042
     87  CE1       -8.8030   23.8920  -29.0930 C.ar   84  PHE84      -0.0003
     88  CE2      -10.1010   25.7910  -29.7650 C.ar   84  PHE84      -0.0003
     89  CZ        -8.8520   25.1720  -29.6110 C.ar   84  PHE84      -0.0000
     90  N        -11.5660   24.7380  -25.6480 N.am   85  LEU85      -0.1963
     91  CA       -11.3650   26.1410  -25.2620 C.3    85  LEU85       0.1728
     92  C        -10.0890   26.6470  -25.8860 C.2    85  LEU85       0.2616
     93  O         -9.2750   25.8420  -26.2370 O.2    85  LEU85      -0.2715
     94  CB       -11.3420   26.1830  -23.7780 C.3    85  LEU85       0.0311
     95  CG       -12.8010   25.9480  -23.3310 C.3    85  LEU85       0.0022
     96  CD1      -12.8730   24.8970  -22.2780 C.3    85  LEU85       0.0001
     97  CD2      -13.2790   27.2620  -22.7620 C.3    85  LEU85       0.0001
     98  N         -9.9670   27.9620  -26.0560 N.am   86  HIS86      -0.1959
     99  CA        -8.9480   28.5170  -26.9690 C.3    86  HIS86       0.1787
    100  C         -7.5880   28.6900  -26.4020 C.2    86  HIS86       0.2620
    101  O         -6.6520   28.6600  -27.1230 O.2    86  HIS86      -0.2715
    102  CB        -9.4280   29.8160  -27.6120 C.3    86  HIS86       0.0785
    103  CG       -10.7010   29.6070  -28.3570 C.ar   86  HIS86       0.0821
    104  ND1      -11.8910   29.3440  -27.7060 N.ar   86  HIS86      -0.2267
    105  CD2      -10.9650   29.5170  -29.6910 C.ar   86  HIS86       0.1154
    106  CE1      -12.8390   29.1180  -28.5930 C.ar   86  HIS86       0.1986
    107  NE2      -12.3080   29.2290  -29.8060 N.ar   86  HIS86      -0.2212
    108  N         -7.4390   28.8720  -25.1120 N.am   87  GLN87      -0.1963
    109  CA        -6.1670   29.2470  -24.5920 C.3    87  GLN87       0.1733
    110  C         -6.1920   28.9500  -23.0930 C.2    87  GLN87       0.2616
    111  O         -7.2310   28.8860  -22.5280 O.2    87  GLN87      -0.2715
    112  CB        -5.9960   30.7600  -24.8180 C.3    87  GLN87       0.0408
    113  CG        -4.5920   31.2520  -24.6570 C.3    87  GLN87       0.0908
    114  CD        -4.3360   32.6190  -25.2540 C.2    87  GLN87       0.2608
    115  OE1       -4.4730   33.6440  -24.5850 O.2    87  GLN87      -0.2717
    116  NE2       -3.9730   32.6460  -26.5090 N.am   87  GLN87      -0.0878
    117  N         -5.0340   28.8340  -22.4580 N.am   88  ASP88      -0.1971
    118  CA        -4.9510   28.8200  -21.0260 C.3    88  ASP88       0.1709
    119  C         -4.6420   30.2220  -20.4930 C.2    88  ASP88       0.2293
    120  O         -4.2110   31.0950  -21.2370 O.2    88  ASP88      -0.2864
    121  CB        -4.0110   27.7430  -20.5350 C.3    88  ASP88       0.1436
    122  CG        -2.6040   28.0140  -20.7930 C.2    88  ASP88       0.3671
    123  OD1       -2.0950   29.1020  -20.5430 O.co2  88  ASP88      -0.2456
    124  OD2       -1.9170   27.0730  -21.2570 O.co2  88  ASP88      -0.2456
    125  N         -0.9880   31.6220  -20.9410 N.3    91  LYS91      -0.1245
    126  CA        -0.6080   32.1740  -22.2380 C.3    91  LYS91       0.1561
    127  C         -1.3240   33.5060  -22.4760 C.2    91  LYS91       0.2260
    128  O         -0.7490   34.4160  -23.0570 O.2    91  LYS91      -0.2867
    129  CB        -0.7720   31.1510  -23.3820 C.3    91  LYS91       0.0271
    130  CG         0.0180   29.8610  -23.0830 C.3    91  LYS91       0.0035
    131  CD         0.8160   29.2440  -24.2300 C.3    91  LYS91       0.0206
    132  CE         1.4170   27.8820  -23.8410 C.3    91  LYS91       0.1093
    133  NZ         0.3400   26.9070  -23.4040 N.3    91  LYS91      -0.1314
    134  N         -2.2350   27.5910  -15.7540 N.3   133  GLN133     -0.1231
    135  CA        -2.1130   26.6490  -16.8500 C.3   133  GLN133      0.1698
    136  C         -3.3120   25.7100  -16.9290 C.2   133  GLN133      0.2592
    137  O         -3.5420   25.0840  -17.9810 O.2   133  GLN133     -0.2718
    138  CB        -0.8480   25.7910  -16.6780 C.3   133  GLN133      0.0381
    139  CG         0.5430   26.4870  -16.6210 C.3   133  GLN133      0.0905
    140  CD         0.8680   27.3500  -15.3390 C.2   133  GLN133      0.2608
    141  OE1        0.1500   27.4310  -14.3530 O.2   133  GLN133     -0.2717
    142  NE2        1.9700   28.0780  -15.4360 N.am  133  GLN133     -0.0878
    143  N         -4.0450   25.5770  -15.8330 N.am  134  ASN134     -0.1974
    144  CA        -5.2020   24.6980  -15.7590 C.3   134  ASN134      0.1688
    145  C         -6.5570   25.4480  -15.8680 C.2   134  ASN134      0.2292
    146  O         -7.5980   24.9020  -15.6080 O.2   134  ASN134     -0.2864
    147  CB        -5.1670   23.8880  -14.4130 C.3   134  ASN134      0.1181
    148  CG        -4.0960   22.8080  -14.4090 C.2   134  ASN134      0.2629
    149  OD1       -3.6400   22.3850  -15.4740 O.2   134  ASN134     -0.2716
    150  ND2       -3.7280   22.3070  -13.2380 N.am  134  ASN134     -0.0877
    151  N         -8.8860   27.5950  -18.4300 N.3   136  LEU136     -0.1245
    152  CA        -9.0110   27.7630  -19.8630 C.3   136  LEU136      0.1561
    153  C        -10.0450   28.8310  -20.2660 C.2   136  LEU136      0.2260
    154  O        -11.1230   28.9080  -19.6760 O.2   136  LEU136     -0.2867
    155  CB        -9.3720   26.4350  -20.5310 C.3   136  LEU136      0.0270
    156  CG        -8.4620   25.2750  -20.2380 C.3   136  LEU136      0.0019
    157  CD1       -9.0220   24.0300  -20.9120 C.3   136  LEU136      0.0001
    158  CD2       -7.0500   25.5230  -20.7560 C.3   136  LEU136      0.0001
    159  N        -10.1390   23.4080  -15.3110 N.3   146  ALA146     -0.1231
    160  CA        -9.8810   22.2270  -16.0850 C.3   146  ALA146      0.1694
    161  C         -8.7850   21.4230  -15.3540 C.2   146  ALA146      0.2592
    162  O         -8.3160   21.8190  -14.2840 O.2   146  ALA146     -0.2718
    163  CB        -9.4380   22.6300  -17.4720 C.3   146  ALA146      0.0304
    164  N         -8.3670   20.3190  -15.9810 N.am  147  ASP147     -0.1974
    165  CA        -7.4800   19.3490  -15.3400 C.3   147  ASP147      0.1709
    166  C         -7.8390   18.9090  -13.9140 C.2   147  ASP147      0.2293
    167  O         -7.2320   19.3100  -12.9570 O.2   147  ASP147     -0.2864
    168  CB        -6.0210   19.7960  -15.3440 C.3   147  ASP147      0.1436
    169  CG        -5.0500   18.5910  -15.2430 C.2   147  ASP147      0.3671
    170  OD1       -5.4770   17.3900  -15.0110 O.co2 147  ASP147     -0.2456
    171  OD2       -3.8390   18.8490  -15.4870 O.co2 147  ASP147     -0.2456
@<TRIPOS>BOND
     1     8     7   ar
     2     1     2    1
     3     5     2    1
     4     5     6    1
     5     2     3    1
     6     7     6    1
     7     7     9   ar
     8     3     4    2
     9   107   105   ar
    10   107   106   ar
    11    88    89   ar
    12    88    86   ar
    13   105   103   ar
    14    89    87   ar
    15    16    14    1
    16    86    84   ar
    17    10    11    1
    18    87    85   ar
    19    84    85   ar
    20    84    83    1
    21   106   104   ar
    22    11    14    1
    23    11    12    1
    24    83    80    1
    25   103   104   ar
    26   103   102    1
    27    14    15    1
    28    34    33    2
    29    15    17    1
    30    38    39    1
    31   102    99    1
    32    33    32    1
    33    39    40    1
    34    39    42    1
    35    12    18   am
    36    12    13    2
    37   101   100    2
    38    99   100    1
    39    99    98    1
    40    80    79    1
    41    80    81    1
    42    40    41    2
    43    18    19    1
    44    79    72   am
    45   116   114   am
    46    82    81    2
    47   100   108   am
    48    81    90   am
    49    93    92    2
    50    32    31    1
    51    32    35    1
    52    62    61    2
    53    98    92   am
    54    21    20    2
    55    92    91    1
    56    90    91    1
    57    72    71    1
    58    72    73    2
    59    30    28   ar
    60    19    20    1
    61    91    94    1
    62   114   113    1
    63   114   115    2
    64    71    70    1
    65    71    74    1
    66    43    44    1
    67    36    35    1
    68    35    37    1
    69    20    22   am
    70   108   109    1
    71    61    70   am
    72    61    60    1
    73   112   113    1
    74   112   109    1
    75    59    60    1
    76    27    28    1
    77    27    26    1
    78   109   110    1
    79    28    29   ar
    80    45    44    1
    81    45    46    2
    82    74    75    1
    83    44    47    1
    84    26    23    1
    85   131   132    1
    86   131   130    1
    87    22    23    1
    88    60    63    1
    89   132   133    1
    90    94    95    1
    91    23    24    1
    92   129   130    1
    93   129   126    1
    94    95    97    1
    95    95    96    1
    96    63    64    1
    97   110   111    2
    98   110   117   am
    99    75    76    1
   100   128   127    2
   101    47    48    1
   102    77    76   ar
   103   127   126    1
   104   117   118    1
   105    76    78   ar
   106   126   125    1
   107    66    64   ar
   108    66    68   ar
   109    24    25    2
   110    64    65   ar
   111    48    49    1
   112   124   122   ar
   113   120   119    2
   114    68    69   ar
   115   118   121    1
   116   118   119    1
   117   157   156    1
   118   122   123   ar
   119   122   121    1
   120    65    67   ar
   121   158   156    1
   122    49    50    1
   123   155   156    1
   124   155   152    1
   125   153   152    1
   126   153   154    2
   127    58    56    1
   128    69    67   ar
   129   152   151    1
   130    50    51    1
   131    56    53    1
   132    56    57    1
   133    54    53    1
   134    54    55    2
   135    53    52    1
   136   137   136    2
   137   163   160    1
   138   136   135    1
   139   136   143   am
   140   135   138    1
   141   135   134    1
   142   138   139    1
   143   139   140    1
   144   160   161    1
   145   160   159    1
   146   164   161   am
   147   164   165    1
   148   145   144    1
   149   145   146    2
   150   143   144    1
   151   144   147    1
   152   171   169   ar
   153   149   148    2
   154   142   140   am
   155   161   162    2
   156   168   165    1
   157   168   169    1
   158   165   166    1
   159   140   141    2
   160   169   170   ar
   161   147   148    1
   162   148   150   am
   163   166   167    2
