@<TRIPOS>MOLECULE
tmp/4cfvC00.pdb
 176 166 0 0 0
SMALL
GASTEIGER

@<TRIPOS>ATOM
      1  N        -21.5750  -21.3490  -31.0890 N.3     9  GLU9       -0.1245
      2  CA       -22.1180  -21.9880  -32.2960 C.3     9  GLU9        0.1567
      3  C        -23.1150  -21.0990  -32.9480 C.2     9  GLU9        0.2260
      4  O        -23.6590  -20.1850  -32.3170 O.2     9  GLU9       -0.2867
      5  CB       -22.7320  -23.3600  -31.9950 C.3     9  GLU9        0.0388
      6  CG       -23.8450  -23.3180  -30.9580 C.3     9  GLU9        0.1160
      7  CD       -24.4620  -24.6990  -30.6150 C.2     9  GLU9        0.3649
      8  OE1      -25.2100  -25.2450  -31.4670 O.co2   9  GLU9       -0.2457
      9  OE2      -24.2270  -25.2620  -29.5020 O.co2   9  GLU9       -0.2457
     10  N        -26.7340  -20.3980  -34.3980 N.3    11  ILE11      -0.1245
     11  CA       -28.0740  -20.8330  -33.9990 C.3    11  ILE11       0.1561
     12  C        -29.0620  -20.7160  -35.1270 C.2    11  ILE11       0.2260
     13  O        -30.1570  -21.2170  -35.0210 O.2    11  ILE11      -0.2867
     14  CB       -28.6820  -19.8900  -32.9420 C.3    11  ILE11       0.0252
     15  CG1      -28.1300  -20.2290  -31.5720 C.3    11  ILE11       0.0019
     16  CG2      -30.2240  -19.9380  -32.9040 C.3    11  ILE11       0.0019
     17  CD1      -28.4970  -19.2250  -30.4890 C.3    11  ILE11       0.0001
     18  N        -30.9510  -18.2990  -38.0820 N.3    13  GLU13      -0.1245
     19  CA       -31.3560  -16.9260  -38.4640 C.3    13  GLU13       0.1567
     20  C        -32.7970  -16.6460  -38.0950 C.2    13  GLU13       0.2260
     21  O        -33.2880  -15.5040  -38.3110 O.2    13  GLU13      -0.2867
     22  CB       -31.0790  -16.7040  -39.9620 C.3    13  GLU13       0.0388
     23  CG       -29.5650  -16.6480  -40.2280 C.3    13  GLU13       0.1160
     24  CD       -29.1590  -17.2440  -41.5520 C.2    13  GLU13       0.3649
     25  OE1      -29.6500  -18.3680  -41.8210 O.co2  13  GLU13      -0.2457
     26  OE2      -28.3070  -16.6730  -42.3120 O.co2  13  GLU13      -0.2457
     27  N        -27.5670  -15.3830  -36.1350 N.3    17  VAL17      -0.1245
     28  CA       -27.7330  -15.5060  -34.6750 C.3    17  VAL17       0.1561
     29  C        -26.7950  -16.6010  -34.1440 C.2    17  VAL17       0.2260
     30  O        -26.8130  -17.7430  -34.6210 O.2    17  VAL17      -0.2867
     31  CB       -29.1430  -15.9080  -34.2990 C.3    17  VAL17       0.0252
     32  CG1      -29.3950  -15.7330  -32.7880 C.3    17  VAL17       0.0019
     33  CG2      -30.1510  -15.0310  -35.0200 C.3    17  VAL17       0.0019
     34  N        -24.9520  -18.4300  -30.5530 N.3    19  LYS19      -0.1245
     35  CA       -24.7930  -18.6420  -29.1360 C.3    19  LYS19       0.1561
     36  C        -23.3710  -18.2470  -28.8180 C.2    19  LYS19       0.2260
     37  O        -22.4150  -18.6170  -29.5350 O.2    19  LYS19      -0.2867
     38  CB       -25.0360  -20.0890  -28.7780 C.3    19  LYS19       0.0271
     39  CG       -24.8070  -20.4370  -27.3060 C.3    19  LYS19       0.0035
     40  CD       -25.0080  -21.9330  -27.0820 C.3    19  LYS19       0.0206
     41  CE       -24.8610  -22.2980  -25.6250 C.3    19  LYS19       0.1093
     42  NZ       -25.1400  -23.7440  -25.3690 N.3    19  LYS19      -0.1314
     43  N        -27.4060  -15.0070  -26.6520 N.3    30  ALA30      -0.1245
     44  CA       -27.5810  -15.0950  -28.0930 C.3    30  ALA30       0.1562
     45  C        -27.2110  -13.7460  -28.7100 C.2    30  ALA30       0.2260
     46  O        -27.6740  -12.6790  -28.2480 O.2    30  ALA30      -0.2867
     47  CB       -29.0230  -15.4930  -28.4350 C.3    30  ALA30       0.0290
     48  N        -27.2580  -11.4840  -32.0840 N.3    32  LYS32      -0.1245
     49  CA       -27.8300  -11.2910  -33.4380 C.3    32  LYS32       0.1561
     50  C        -26.9830  -10.2340  -34.1050 C.2    32  LYS32       0.2260
     51  O        -26.8450   -9.1140  -33.6050 O.2    32  LYS32      -0.2867
     52  CB       -29.1860  -10.7100  -33.1740 C.3    32  LYS32       0.0271
     53  CG       -30.3250  -11.1800  -34.0210 C.3    32  LYS32       0.0035
     54  CD       -30.8120  -10.0830  -34.9120 C.3    32  LYS32       0.0206
     55  CE       -32.3360  -10.1680  -35.0850 C.3    32  LYS32       0.1093
     56  NZ       -32.7420   -9.2090  -36.1760 N.3    32  LYS32      -0.1314
     57  N        -38.5020  -11.7770  -24.4280 N.3    63  VAL63      -0.1245
     58  CA       -37.0800  -11.9570  -24.5450 C.3    63  VAL63       0.1561
     59  C        -36.3460  -10.6360  -24.1640 C.2    63  VAL63       0.2260
     60  O        -36.7280   -9.5170  -24.5370 O.2    63  VAL63      -0.2867
     61  CB       -36.6490  -12.4390  -25.9310 C.3    63  VAL63       0.0252
     62  CG1      -36.8310  -11.3380  -26.9610 C.3    63  VAL63       0.0019
     63  CG2      -35.2210  -12.9900  -25.9220 C.3    63  VAL63       0.0019
     64  N        -28.8180  -10.7380  -26.5740 N.3    79  PHE79      -0.1227
     65  CA       -30.0330  -11.1840  -25.8850 C.3    79  PHE79       0.1736
     66  C        -29.7190  -12.2450  -24.8440 C.2    79  PHE79       0.2595
     67  O        -28.7370  -12.9440  -24.9900 O.2    79  PHE79      -0.2718
     68  CB       -30.9700  -11.8870  -26.8640 C.3    79  PHE79       0.0547
     69  CG       -31.5810  -11.0110  -27.9100 C.ar   79  PHE79      -0.0202
     70  CD1      -32.7430  -10.3340  -27.6690 C.ar   79  PHE79      -0.0042
     71  CD2      -30.9950  -10.8830  -29.1370 C.ar   79  PHE79      -0.0042
     72  CE1      -33.3350   -9.5450  -28.6260 C.ar   79  PHE79      -0.0003
     73  CE2      -31.6080  -10.1150  -30.1470 C.ar   79  PHE79      -0.0003
     74  CZ       -32.7520   -9.4330  -29.8790 C.ar   79  PHE79      -0.0000
     75  N        -30.5720  -12.4240  -23.8380 N.am   80  GLU80      -0.1965
     76  CA       -30.5130  -13.5620  -23.0160 C.3    80  GLU80       0.1733
     77  C        -30.6110  -14.8070  -23.9010 C.2    80  GLU80       0.2616
     78  O        -31.3660  -14.7770  -24.8690 O.2    80  GLU80      -0.2715
     79  CB       -31.6550  -13.5800  -21.9810 C.3    80  GLU80       0.0429
     80  CG       -33.0470  -13.6350  -22.5990 C.3    80  GLU80       0.1163
     81  CD       -34.1930  -13.7340  -21.5820 C.2    80  GLU80       0.3649
     82  OE1      -34.1570  -14.5340  -20.6480 O.co2  80  GLU80      -0.2457
     83  OE2      -35.1820  -13.0200  -21.7080 O.co2  80  GLU80      -0.2457
     84  N        -29.8770  -15.8880  -23.5410 N.am   81  PHE81      -0.1960
     85  CA       -29.9640  -17.1190  -24.2160 C.3    81  PHE81       0.1771
     86  C        -31.0960  -18.0200  -23.7420 C.2    81  PHE81       0.2619
     87  O        -31.2550  -18.2280  -22.5710 O.2    81  PHE81      -0.2715
     88  CB       -28.6630  -17.9050  -24.0850 C.3    81  PHE81       0.0574
     89  CG       -28.7020  -19.2260  -24.7700 C.ar   81  PHE81      -0.0200
     90  CD1      -28.5470  -19.3100  -26.1320 C.ar   81  PHE81      -0.0042
     91  CD2      -28.8610  -20.3950  -24.0430 C.ar   81  PHE81      -0.0042
     92  CE1      -28.5600  -20.5520  -26.7790 C.ar   81  PHE81      -0.0003
     93  CE2      -28.8790  -21.6260  -24.6600 C.ar   81  PHE81      -0.0003
     94  CZ       -28.7050  -21.6980  -26.0330 C.ar   81  PHE81      -0.0000
     95  N        -31.9240  -18.4780  -24.6620 N.am   82  LEU82      -0.1963
     96  CA       -32.9110  -19.4920  -24.2920 C.3    82  LEU82       0.1728
     97  C        -32.6600  -20.7230  -25.0890 C.2    82  LEU82       0.2616
     98  O        -32.1100  -20.6970  -26.1860 O.2    82  LEU82      -0.2715
     99  CB       -34.3010  -18.9830  -24.4960 C.3    82  LEU82       0.0311
    100  CG       -34.6850  -18.0070  -23.3980 C.3    82  LEU82       0.0022
    101  CD1      -34.7740  -16.6230  -23.9750 C.3    82  LEU82       0.0001
    102  CD2      -36.0620  -18.4160  -22.8100 C.3    82  LEU82       0.0001
    103  N        -33.1060  -21.8320  -24.5360 N.am   83  HIS83      -0.1959
    104  CA       -32.4530  -23.0360  -24.9840 C.3    83  HIS83       0.1787
    105  C        -33.0440  -23.6760  -26.2980 C.2    83  HIS83       0.2620
    106  O        -32.3590  -24.2670  -27.0790 O.2    83  HIS83      -0.2715
    107  CB       -32.3350  -23.9720  -23.8320 C.3    83  HIS83       0.0785
    108  CG       -33.1100  -25.1970  -24.0300 C.ar   83  HIS83       0.0821
    109  ND1      -32.5410  -26.3730  -24.4640 N.ar   83  HIS83      -0.2267
    110  CD2      -34.4280  -25.4350  -23.8820 C.ar   83  HIS83       0.1154
    111  CE1      -33.4810  -27.2960  -24.5680 C.ar   83  HIS83       0.1986
    112  NE2      -34.6290  -26.7540  -24.1960 N.ar   83  HIS83      -0.2212
    113  N        -34.2990  -23.4030  -26.6000 N.am   84  GLN84      -0.1963
    114  CA       -34.8170  -23.7390  -27.8660 C.3    84  GLN84       0.1733
    115  C        -36.1730  -23.0820  -28.1250 C.2    84  GLN84       0.2616
    116  O        -36.6850  -22.3120  -27.3130 O.2    84  GLN84      -0.2715
    117  CB       -34.8900  -25.2160  -28.0630 C.3    84  GLN84       0.0408
    118  CG       -35.9620  -25.9120  -27.2990 C.3    84  GLN84       0.0908
    119  CD       -36.1550  -27.2630  -27.9110 C.2    84  GLN84       0.2608
    120  OE1      -35.6340  -27.5750  -29.0150 O.2    84  GLN84      -0.2717
    121  NE2      -36.9050  -28.0960  -27.2210 N.am   84  GLN84      -0.0878
    122  N        -36.6680  -23.2650  -29.3360 N.am   85  ASP85      -0.1971
    123  CA       -37.9130  -22.6680  -29.7110 C.3    85  ASP85       0.1709
    124  C        -39.0520  -23.7000  -29.6100 C.2    85  ASP85       0.2293
    125  O        -38.7980  -24.8910  -29.5500 O.2    85  ASP85      -0.2864
    126  CB       -37.8870  -21.9920  -31.0760 C.3    85  ASP85       0.1436
    127  CG       -37.7460  -22.9410  -32.2010 C.2    85  ASP85       0.3671
    128  OD1      -38.5500  -23.8670  -32.3820 O.co2  85  ASP85      -0.2456
    129  OD2      -36.7590  -22.8070  -32.9000 O.co2  85  ASP85      -0.2456
    130  N        -39.3970  -26.5500  -32.3600 N.3    88  LYS88      -0.1245
    131  CA       -38.5020  -27.6770  -32.1150 C.3    88  LYS88       0.1561
    132  C        -38.9960  -28.5160  -30.9700 C.2    88  LYS88       0.2260
    133  O        -38.8860  -29.7150  -31.0160 O.2    88  LYS88      -0.2867
    134  CB       -37.0640  -27.2310  -31.8550 C.3    88  LYS88       0.0271
    135  CG       -36.4500  -26.5530  -33.0720 C.3    88  LYS88       0.0035
    136  CD       -34.9380  -26.7370  -33.0820 C.3    88  LYS88       0.0206
    137  CE       -34.3040  -26.2020  -34.3570 C.3    88  LYS88       0.1093
    138  NZ       -34.7340  -24.7810  -34.4890 N.3    88  LYS88      -0.1314
    139  N        -41.8630  -20.8040  -34.0110 N.3   130  GLN130     -0.1231
    140  CA       -40.4140  -20.5750  -34.2350 C.3   130  GLN130      0.1698
    141  C        -39.9220  -19.3310  -33.4740 C.2   130  GLN130      0.2592
    142  O        -38.7360  -19.1950  -33.1910 O.2   130  GLN130     -0.2718
    143  CB       -40.0880  -20.3980  -35.7510 C.3   130  GLN130      0.0381
    144  CG       -40.3650  -21.6520  -36.5920 C.3   130  GLN130      0.0905
    145  CD       -41.8700  -21.9100  -37.0040 C.2   130  GLN130      0.2608
    146  OE1      -42.8210  -21.2540  -36.5910 O.2   130  GLN130     -0.2717
    147  NE2      -42.0520  -22.9210  -37.8120 N.am  130  GLN130     -0.0878
    148  N        -40.8410  -18.4300  -33.1910 N.am  131  ASN131     -0.1974
    149  CA       -40.5400  -17.1710  -32.5480 C.3   131  ASN131      0.1688
    150  C        -40.8050  -17.1400  -31.0190 C.2   131  ASN131      0.2292
    151  O        -40.7740  -16.0990  -30.4010 O.2   131  ASN131     -0.2864
    152  CB       -41.2910  -15.9930  -33.2510 C.3   131  ASN131      0.1181
    153  CG       -40.7100  -15.6650  -34.6340 C.2   131  ASN131      0.2629
    154  OD1      -39.6610  -16.1680  -35.0060 O.2   131  ASN131     -0.2716
    155  ND2      -41.4190  -14.8700  -35.3990 N.am  131  ASN131     -0.0877
    156  N        -39.6780  -18.7480  -27.4190 N.3   133  LEU133     -0.1245
    157  CA       -38.4940  -19.4400  -26.8950 C.3   133  LEU133      0.1561
    158  C        -38.6840  -19.9620  -25.4690 C.2   133  LEU133      0.2260
    159  O        -39.2930  -19.2890  -24.6770 O.2   133  LEU133     -0.2867
    160  CB       -37.3050  -18.4770  -26.9090 C.3   133  LEU133      0.0270
    161  CG       -36.9440  -17.9390  -28.2890 C.3   133  LEU133      0.0019
    162  CD1      -35.8250  -16.9370  -28.1470 C.3   133  LEU133      0.0001
    163  CD2      -36.5790  -19.0080  -29.2870 C.3   133  LEU133      0.0001
    164  N        -40.3330  -13.7010  -28.7410 N.3   143  ALA143     -0.1231
    165  CA       -39.1200  -13.2420  -29.3610 C.3   143  ALA143      0.1694
    166  C        -39.3840  -12.7560  -30.7630 C.2   143  ALA143      0.2592
    167  O        -40.5210  -12.8040  -31.2410 O.2   143  ALA143     -0.2718
    168  CB       -38.0710  -14.3140  -29.3460 C.3   143  ALA143      0.0304
    169  N        -38.3060  -12.3370  -31.4330 N.am  144  ASP144     -0.1974
    170  CA       -38.2640  -11.7960  -32.7910 C.3   144  ASP144      0.1709
    171  C        -39.2800  -10.7060  -33.0320 C.2   144  ASP144      0.2293
    172  O        -40.3290  -10.9320  -33.6460 O.2   144  ASP144     -0.2864
    173  CB       -38.4070  -12.7770  -33.8970 C.3   144  ASP144      0.1436
    174  CG       -37.8920  -12.1490  -35.2180 C.2   144  ASP144      0.3671
    175  OD1      -37.5360  -10.8840  -35.2800 O.co2 144  ASP144     -0.2456
    176  OD2      -37.7010  -12.8990  -36.2030 O.co2 144  ASP144     -0.2456
@<TRIPOS>BOND
     1    26    24   ar
     2    25    24   ar
     3    24    23    1
     4    23    22    1
     5    22    19    1
     6    19    20    1
     7    19    18    1
     8    21    20    2
     9   147   145   am
    10   145   144    1
    11   145   146    2
    12   144   143    1
    13   176   174   ar
    14    56    55    1
    15    27    28    1
    16   143   140    1
    17   155   153   am
    18   175   174   ar
    19   174   173    1
    20    12    13    2
    21    12    11    1
    22    55    54    1
    23    33    31    1
    24   154   153    2
    25    54    53    1
    26    28    31    1
    27    28    29    1
    28   153   152    1
    29    30    29    2
    30   138   137    1
    31    10    11    1
    32   137   136    1
    33    31    32    1
    34   140   139    1
    35   140   141    1
    36    50    51    2
    37    50    49    1
    38    53    52    1
    39    11    14    1
    40   173   170    1
    41   172   171    2
    42   141   148   am
    43   141   142    2
    44    49    52    1
    45    49    48    1
    46   152   149    1
    47   148   149    1
    48   136   135    1
    49   135   134    1
    50   171   170    1
    51     3     4    2
    52     3     2    1
    53    14    16    1
    54    14    15    1
    55   129   127   ar
    56   170   169    1
    57   149   150    1
    58   128   127   ar
    59   130   131    1
    60     2     5    1
    61     2     1    1
    62   127   126    1
    63   131   134    1
    64   131   132    1
    65     5     6    1
    66    15    17    1
    67     8     7   ar
    68   169   166   am
    69   167   166    2
    70   126   123    1
    71   150   151    2
    72   133   132    2
    73     6     7    1
    74   166   165    1
    75     7     9   ar
    76    34    35    1
    77    73    74   ar
    78    73    71   ar
    79    74    72   ar
    80   123   124    1
    81   123   122    1
    82   124   125    2
    83    37    36    2
    84   165   168    1
    85   165   164    1
    86   122   115   am
    87   163   161    1
    88    71    69   ar
    89    35    36    1
    90    35    38    1
    91   120   119    2
    92    38    39    1
    93    45    46    2
    94    45    44    1
    95    72    70   ar
    96    47    44    1
    97   161   162    1
    98   161   160    1
    99   115   114    1
   100   115   116    2
   101    44    43    1
   102   117   114    1
   103   117   118    1
   104   119   118    1
   105   119   121   am
   106    69    70   ar
   107    69    68    1
   108   114   113    1
   109   156   157    1
   110    39    40    1
   111    40    41    1
   112   106   105    2
   113    62    61    1
   114   160   157    1
   115   157   158    1
   116    68    65    1
   117    92    90   ar
   118    92    94   ar
   119   113   105   am
   120    64    65    1
   121   105   104    1
   122    98    97    2
   123    90    89   ar
   124    94    93   ar
   125    61    63    1
   126    61    58    1
   127    65    66    1
   128    41    42    1
   129   158   159    2
   130    97   103   am
   131    97    96    1
   132    67    66    2
   133   104   103    1
   134   104   107    1
   135    78    77    2
   136    66    75   am
   137    89    88    1
   138    89    91   ar
   139    95    96    1
   140    95    86   am
   141    93    91   ar
   142   111   109   ar
   143   111   112   ar
   144    58    57    1
   145    58    59    1
   146    60    59    2
   147    99    96    1
   148    99   100    1
   149   109   108   ar
   150    85    88    1
   151    85    86    1
   152    85    84    1
   153   112   110   ar
   154   108   110   ar
   155   108   107    1
   156   101   100    1
   157    77    84   am
   158    77    76    1
   159    75    76    1
   160    86    87    2
   161   100   102    1
   162    76    79    1
   163    80    79    1
   164    80    81    1
   165    83    81   ar
   166    81    82   ar
