@<TRIPOS>MOLECULE
tmp/4cfwC00.pdb
 183 175 0 0 0
SMALL
GASTEIGER

@<TRIPOS>ATOM
      1  N        -23.0280   19.9320   32.3650 N.3    10  GLU10      -0.1245
      2  CA       -23.5690   20.4580   33.6150 C.3    10  GLU10       0.1567
      3  C        -24.5840   19.5180   34.2110 C.2    10  GLU10       0.2260
      4  O        -25.0810   18.6410   33.5290 O.2    10  GLU10      -0.2867
      5  CB       -24.2040   21.8450   33.4260 C.3    10  GLU10       0.0388
      6  CG       -25.5710   21.8060   32.7510 C.3    10  GLU10       0.1160
      7  CD       -25.8720   23.0620   31.9170 C.2    10  GLU10       0.3649
      8  OE1      -25.0640   24.0480   31.9280 O.co2  10  GLU10      -0.2457
      9  OE2      -26.9400   23.0500   31.2470 O.co2  10  GLU10      -0.2457
     10  N        -28.2610   18.7290   35.5310 N.3    12  ILE12      -0.1231
     11  CA       -29.5710   19.3220   35.2910 C.3    12  ILE12       0.1692
     12  C        -30.6310   18.9120   36.2690 C.2    12  ILE12       0.2593
     13  O        -31.8300   19.1320   36.0270 O.2    12  ILE12      -0.2718
     14  CB       -30.0480   19.2020   33.8570 C.3    12  ILE12       0.0266
     15  CG1      -30.2210   17.7550   33.4920 C.3    12  ILE12       0.0019
     16  CG2      -29.0430   19.9040   32.9350 C.3    12  ILE12       0.0020
     17  CD1      -30.0680   17.5210   32.0080 C.3    12  ILE12       0.0001
     18  N        -30.2270   18.2910   37.3810 N.am   13  GLY13      -0.1942
     19  CA       -31.1410   17.9140   38.4010 C.3    13  GLY13       0.2014
     20  C        -30.8670   16.5610   39.0930 C.2    13  GLY13       0.2638
     21  O        -29.8190   15.8960   38.9350 O.2    13  GLY13      -0.2714
     22  N        -31.8880   16.1060   39.8070 N.am   14  GLU14      -0.1977
     23  CA       -31.8550   14.7920   40.4030 C.3    14  GLU14       0.1602
     24  C        -33.2240   14.2010   40.6850 C.2    14  GLU14       0.2287
     25  O        -34.2930   14.6510   40.2310 O.2    14  GLU14      -0.2864
     26  CB       -30.9270   14.7410   41.6280 C.3    14  GLU14       0.0415
     27  CG       -31.4630   15.4090   42.8350 C.3    14  GLU14       0.1163
     28  CD       -30.3680   16.1990   43.5800 C.2    14  GLU14       0.3649
     29  OE1      -29.2040   15.6760   43.6570 O.co2  14  GLU14      -0.2457
     30  OE2      -30.6680   17.3500   44.0720 O.co2  14  GLU14      -0.2457
     31  N        -33.4750    8.4490   42.7470 N.3    17  TYR17      -0.1241
     32  CA       -32.5780    7.5610   41.9930 C.3    17  TYR17       0.1605
     33  C        -31.0820    7.9590   41.9490 C.2    17  TYR17       0.2264
     34  O        -30.1670    7.1570   42.2830 O.2    17  TYR17      -0.2867
     35  CB       -33.0810    7.4830   40.5470 C.3    17  TYR17       0.0534
     36  CG       -34.0350    8.6160   40.1590 C.ar   17  TYR17      -0.0201
     37  CD1      -35.3020    8.7190   40.7770 C.ar   17  TYR17      -0.0009
     38  CD2      -33.7060    9.5500   39.1360 C.ar   17  TYR17      -0.0009
     39  CE1      -36.2130    9.7160   40.4150 C.ar   17  TYR17       0.0417
     40  CE2      -34.6090   10.5540   38.7420 C.ar   17  TYR17       0.0417
     41  CZ       -35.8680   10.6340   39.3920 C.ar   17  TYR17       0.1957
     42  OH       -36.7900   11.6250   39.0540 O.3    17  TYR17      -0.2866
     43  N        -28.7920   13.6920   37.3490 N.3    20  VAL20      -0.1245
     44  CA       -28.9410   13.8420   35.9030 C.3    20  VAL20       0.1561
     45  C        -28.0470   14.9180   35.3070 C.2    20  VAL20       0.2260
     46  O        -28.2300   16.0800   35.6410 O.2    20  VAL20      -0.2867
     47  CB       -30.3860   14.1080   35.5570 C.3    20  VAL20       0.0252
     48  CG1      -30.5510   14.1500   34.0630 C.3    20  VAL20       0.0019
     49  CG2      -31.2290   12.9940   36.1520 C.3    20  VAL20       0.0019
     50  N        -28.5490   13.4050   27.7920 N.3    33  ALA33      -0.1245
     51  CA       -28.8390   13.4760   29.2020 C.3    33  ALA33       0.1562
     52  C        -28.4130   12.1550   29.8320 C.2    33  ALA33       0.2260
     53  O        -28.8140   11.0920   29.3580 O.2    33  ALA33      -0.2867
     54  CB       -30.3180   13.6800   29.4140 C.3    33  ALA33       0.0290
     55  N        -28.2690    9.7950   33.1810 N.3    35  LYS35      -0.1245
     56  CA       -28.7560    9.5270   34.5170 C.3    35  LYS35       0.1561
     57  C        -27.8390    8.5480   35.1920 C.2    35  LYS35       0.2260
     58  O        -27.5470    7.4750   34.6820 O.2    35  LYS35      -0.2867
     59  CB       -30.1480    9.0040   34.4020 C.3    35  LYS35       0.0271
     60  CG       -30.9160    8.8370   35.6990 C.3    35  LYS35       0.0035
     61  CD       -32.3940    8.6890   35.3030 C.3    35  LYS35       0.0206
     62  CE       -33.2040    7.9540   36.3480 C.3    35  LYS35       0.1093
     63  NZ       -34.6260    8.0370   35.8540 N.3    35  LYS35      -0.1314
     64  N        -39.5320    9.5420   25.4280 N.3    66  VAL66      -0.1245
     65  CA       -38.0870    9.7660   25.4900 C.3    66  VAL66       0.1561
     66  C        -37.3190    8.5010   25.0970 C.2    66  VAL66       0.2260
     67  O        -37.6430    7.3910   25.5140 O.2    66  VAL66      -0.2867
     68  CB       -37.6170   10.2250   26.8920 C.3    66  VAL66       0.0252
     69  CG1      -37.6590    9.0660   27.9020 C.3    66  VAL66       0.0019
     70  CG2      -36.2400   10.8910   26.8290 C.3    66  VAL66       0.0019
     71  N        -29.7850    9.0940   27.5860 N.3    82  PHE82      -0.1227
     72  CA       -31.0240    9.4590   26.9420 C.3    82  PHE82       0.1736
     73  C        -30.7600   10.5490   25.9100 C.2    82  PHE82       0.2595
     74  O        -29.7580   11.3090   26.0340 O.2    82  PHE82      -0.2718
     75  CB       -31.9490   10.0680   27.9780 C.3    82  PHE82       0.0547
     76  CG       -32.4860    9.1110   28.9840 C.ar   82  PHE82      -0.0202
     77  CD1      -33.6120    8.3890   28.7110 C.ar   82  PHE82      -0.0042
     78  CD2      -31.8960    8.9570   30.2190 C.ar   82  PHE82      -0.0042
     79  CE1      -34.1530    7.5430   29.6460 C.ar   82  PHE82      -0.0003
     80  CE2      -32.4360    8.1080   31.1650 C.ar   82  PHE82      -0.0003
     81  CZ       -33.5690    7.4030   30.8710 C.ar   82  PHE82      -0.0000
     82  N        -31.6200   10.6630   24.9100 N.am   83  GLU83      -0.1965
     83  CA       -31.6170   11.8400   24.0140 C.3    83  GLU83       0.1733
     84  C        -31.7590   13.0690   24.9270 C.2    83  GLU83       0.2616
     85  O        -32.4700   13.0080   25.9140 O.2    83  GLU83      -0.2715
     86  CB       -32.7820   11.7790   23.0080 C.3    83  GLU83       0.0429
     87  CG       -34.1980   11.7670   23.6600 C.3    83  GLU83       0.1163
     88  CD       -35.4020   11.8400   22.6710 C.2    83  GLU83       0.3649
     89  OE1      -35.3810   12.6310   21.6830 O.co2  83  GLU83      -0.2457
     90  OE2      -36.4130   11.1280   22.9090 O.co2  83  GLU83      -0.2457
     91  N        -31.1100   14.1870   24.5920 N.am   84  PHE84      -0.1960
     92  CA       -31.2320   15.4090   25.3530 C.3    84  PHE84       0.1771
     93  C        -32.4510   16.2220   24.8950 C.2    84  PHE84       0.2619
     94  O        -32.6150   16.4600   23.7190 O.2    84  PHE84      -0.2715
     95  CB       -29.9760   16.2570   25.2190 C.3    84  PHE84       0.0574
     96  CG       -30.0750   17.5970   25.9260 C.ar   84  PHE84      -0.0200
     97  CD1      -29.8940   17.6830   27.3060 C.ar   84  PHE84      -0.0042
     98  CD2      -30.3480   18.7670   25.2150 C.ar   84  PHE84      -0.0042
     99  CE1      -29.9980   18.9050   27.9910 C.ar   84  PHE84      -0.0003
    100  CE2      -30.4480   20.0060   25.8800 C.ar   84  PHE84      -0.0003
    101  CZ       -30.2880   20.0680   27.2880 C.ar   84  PHE84      -0.0000
    102  N        -33.3350   16.5630   25.8150 N.am   85  LEU85      -0.1963
    103  CA       -34.4220   17.4910   25.4790 C.3    85  LEU85       0.1728
    104  C        -34.2660   18.8470   26.2070 C.2    85  LEU85       0.2616
    105  O        -33.7570   18.8860   27.2960 O.2    85  LEU85      -0.2715
    106  CB       -35.7980   16.8530   25.6870 C.3    85  LEU85       0.0311
    107  CG       -35.9040   15.7250   24.6730 C.3    85  LEU85       0.0022
    108  CD1      -36.7950   14.5630   25.0780 C.3    85  LEU85       0.0001
    109  CD2      -36.3120   16.2460   23.3000 C.3    85  LEU85       0.0001
    110  N        -34.6230   19.9180   25.4980 N.am   86  HIS86      -0.1959
    111  CA       -34.3950   21.3020   25.8680 C.3    86  HIS86       0.1787
    112  C        -34.9120   21.6440   27.2410 C.2    86  HIS86       0.2620
    113  O        -34.1440   22.2000   28.0590 O.2    86  HIS86      -0.2715
    114  CB       -35.0500   22.2410   24.8160 C.3    86  HIS86       0.0785
    115  CG       -34.6570   23.6810   24.9600 C.ar   86  HIS86       0.0821
    116  ND1      -35.4300   24.6020   25.6480 N.ar   86  HIS86      -0.2267
    117  CD2      -33.5650   24.3620   24.5140 C.ar   86  HIS86       0.1154
    118  CE1      -34.8280   25.7820   25.6350 C.ar   86  HIS86       0.1986
    119  NE2      -33.6980   25.6680   24.9480 N.ar   86  HIS86      -0.2212
    120  N        -36.1790   21.3600   27.4950 N.am   87  GLN87      -0.1963
    121  CA       -36.7050   21.5730   28.8150 C.3    87  GLN87       0.1733
    122  C        -37.9690   20.8410   29.1800 C.2    87  GLN87       0.2616
    123  O        -38.4810   20.0790   28.4110 O.2    87  GLN87      -0.2715
    124  CB       -36.8810   23.0630   29.0700 C.3    87  GLN87       0.0408
    125  CG       -37.9550   23.7050   28.2580 C.3    87  GLN87       0.0908
    126  CD       -38.1690   25.1500   28.6860 C.2    87  GLN87       0.2608
    127  OE1      -37.4900   25.6540   29.5710 O.2    87  GLN87      -0.2717
    128  NE2      -39.1130   25.8150   28.0660 N.am   87  GLN87      -0.0878
    129  N        -38.4420   21.0140   30.3890 N.am   88  ASP88      -0.1971
    130  CA       -39.6770   20.3510   30.7570 C.3    88  ASP88       0.1709
    131  C        -40.8760   21.2610   30.7380 C.2    88  ASP88       0.2293
    132  O        -40.7050   22.4570   30.7080 O.2    88  ASP88      -0.2864
    133  CB       -39.5450   19.5690   32.0670 C.3    88  ASP88       0.1436
    134  CG       -39.3670   20.4410   33.2290 C.2    88  ASP88       0.3671
    135  OD1      -40.2560   21.2830   33.4590 O.co2  88  ASP88      -0.2456
    136  OD2      -38.3290   20.3110   33.9290 O.co2  88  ASP88      -0.2456
    137  N        -41.1890   24.0530   33.4480 N.3    91  LYS91      -0.1245
    138  CA       -40.4220   25.2950   33.2270 C.3    91  LYS91       0.1561
    139  C        -40.9620   26.0990   32.0750 C.2    91  LYS91       0.2260
    140  O        -40.9380   27.3120   32.1180 O.2    91  LYS91      -0.2867
    141  CB       -38.9350   25.0430   33.0460 C.3    91  LYS91       0.0271
    142  CG       -38.2240   24.2810   34.2110 C.3    91  LYS91       0.0035
    143  CD       -38.2670   24.8800   35.6290 C.3    91  LYS91       0.0206
    144  CE       -37.4390   26.1930   35.7250 C.3    91  LYS91       0.1093
    145  NZ       -38.1860   27.2720   36.4870 N.3    91  LYS91      -0.1314
    146  N        -43.3940   18.3080   35.2410 N.3   133  GLN133     -0.1231
    147  CA       -41.9500   18.0990   35.4360 C.3   133  GLN133      0.1698
    148  C        -41.4050   16.8710   34.6620 C.2   133  GLN133      0.2592
    149  O        -40.2060   16.7890   34.3590 O.2   133  GLN133     -0.2718
    150  CB       -41.6290   17.8570   36.9160 C.3   133  GLN133      0.0381
    151  CG       -41.9240   19.0110   37.8680 C.3   133  GLN133      0.0905
    152  CD       -43.4070   19.1780   38.3700 C.2   133  GLN133      0.2608
    153  OE1      -44.3930   18.5820   37.8880 O.2   133  GLN133     -0.2717
    154  NE2      -43.5450   20.1010   39.3260 N.am  133  GLN133     -0.0878
    155  N        -42.2720   15.9000   34.3790 N.am  134  ASN134     -0.1974
    156  CA       -41.8790   14.6810   33.7090 C.3   134  ASN134      0.1688
    157  C        -42.1550   14.7030   32.1920 C.2   134  ASN134      0.2292
    158  O        -42.0650   13.6700   31.5490 O.2   134  ASN134     -0.2864
    159  CB       -42.5520   13.4560   34.3850 C.3   134  ASN134      0.1181
    160  CG       -41.9640   13.1350   35.7730 C.2   134  ASN134      0.2629
    161  OD1      -40.9050   13.6400   36.1780 O.2   134  ASN134     -0.2716
    162  ND2      -42.6720   12.3100   36.5190 N.am  134  ASN134     -0.0877
    163  N        -41.1550   16.3780   28.5530 N.3   136  LEU136     -0.1245
    164  CA       -40.0040   17.1070   28.0420 C.3   136  LEU136      0.1561
    165  C        -40.2970   17.6090   26.6540 C.2   136  LEU136      0.2260
    166  O        -40.9080   16.8910   25.8750 O.2   136  LEU136     -0.2867
    167  CB       -38.7820   16.1970   27.9990 C.3   136  LEU136      0.0270
    168  CG       -38.2820   15.6440   29.3660 C.3   136  LEU136      0.0019
    169  CD1      -37.0870   14.7360   29.2160 C.3   136  LEU136      0.0001
    170  CD2      -37.9230   16.8180   30.2770 C.3   136  LEU136      0.0001
    171  N        -41.5820   11.1720   29.8980 N.3   146  ALA146     -0.1231
    172  CA       -40.3100   10.7610   30.4720 C.3   146  ALA146      0.1694
    173  C        -40.5180   10.2920   31.9220 C.2   146  ALA146      0.2592
    174  O        -41.6470   10.2620   32.3870 O.2   146  ALA146     -0.2718
    175  CB       -39.3380   11.9100   30.3780 C.3   146  ALA146      0.0304
    176  N        -39.4080    9.9550   32.5890 N.am  147  ASP147     -0.1974
    177  CA       -39.3310    9.3210   33.9390 C.3   147  ASP147      0.1709
    178  C        -40.2930    8.1960   34.1570 C.2   147  ASP147      0.2293
    179  O        -41.3070    8.3490   34.8250 O.2   147  ASP147     -0.2864
    180  CB       -39.4700   10.3220   35.0720 C.3   147  ASP147      0.1436
    181  CG       -38.8690    9.8040   36.3920 C.2   147  ASP147      0.3671
    182  OD1      -38.4130    8.6010   36.4770 O.co2 147  ASP147     -0.2456
    183  OD2      -38.8310   10.6100   37.3590 O.co2 147  ASP147     -0.2456
@<TRIPOS>BOND
     1    89    88   ar
     2    88    90   ar
     3    88    87    1
     4    86    87    1
     5    86    83    1
     6   109   107    1
     7    94    93    2
     8    83    82    1
     9    83    84    1
    10   117   119   ar
    11   117   115   ar
    12    91    84   am
    13    91    92    1
    14   107   108    1
    15   107   106    1
    16   114   115    1
    17   114   111    1
    18    93    92    1
    19    93   102   am
    20    82    73   am
    21    84    85    2
    22   119   118   ar
    23   115   116   ar
    24    66    65    1
    25    66    67    2
    26    98   100   ar
    27    98    96   ar
    28    95    92    1
    29    95    96    1
    30    64    65    1
    31   103   106    1
    32   103   102    1
    33   103   104    1
    34    65    68    1
    35   110   111    1
    36   110   104   am
    37   118   116   ar
    38   111   112    1
    39   166   165    2
    40   100   101   ar
    41    73    74    2
    42    73    72    1
    43    96    97   ar
    44   104   105    2
    45   165   164    1
    46    70    68    1
    47    68    69    1
    48    72    71    1
    49    72    75    1
    50   112   120   am
    51   112   113    2
    52   101    99   ar
    53    97    99   ar
    54   120   121    1
    55    50    51    1
    56    75    76    1
    57   167   164    1
    58   167   168    1
    59   164   163    1
    60   128   126   am
    61   125   126    1
    62   125   124    1
    63   123   122    2
    64   126   127    2
    65    77    76   ar
    66    77    79   ar
    67   121   124    1
    68   121   122    1
    69    76    78   ar
    70   122   129   am
    71    51    54    1
    72    51    52    1
    73   169   168    1
    74    53    52    2
    75   168   170    1
    76    79    81   ar
    77   171   172    1
    78    78    80   ar
    79   175   172    1
    80   129   130    1
    81   172   173    1
    82   132   131    2
    83   131   130    1
    84   130   133    1
    85    81    80   ar
    86     9     7   ar
    87   158   157    2
    88     7     8   ar
    89     7     6    1
    90   173   174    2
    91   173   176   am
    92    17    15    1
    93   133   134    1
    94   139   140    2
    95   139   138    1
    96   157   156    1
    97     1     2    1
    98   176   177    1
    99     6     5    1
   100    16    14    1
   101   141   138    1
   102   141   142    1
   103    55    56    1
   104   138   137    1
   105   134   135   ar
   106   134   136   ar
   107     5     2    1
   108    15    14    1
   109     4     3    2
   110     2     3    1
   111   156   155    1
   112   156   159    1
   113    14    11    1
   114   177   178    1
   115   177   180    1
   116    48    47    1
   117   178   179    2
   118   142   143    1
   119   149   148    2
   120   155   148   am
   121   159   160    1
   122    59    56    1
   123    59    60    1
   124    56    57    1
   125   148   147    1
   126    58    57    2
   127   180   181    1
   128   146   147    1
   129    11    10    1
   130    11    12    1
   131    61    60    1
   132    61    62    1
   133    45    46    2
   134    45    44    1
   135   147   150    1
   136    47    44    1
   137    47    49    1
   138   143   144    1
   139   144   145    1
   140   160   161    2
   141   160   162   am
   142    63    62    1
   143    44    43    1
   144    13    12    2
   145    12    18   am
   146   181   182   ar
   147   181   183   ar
   148   150   151    1
   149    18    19    1
   150   151   152    1
   151   153   152    2
   152   152   154   am
   153    19    20    1
   154    40    38   ar
   155    40    41   ar
   156    21    20    2
   157    42    41    1
   158    20    22   am
   159    38    36   ar
   160    41    39   ar
   161    22    23    1
   162    36    35    1
   163    36    37   ar
   164    25    24    2
   165    23    24    1
   166    23    26    1
   167    39    37   ar
   168    35    32    1
   169    26    27    1
   170    33    32    1
   171    33    34    2
   172    32    31    1
   173    27    28    1
   174    28    29   ar
   175    28    30   ar
