@<TRIPOS>MOLECULE
tmp/4cg2A00.pdb
 90 91 0 0 0
SMALL
GASTEIGER

@<TRIPOS>ATOM
      1  N         67.0500   37.8290   -0.8610 N.3    59  GLY59      -0.1210
      2  CA        68.1610   36.8980   -0.9010 C.3    59  GLY59       0.1956
      3  C         69.4140   37.5250   -1.4850 C.2    59  GLY59       0.2612
      4  O         69.4270   38.7190   -1.7950 O.2    59  GLY59      -0.2717
      5  N         70.4620   36.7090   -1.6090 N.am   60  TYR60      -0.1962
      6  CA        71.7290   37.1210   -2.2210 C.3    60  TYR60       0.1771
      7  C         71.5150   37.7620   -3.5910 C.2    60  TYR60       0.2620
      8  O         70.8670   37.1760   -4.4680 O.2    60  TYR60      -0.2715
      9  CB        72.5880   35.8710   -2.3620 C.3    60  TYR60       0.0574
     10  CG        74.0520   36.0880   -2.6680 C.ar   60  TYR60      -0.0198
     11  CD1       74.9310   36.5420   -1.6910 C.ar   60  TYR60      -0.0009
     12  CD2       74.5590   35.7710   -3.9100 C.ar   60  TYR60      -0.0009
     13  CE1       76.2740   36.7020   -1.9500 C.ar   60  TYR60       0.0417
     14  CE2       75.9090   35.9440   -4.1800 C.ar   60  TYR60       0.0417
     15  CZ        76.7470   36.4020   -3.1920 C.ar   60  TYR60       0.1957
     16  OH        78.0970   36.5610   -3.4480 O.3    60  TYR60      -0.2866
     17  N         72.1110   38.9460   -3.7650 N.am   61  THR61      -0.1951
     18  CA        71.9530   39.8230   -4.9440 C.3    61  THR61       0.1897
     19  C         70.5980   40.5170   -5.0570 C.2    61  THR61       0.2313
     20  O         70.3870   41.3490   -5.9590 O.2    61  THR61      -0.2863
     21  CB        72.2700   39.1360   -6.3140 C.3    61  THR61       0.1794
     22  OG1       71.1320   38.3880   -6.7700 O.3    61  THR61      -0.2208
     23  CG2       73.5220   38.2590   -6.2390 C.3    61  THR61       0.0378
     24  N         63.5470   35.3610    1.5740 N.3   129  HIS129     -0.1226
     25  CA        63.9040   34.5720    0.4270 C.3   129  HIS129      0.1752
     26  C         65.3710   34.1520    0.4190 C.2   129  HIS129      0.2597
     27  O         66.2570   34.9760    0.6010 O.2   129  HIS129     -0.2718
     28  CB        63.6350   35.3840   -0.8330 C.3   129  HIS129      0.0759
     29  CG        63.9830   34.6500   -2.0790 C.ar  129  HIS129      0.0818
     30  ND1       64.7480   35.2000   -3.0840 N.ar  129  HIS129     -0.2268
     31  CD2       63.6910   33.3910   -2.4730 C.ar  129  HIS129      0.1154
     32  CE1       64.9000   34.3120   -4.0500 C.ar  129  HIS129      0.1986
     33  NE2       64.2680   33.2070   -3.7020 N.ar  129  HIS129     -0.2212
     34  N         65.6080   32.8610    0.1920 N.am  130  SER130     -0.1938
     35  CA        66.9390   32.3130    0.0140 C.3   130  SER130      0.2055
     36  C         67.8230   32.6010    1.2230 C.2   130  SER130      0.2642
     37  O         67.5090   32.1370    2.3120 O.2   130  SER130     -0.2714
     38  CB        67.5400   32.8190   -1.2840 C.3   130  SER130      0.2130
     39  OG        68.6310   32.0000   -1.6470 O.3   130  SER130     -0.2179
     40  N         68.9280   33.3470    1.0700 N.am  131  MET131     -0.1976
     41  CA        69.7240   33.6630    2.2550 C.3   131  MET131      0.1605
     42  C         68.9200   34.4330    3.3060 C.2   131  MET131      0.2287
     43  O         69.2210   34.3840    4.4930 O.2   131  MET131     -0.2864
     44  CB        70.9770   34.4490    1.8870 C.3   131  MET131      0.0413
     45  CG        71.9980   33.6290    1.1350 C.3   131  MET131      0.0598
     46  SD        73.5290   34.5510    1.0580 S.3   131  MET131     -0.1393
     47  CE        74.5480   33.4370    0.0770 C.3   131  MET131      0.0692
     48  N         68.1660   29.2250    2.0700 N.3   155  TRP155     -0.1241
     49  CA        69.5500   28.7850    1.8830 C.3   155  TRP155      0.1605
     50  C         70.3270   29.0920    3.1600 C.2   155  TRP155      0.2264
     51  O         70.2400   30.1970    3.7020 O.2   155  TRP155     -0.2867
     52  CB        70.1820   29.5460    0.7160 C.3   155  TRP155      0.0550
     53  CG        71.5680   29.0810    0.2790 C.ar  155  TRP155      0.0003
     54  CD1       71.8610   28.3110   -0.8110 C.ar  155  TRP155      0.0946
     55  CD2       72.8130   29.4180    0.8850 C.ar  155  TRP155      0.0152
     56  NE1       73.2190   28.1360   -0.9040 N.ar  155  TRP155     -0.2442
     57  CE2       73.8270   28.8060    0.1240 C.ar  155  TRP155      0.0810
     58  CE3       73.1750   30.1750    2.0030 C.ar  155  TRP155      0.0012
     59  CZ2       75.1820   28.9330    0.4480 C.ar  155  TRP155      0.0191
     60  CZ3       74.5240   30.2910    2.3220 C.ar  155  TRP155      0.0001
     61  CH2       75.5070   29.6660    1.5450 C.ar  155  TRP155      0.0015
     62  N         69.5590   26.2200   -6.8120 N.3   178  ILE178     -0.1245
     63  CA        70.4170   27.1640   -6.1070 C.3   178  ILE178      0.1561
     64  C         70.4440   26.8230   -4.6140 C.2   178  ILE178      0.2260
     65  O         71.5140   26.7920   -3.9900 O.2   178  ILE178     -0.2867
     66  CB        69.9170   28.6040   -6.3420 C.3   178  ILE178      0.0252
     67  CG1       70.1920   29.0000   -7.7990 C.3   178  ILE178      0.0019
     68  CG2       70.5790   29.5850   -5.3710 C.3   178  ILE178      0.0019
     69  CD1       69.6240   30.3410   -8.2080 C.3   178  ILE178      0.0001
     70  N         63.9660   28.4190   -7.9130 N.3   208  HIS208     -0.1226
     71  CA        64.4350   29.1580   -6.7540 C.3   208  HIS208      0.1752
     72  C         63.8320   30.5490   -6.6300 C.2   208  HIS208      0.2596
     73  O         63.7650   31.1150   -5.5260 O.2   208  HIS208     -0.2718
     74  CB        65.9410   29.3140   -6.8340 C.3   208  HIS208      0.0759
     75  CG        66.5230   29.9900   -5.6350 C.ar  208  HIS208      0.0818
     76  ND1       66.5720   29.3910   -4.3930 N.ar  208  HIS208     -0.2268
     77  CD2       67.0670   31.2170   -5.4850 C.ar  208  HIS208      0.1154
     78  CE1       67.1340   30.2190   -3.5330 C.ar  208  HIS208      0.1986
     79  NE2       67.4570   31.3280   -4.1720 N.ar  208  HIS208     -0.2212
     80  N         63.4360   31.1330   -7.7600 N.am  209  PHE209     -0.1976
     81  CA        62.9400   32.5050   -7.7630 C.3   209  PHE209      0.1639
     82  C         61.4250   32.6170   -7.7100 C.2   209  PHE209      0.2290
     83  O         60.8690   33.7130   -7.8140 O.2   209  PHE209     -0.2864
     84  CB        63.5490   33.2530   -8.9610 C.3   209  PHE209      0.0560
     85  CG        65.0420   33.3040   -8.8870 C.ar  209  PHE209     -0.0200
     86  CD1       65.6700   34.1990   -8.0380 C.ar  209  PHE209     -0.0042
     87  CD2       65.8200   32.3950   -9.5970 C.ar  209  PHE209     -0.0042
     88  CE1       67.0490   34.2210   -7.9320 C.ar  209  PHE209     -0.0003
     89  CE2       67.1850   32.4230   -9.5090 C.ar  209  PHE209     -0.0003
     90  CZ        67.8060   33.3320   -8.6680 C.ar  209  PHE209     -0.0000
@<TRIPOS>BOND
     1    87    89   ar
     2    87    85   ar
     3    89    90   ar
     4    84    85    1
     5    84    81    1
     6    85    86   ar
     7    90    88   ar
     8    69    67    1
     9    86    88   ar
    10    70    71    1
    11    83    82    2
    12    67    66    1
    13    81    80    1
    14    81    82    1
    15    80    72   am
    16    74    71    1
    17    74    75    1
    18    62    63    1
    19    22    21    1
    20    71    72    1
    21    72    73    2
    22    66    63    1
    23    66    68    1
    24    21    23    1
    25    21    18    1
    26    63    64    1
    27    20    19    2
    28    75    77   ar
    29    75    76   ar
    30    77    79   ar
    31    19    18    1
    32    18    17    1
    33    64    65    2
    34     8     7    2
    35    76    78   ar
    36    14    12   ar
    37    14    15   ar
    38    79    78   ar
    39    32    33   ar
    40    32    30   ar
    41    12    10   ar
    42    17     7   am
    43    33    31   ar
    44     7     6    1
    45    16    15    1
    46    15    13   ar
    47    30    29   ar
    48    10     9    1
    49    10    11   ar
    50    31    29   ar
    51     9     6    1
    52     6     5    1
    53    29    28    1
    54    13    11   ar
    55     4     3    2
    56    39    38    1
    57     5     3   am
    58     3     2    1
    59    38    35    1
    60    56    54   ar
    61    56    57   ar
    62     2     1    1
    63    28    25    1
    64    54    53   ar
    65    35    34    1
    66    35    36    1
    67    47    46    1
    68    57    59   ar
    69    57    55   ar
    70    34    26   am
    71    53    52    1
    72    53    55   ar
    73    26    25    1
    74    26    27    2
    75    25    24    1
    76    59    61   ar
    77    52    49    1
    78    55    58   ar
    79    46    45    1
    80    40    36   am
    81    40    41    1
    82    45    44    1
    83    36    37    2
    84    61    60   ar
    85    49    48    1
    86    49    50    1
    87    44    41    1
    88    58    60   ar
    89    41    42    1
    90    50    51    2
    91    42    43    2
