@<TRIPOS>MOLECULE
tmp/4cg8A01.pdb
 114 111 0 0 0
SMALL
GASTEIGER

@<TRIPOS>ATOM
      1  N         30.0550    9.2510   10.8040 N.3   162  THR162     -0.1203
      2  CA        30.2580   10.6700   10.4690 C.3   162  THR162      0.1994
      3  C         28.9400   11.3980   10.2460 C.2   162  THR162      0.2617
      4  O         28.8630   12.6250   10.3910 O.2   162  THR162     -0.2717
      5  CB        31.1570   10.8570    9.2280 C.3   162  THR162      0.1784
      6  OG1       30.6180   10.1070    8.1340 O.3   162  THR162     -0.2211
      7  CG2       32.5900   10.3950    9.5140 C.3   162  THR162      0.0376
      8  N         27.8970   10.6420    9.9130 N.am  163  GLU163     -0.1979
      9  CA        26.6230   11.2420    9.5650 C.3   163  GLU163      0.1602
     10  C         25.8170   11.5040   10.8380 C.2   163  GLU163      0.2287
     11  O         25.7260   10.6350   11.7190 O.2   163  GLU163     -0.2864
     12  CB        25.8820   10.3410    8.5680 C.3   163  GLU163      0.0415
     13  CG        24.7460   11.0170    7.8250 C.3   163  GLU163      0.1163
     14  CD        23.4900   11.0750    8.6630 C.2   163  GLU163      0.3649
     15  OE1       23.1510   10.0290    9.2660 O.co2 163  GLU163     -0.2457
     16  OE2       22.8540   12.1560    8.7370 O.co2 163  GLU163     -0.2457
     17  N         22.9490    9.0530   12.2220 N.3   166  ARG166     -0.1245
     18  CA        23.4890    7.7790   12.7060 C.3   166  ARG166      0.1563
     19  C         24.2130    7.9630   14.0420 C.2   166  ARG166      0.2260
     20  O         24.1200    7.1170   14.9240 O.2   166  ARG166     -0.2867
     21  CB        24.4200    7.1170   11.6690 C.3   166  ARG166      0.0307
     22  CG        23.7830    6.8270   10.3120 C.3   166  ARG166      0.0489
     23  CD        24.6650    5.8850    9.5010 C.3   166  ARG166      0.2205
     24  NE        24.0850    5.5920    8.1890 N.pl3 166  ARG166     -0.0865
     25  CZ        24.5100    6.1300    7.0470 C.cat 166  ARG166      0.5346
     26  NH1       25.5290    6.9920    7.0440 N.pl3 166  ARG166      0.1354
     27  NH2       23.9100    5.8100    5.9000 N.pl3 166  ARG166      0.1354
     28  N         11.4280    4.5840    2.4270 N.3   255  TYR255     -0.1241
     29  CA        12.2640    4.6130    3.6400 C.3   255  TYR255      0.1605
     30  C         11.4080    4.5140    4.9050 C.2   255  TYR255      0.2264
     31  O         10.4070    5.2280    5.0280 O.2   255  TYR255     -0.2867
     32  CB        13.1490    5.8840    3.6760 C.3   255  TYR255      0.0534
     33  CG        14.0530    5.8600    4.8930 C.ar  255  TYR255     -0.0201
     34  CD1       13.6530    6.3370    6.1560 C.ar  255  TYR255     -0.0009
     35  CD2       15.3660    5.3790    4.7320 C.ar  255  TYR255     -0.0009
     36  CE1       14.5470    6.3070    7.2070 C.ar  255  TYR255      0.0417
     37  CE2       16.2800    5.3570    5.8140 C.ar  255  TYR255      0.0417
     38  CZ        15.8410    5.8340    7.0220 C.ar  255  TYR255      0.1957
     39  OH        16.7310    5.8740    8.0770 O.3   255  TYR255     -0.2866
     40  N         25.6850   -3.0930    9.7640 N.3   323  GLN323     -0.1231
     41  CA        25.2990   -2.8060    8.3660 C.3   323  GLN323      0.1698
     42  C         25.1910   -1.3170    8.0340 C.2   323  GLN323      0.2592
     43  O         25.5530   -0.9080    6.9370 O.2   323  GLN323     -0.2718
     44  CB        23.9860   -3.4870    7.9810 C.3   323  GLN323      0.0381
     45  CG        23.9870   -4.9980    8.0820 C.3   323  GLN323      0.0905
     46  CD        25.2970   -5.6110    7.6760 C.2   323  GLN323      0.2608
     47  OE1       25.6980   -5.5210    6.5190 O.2   323  GLN323     -0.2717
     48  NE2       25.9860   -6.2210    8.6340 N.am  323  GLN323     -0.0878
     49  N         24.6820   -0.5210    8.9710 N.am  324  ALA324     -0.1966
     50  CA        24.5500    0.9220    8.7830 C.3   324  ALA324      0.1728
     51  C         25.9000    1.5360    8.4500 C.2   324  ALA324      0.2616
     52  O         25.9890    2.4590    7.6370 O.2   324  ALA324     -0.2715
     53  CB        23.9510    1.5750   10.0320 C.3   324  ALA324      0.0334
     54  N         26.9490    0.9860    9.0560 N.am  325  LYS325     -0.1977
     55  CA        28.3150    1.4290    8.8230 C.3   325  LYS325      0.1596
     56  C         28.9620    0.8430    7.5600 C.2   325  LYS325      0.2287
     57  O         29.6130    1.5860    6.8160 O.2   325  LYS325     -0.2864
     58  CB        29.1790    1.1290   10.0540 C.3   325  LYS325      0.0298
     59  CG        30.6490    1.5020    9.9370 C.3   325  LYS325      0.0038
     60  CD        30.8610    2.9940    9.7210 C.3   325  LYS325      0.0206
     61  CE        32.3230    3.2430    9.3830 C.3   325  LYS325      0.1093
     62  NZ        32.6700    4.6830    9.3720 N.3   325  LYS325     -0.1314
     63  N         27.5300   -1.4960    4.9710 N.3   327  SER327     -0.1202
     64  CA        26.7640   -2.0140    3.8320 C.3   327  SER327      0.2020
     65  C         26.8510   -1.1140    2.6030 C.2   327  SER327      0.2619
     66  O         27.0270    0.1000    2.7300 O.2   327  SER327     -0.2717
     67  CB        25.2890   -2.1870    4.2030 C.3   327  SER327      0.2103
     68  OG        24.5120   -2.5850    3.0750 O.3   327  SER327     -0.2182
     69  N         26.7250   -1.7170    1.4180 N.am  328  SER328     -0.1937
     70  CA        26.6500   -0.9460    0.1670 C.3   328  SER328      0.2055
     71  C         25.2160   -0.9560   -0.4030 C.2   328  SER328      0.2643
     72  O         24.9650   -0.4520   -1.5010 O.2   328  SER328     -0.2714
     73  CB        27.6640   -1.4770   -0.8540 C.3   328  SER328      0.2130
     74  OG        28.9910   -1.4470   -0.3340 O.3   328  SER328     -0.2179
     75  N         24.2870   -1.5280    0.3600 N.am  329  ILE329     -0.1963
     76  CA        22.8760   -1.6090   -0.0310 C.3   329  ILE329      0.1727
     77  C         21.9860   -0.7180    0.8490 C.2   329  ILE329      0.2616
     78  O         22.0510   -0.7920    2.0790 O.2   329  ILE329     -0.2715
     79  CB        22.3690   -3.0710    0.0100 C.3   329  ILE329      0.0290
     80  CG1       23.2370   -3.9690   -0.8800 C.3   329  ILE329      0.0022
     81  CG2       20.9150   -3.1490   -0.4190 C.3   329  ILE329      0.0023
     82  CD1       23.1220   -5.4480   -0.5620 C.3   329  ILE329      0.0001
     83  N         21.1480    0.0960    0.2060 N.am  330  GLU330     -0.1963
     84  CA        20.2250    1.0220    0.8760 C.3   330  GLU330      0.1733
     85  C         19.1180    0.3140    1.6740 C.2   330  GLU330      0.2616
     86  O         18.4010   -0.5300    1.1330 O.2   330  GLU330     -0.2715
     87  CB        19.5820    1.9430   -0.1580 C.3   330  GLU330      0.0429
     88  CG        18.7760    3.0960    0.4320 C.3   330  GLU330      0.1163
     89  CD        18.0890    3.9380   -0.6340 C.2   330  GLU330      0.3649
     90  OE1       18.1210    3.5410   -1.8220 O.co2 330  GLU330     -0.2457
     91  OE2       17.5160    4.9990   -0.2880 O.co2 330  GLU330     -0.2457
     92  N         18.9850    0.6910    2.9500 N.am  331  PHE331     -0.1974
     93  CA        17.9790    0.1400    3.8740 C.3   331  PHE331      0.1639
     94  C         18.0400    0.9910    5.1430 C.2   331  PHE331      0.2290
     95  O         19.1120    1.5050    5.4780 O.2   331  PHE331     -0.2864
     96  CB        18.2940   -1.3220    4.2020 C.3   331  PHE331      0.0560
     97  CG        17.2390   -2.0090    5.0350 C.ar  331  PHE331     -0.0200
     98  CD1       16.0560   -2.4580    4.4580 C.ar  331  PHE331     -0.0042
     99  CD2       17.4400   -2.2250    6.3920 C.ar  331  PHE331     -0.0042
    100  CE1       15.0940   -3.0900    5.2280 C.ar  331  PHE331     -0.0003
    101  CE2       16.4750   -2.8500    7.1730 C.ar  331  PHE331     -0.0003
    102  CZ        15.2940   -3.2790    6.5870 C.ar  331  PHE331     -0.0000
    103  N         18.7880    0.7930    8.2030 N.3   333  TYR333     -0.1241
    104  CA        19.4330   -0.0870    9.2050 C.3   333  TYR333      0.1605
    105  C         19.3380    0.3970   10.6540 C.2   333  TYR333      0.2264
    106  O         19.1080   -0.4110   11.5620 O.2   333  TYR333     -0.2867
    107  CB        20.8950   -0.3560    8.8680 C.3   333  TYR333      0.0534
    108  CG        21.1130   -1.1030    7.5650 C.ar  333  TYR333     -0.0201
    109  CD1       20.7640   -2.4440    7.4350 C.ar  333  TYR333     -0.0009
    110  CD2       21.7000   -0.4630    6.4800 C.ar  333  TYR333     -0.0009
    111  CE1       20.9700   -3.1230    6.2300 C.ar  333  TYR333      0.0417
    112  CE2       21.9210   -1.1290    5.2860 C.ar  333  TYR333      0.0417
    113  CZ        21.5610   -2.4540    5.1690 C.ar  333  TYR333      0.1957
    114  OH        21.7910   -3.0840    3.9630 O.3   333  TYR333     -0.2866
@<TRIPOS>BOND
     1    90    89   ar
     2    72    71    2
     3    80    82    1
     4    80    79    1
     5    73    74    1
     6    73    70    1
     7    89    91   ar
     8    89    88    1
     9    81    79    1
    10    71    70    1
    11    71    75   am
    12    87    88    1
    13    87    84    1
    14    76    79    1
    15    76    75    1
    16    76    77    1
    17    70    69    1
    18    83    77   am
    19    83    84    1
    20    77    78    2
    21    84    85    1
    22    86    85    2
    23    69    65   am
    24    85    92   am
    25    28    29    1
    26    65    66    2
    27    65    64    1
    28    92    93    1
    29    68    67    1
    30    29    32    1
    31    29    30    1
    32    32    33    1
    33    64    67    1
    34    64    63    1
    35    93    96    1
    36    93    94    1
    37   114   113    1
    38    96    97    1
    39    98    97   ar
    40    98   100   ar
    41    35    33   ar
    42    35    37   ar
    43    33    34   ar
    44    30    31    2
    45    97    99   ar
    46    94    95    2
    47   113   112   ar
    48   113   111   ar
    49   100   102   ar
    50   112   110   ar
    51    37    38   ar
    52    27    25    1
    53    34    36   ar
    54   111   109   ar
    55    99   101   ar
    56   110   108   ar
    57    47    46    2
    58   102   101   ar
    59    57    56    2
    60    43    42    2
    61    38    36   ar
    62    38    39    1
    63    26    25    1
    64    25    24    2
    65   109   108   ar
    66    56    55    1
    67   108   107    1
    68    52    51    2
    69    46    45    1
    70    46    48   am
    71    13    12    1
    72    13    14    1
    73    44    45    1
    74    44    41    1
    75    42    41    1
    76    42    49   am
    77     6     5    1
    78    24    23    1
    79   103   104    1
    80    41    40    1
    81    51    50    1
    82    51    54   am
    83    12     9    1
    84    14    16   ar
    85    14    15   ar
    86    50    49    1
    87    50    53    1
    88    55    54    1
    89    55    58    1
    90   107   104    1
    91   104   105    1
    92     5     7    1
    93     5     2    1
    94    62    61    1
    95    61    60    1
    96    23    22    1
    97     9     8    1
    98     9    10    1
    99    60    59    1
   100     8     3   am
   101    59    58    1
   102     3     4    2
   103     3     2    1
   104    22    21    1
   105     2     1    1
   106   105   106    2
   107    10    11    2
   108    21    18    1
   109    17    18    1
   110    18    19    1
   111    19    20    2
