@<TRIPOS>MOLECULE
tmp/4cg8A00.pdb
 203 200 0 0 0
SMALL
GASTEIGER

@<TRIPOS>ATOM
      1  N         28.0410  -20.5120   18.3580 N.3   144  TRP144     -0.1241
      2  CA        27.6260  -19.5260   17.3450 C.3   144  TRP144      0.1605
      3  C         26.8550  -18.3310   17.8720 C.2   144  TRP144      0.2264
      4  O         27.1670  -17.1700   17.5320 O.2   144  TRP144     -0.2867
      5  CB        26.8040  -20.2040   16.2540 C.3   144  TRP144      0.0550
      6  CG        26.3960  -19.2600   15.1510 C.ar  144  TRP144      0.0003
      7  CD1       27.1560  -18.8700   14.0500 C.ar  144  TRP144      0.0946
      8  CD2       25.1090  -18.5400   15.0010 C.ar  144  TRP144      0.0152
      9  NE1       26.4580  -17.9910   13.2610 N.ar  144  TRP144     -0.2442
     10  CE2       25.2230  -17.7550   13.7720 C.ar  144  TRP144      0.0810
     11  CE3       23.9140  -18.4830   15.7360 C.ar  144  TRP144      0.0012
     12  CZ2       24.1900  -16.9370   13.3180 C.ar  144  TRP144      0.0191
     13  CZ3       22.8790  -17.6500   15.2670 C.ar  144  TRP144      0.0001
     14  CH2       23.0190  -16.9030   14.0820 C.ar  144  TRP144      0.0015
     15  N         28.8160  -14.8840   18.0740 N.3   148  THR148     -0.1218
     16  CA        28.4800  -13.8810   17.0790 C.3   148  THR148      0.1862
     17  C         28.0340  -12.5850   17.7670 C.2   148  THR148      0.2287
     18  O         28.4600  -11.4990   17.3730 O.2   148  THR148     -0.2866
     19  CB        27.4230  -14.4150   16.0970 C.3   148  THR148      0.1770
     20  OG1       27.9430  -15.6060   15.4590 O.3   148  THR148     -0.2211
     21  CG2       27.0880  -13.3840   15.0260 C.3   148  THR148      0.0375
     22  N         29.9800   -9.0490   17.3000 N.3   152  TYR152     -0.1241
     23  CA        29.2500   -7.9020   16.7680 C.3   152  TYR152      0.1605
     24  C         29.1680   -6.7410   17.7520 C.2   152  TYR152      0.2264
     25  O         29.2890   -5.5580   17.3550 O.2   152  TYR152     -0.2867
     26  CB        27.8660   -8.3150   16.2620 C.3   152  TYR152      0.0534
     27  CG        27.8970   -8.7150   14.7970 C.ar  152  TYR152     -0.0201
     28  CD1       28.4130   -9.9420   14.4030 C.ar  152  TYR152     -0.0009
     29  CD2       27.4210   -7.8540   13.8070 C.ar  152  TYR152     -0.0009
     30  CE1       28.4470  -10.3160   13.0690 C.ar  152  TYR152      0.0417
     31  CE2       27.4590   -8.2160   12.4640 C.ar  152  TYR152      0.0417
     32  CZ        27.9660   -9.4540   12.1050 C.ar  152  TYR152      0.1957
     33  OH        28.0050   -9.8190   10.7690 O.3   152  TYR152     -0.2866
     34  N         18.7340  -20.8090   11.2510 N.3   201  ASN201     -0.1225
     35  CA        19.1510  -19.4900   11.7910 C.3   201  ASN201      0.1785
     36  C         18.5850  -18.2680   11.0740 C.2   201  ASN201      0.2597
     37  O         18.9000  -17.1390   11.4500 O.2   201  ASN201     -0.2718
     38  CB        20.6740  -19.3680   11.9140 C.3   201  ASN201      0.1169
     39  CG        21.2500  -20.3240   12.9590 C.2   201  ASN201      0.2627
     40  OD1       20.6340  -20.5730   13.9940 O.2   201  ASN201     -0.2716
     41  ND2       22.4130  -20.8710   12.6740 N.am  201  ASN201     -0.0877
     42  N         17.7630  -18.4800   10.0520 N.am  202  ASP202     -0.1974
     43  CA        17.2300  -17.3560    9.2770 C.3   202  ASP202      0.1709
     44  C         15.8930  -17.7640    8.6500 C.2   202  ASP202      0.2293
     45  O         15.6580  -17.5220    7.4730 O.2   202  ASP202     -0.2864
     46  CB        18.2650  -16.9250    8.2010 C.3   202  ASP202      0.1436
     47  CG        17.8940  -15.6320    7.4980 C.2   202  ASP202      0.3671
     48  OD1       17.1110  -14.8330    8.0570 O.co2 202  ASP202     -0.2456
     49  OD2       18.3880  -15.4250    6.3690 O.co2 202  ASP202     -0.2456
     50  N         12.6670  -17.1750    7.6140 N.3   204  GLN204     -0.1245
     51  CA        11.6370  -16.1610    7.3580 C.3   204  GLN204      0.1566
     52  C         11.1460  -16.2550    5.9250 C.2   204  GLN204      0.2260
     53  O         11.6480  -17.0470    5.1390 O.2   204  GLN204     -0.2867
     54  CB        12.1320  -14.7610    7.6940 C.3   204  GLN204      0.0367
     55  CG        13.5790  -14.5170    7.3530 C.3   204  GLN204      0.0905
     56  CD        13.7960  -13.9880    5.9690 C.2   204  GLN204      0.2608
     57  OE1       12.8510  -13.8120    5.1870 O.2   204  GLN204     -0.2717
     58  NE2       15.0510  -13.6520    5.6670 N.am  204  GLN204     -0.0878
     59  N         11.3320  -14.7680    3.1030 N.3   206  GLY206     -0.1225
     60  CA        12.2560  -14.6680    1.9600 C.3   206  GLY206      0.1811
     61  C         13.0000  -15.9520    1.6400 C.2   206  GLY206      0.2280
     62  O         13.5030  -16.1250    0.5170 O.2   206  GLY206     -0.2866
     63  N         23.5700  -19.4940    6.6060 N.3   229  TYR229     -0.1241
     64  CA        23.8780  -19.0930    7.9870 C.3   229  TYR229      0.1605
     65  C         23.6310  -20.2030    8.9970 C.2   229  TYR229      0.2264
     66  O         23.7220  -19.9630   10.2010 O.2   229  TYR229     -0.2867
     67  CB        23.0840  -17.8460    8.3810 C.3   229  TYR229      0.0534
     68  CG        23.5680  -16.6390    7.6210 C.ar  229  TYR229     -0.0201
     69  CD1       23.1290  -16.3810    6.3180 C.ar  229  TYR229     -0.0009
     70  CD2       24.4980  -15.7790    8.1900 C.ar  229  TYR229     -0.0009
     71  CE1       23.6040  -15.2740    5.6050 C.ar  229  TYR229      0.0417
     72  CE2       24.9730  -14.6740    7.4960 C.ar  229  TYR229      0.0417
     73  CZ        24.5320  -14.4240    6.2160 C.ar  229  TYR229      0.1957
     74  OH        25.0280  -13.3050    5.5500 O.3   229  TYR229     -0.2866
     75  N         10.1400  -13.0200   13.1990 N.3   245  GLU245     -0.1245
     76  CA         9.9500  -12.6060   11.7920 C.3   245  GLU245      0.1567
     77  C          8.4930  -12.4010   11.3960 C.2   245  GLU245      0.2260
     78  O          8.2180  -11.7690   10.3870 O.2   245  GLU245     -0.2867
     79  CB        10.6630  -13.5680   10.8280 C.3   245  GLU245      0.0388
     80  CG        12.1940  -13.5130   10.9470 C.3   245  GLU245      0.1160
     81  CD        12.8110  -12.2370   10.3710 C.2   245  GLU245      0.3649
     82  OE1       12.0820  -11.3820    9.8470 O.co2 245  GLU245     -0.2457
     83  OE2       14.0380  -12.0640   10.4760 O.co2 245  GLU245     -0.2457
     84  N          9.4880   -6.6600    4.9180 N.3   250  TYR250     -0.1241
     85  CA        10.6350   -6.0360    4.2650 C.3   250  TYR250      0.1605
     86  C         10.2960   -5.5850    2.8480 C.2   250  TYR250      0.2264
     87  O         11.1970   -5.2570    2.0670 O.2   250  TYR250     -0.2867
     88  CB        11.8340   -6.9850    4.2600 C.3   250  TYR250      0.0534
     89  CG        12.1910   -7.4800    5.6330 C.ar  250  TYR250     -0.0201
     90  CD1       12.6710   -6.6060    6.6100 C.ar  250  TYR250     -0.0009
     91  CD2       12.0500   -8.8240    5.9640 C.ar  250  TYR250     -0.0009
     92  CE1       13.0050   -7.0640    7.8780 C.ar  250  TYR250      0.0417
     93  CE2       12.3800   -9.2910    7.2340 C.ar  250  TYR250      0.0417
     94  CZ        12.8540   -8.4070    8.1860 C.ar  250  TYR250      0.1957
     95  OH        13.1780   -8.8670    9.4470 O.3   250  TYR250     -0.2866
     96  N         12.0710    1.1950    4.4500 N.3   257  PHE257     -0.1241
     97  CA        12.0110   -0.0060    3.6070 C.3   257  PHE257      0.1605
     98  C         11.6430   -1.2810    4.3840 C.2   257  PHE257      0.2264
     99  O         11.8890   -2.4010    3.9200 O.2   257  PHE257     -0.2867
    100  CB        13.2980   -0.1930    2.7760 C.3   257  PHE257      0.0534
    101  CG        13.6070    0.9690    1.8740 C.ar  257  PHE257     -0.0203
    102  CD1       12.8590    1.1890    0.7130 C.ar  257  PHE257     -0.0042
    103  CD2       14.6350    1.8500    2.1840 C.ar  257  PHE257     -0.0042
    104  CE1       13.1390    2.2630   -0.1220 C.ar  257  PHE257     -0.0003
    105  CE2       14.9170    2.9310    1.3530 C.ar  257  PHE257     -0.0003
    106  CZ        14.1680    3.1350    0.2020 C.ar  257  PHE257     -0.0000
    107  N         20.6840  -10.1160   18.6200 N.3   315  LEU315     -0.1231
    108  CA        21.6050  -10.4300   17.5250 C.3   315  LEU315      0.1693
    109  C         21.3370   -9.5770   16.2720 C.2   315  LEU315      0.2592
    110  O         22.2480   -8.9650   15.7310 O.2   315  LEU315     -0.2718
    111  CB        21.5350  -11.9270   17.1820 C.3   315  LEU315      0.0284
    112  CG        22.4100  -12.3780   16.0120 C.3   315  LEU315      0.0019
    113  CD1       23.8030  -12.6880   16.5170 C.3   315  LEU315      0.0001
    114  CD2       21.7640  -13.5900   15.3470 C.3   315  LEU315      0.0001
    115  N         20.0960   -9.5610   15.8020 N.am  316  TRP316     -0.1976
    116  CA        19.7620   -8.8120   14.5980 C.3   316  TRP316      0.1640
    117  C         19.9130   -7.3210   14.7880 C.2   316  TRP316      0.2290
    118  O         20.2850   -6.6040   13.8380 O.2   316  TRP316     -0.2864
    119  CB        18.3430   -9.1510   14.1740 C.3   316  TRP316      0.0576
    120  CG        18.2550  -10.4240   13.3660 C.ar  316  TRP316      0.0006
    121  CD1       17.7540  -11.6730   13.7720 C.ar  316  TRP316      0.0946
    122  CD2       18.6250  -10.5890   11.9520 C.ar  316  TRP316      0.0152
    123  NE1       17.8110  -12.5830   12.7300 N.ar  316  TRP316     -0.2442
    124  CE2       18.3260  -11.9860   11.6030 C.ar  316  TRP316      0.0810
    125  CE3       19.1750   -9.7430   10.9730 C.ar  316  TRP316      0.0012
    126  CZ2       18.5510  -12.4910   10.3090 C.ar  316  TRP316      0.0191
    127  CZ3       19.4080  -10.2670    9.6910 C.ar  316  TRP316      0.0001
    128  CH2       19.1070  -11.6070    9.3700 C.ar  316  TRP316      0.0015
    129  N         23.6320   -6.7380   14.4330 N.3   319  TRP319     -0.1241
    130  CA        23.9010   -6.8720   12.9940 C.3   319  TRP319      0.1605
    131  C         23.5210   -5.6380   12.2010 C.2   319  TRP319      0.2264
    132  O         24.2750   -5.1780   11.3320 O.2   319  TRP319     -0.2867
    133  CB        23.1600   -8.1080   12.4560 C.3   319  TRP319      0.0550
    134  CG        23.2780   -8.3060   10.9520 C.ar  319  TRP319      0.0003
    135  CD1       24.2370   -9.0380   10.2670 C.ar  319  TRP319      0.0946
    136  CD2       22.3680   -7.7990    9.9280 C.ar  319  TRP319      0.0152
    137  NE1       24.0080   -8.9950    8.9050 N.ar  319  TRP319     -0.2442
    138  CE2       22.8860   -8.2810    8.6390 C.ar  319  TRP319      0.0810
    139  CE3       21.2120   -7.0220    9.9460 C.ar  319  TRP319      0.0012
    140  CZ2       22.2610   -7.9750    7.4390 C.ar  319  TRP319      0.0191
    141  CZ3       20.5830   -6.7210    8.7210 C.ar  319  TRP319      0.0001
    142  CH2       21.1050   -7.1860    7.5010 C.ar  319  TRP319      0.0015
    143  N         25.6850   -3.0930    9.7640 N.3   323  GLN323     -0.1245
    144  CA        25.2990   -2.8060    8.3660 C.3   323  GLN323      0.1566
    145  C         25.1910   -1.3170    8.0340 C.2   323  GLN323      0.2260
    146  O         25.5530   -0.9080    6.9370 O.2   323  GLN323     -0.2867
    147  CB        23.9860   -3.4870    7.9810 C.3   323  GLN323      0.0367
    148  CG        23.9870   -4.9980    8.0820 C.3   323  GLN323      0.0905
    149  CD        25.2970   -5.6110    7.6760 C.2   323  GLN323      0.2608
    150  OE1       25.6980   -5.5210    6.5190 O.2   323  GLN323     -0.2717
    151  NE2       25.9860   -6.2210    8.6340 N.am  323  GLN323     -0.0878
    152  N         24.2870   -1.5280    0.3600 N.3   329  ILE329     -0.1231
    153  CA        22.8760   -1.6090   -0.0310 C.3   329  ILE329      0.1692
    154  C         21.9860   -0.7180    0.8490 C.2   329  ILE329      0.2592
    155  O         22.0510   -0.7920    2.0790 O.2   329  ILE329     -0.2718
    156  CB        22.3690   -3.0710    0.0100 C.3   329  ILE329      0.0266
    157  CG1       23.2370   -3.9690   -0.8800 C.3   329  ILE329      0.0019
    158  CG2       20.9150   -3.1490   -0.4190 C.3   329  ILE329      0.0020
    159  CD1       23.1220   -5.4480   -0.5620 C.3   329  ILE329      0.0001
    160  N         21.1480    0.0960    0.2060 N.am  330  GLU330     -0.1966
    161  CA        20.2250    1.0220    0.8760 C.3   330  GLU330      0.1733
    162  C         19.1180    0.3140    1.6740 C.2   330  GLU330      0.2616
    163  O         18.4010   -0.5300    1.1330 O.2   330  GLU330     -0.2715
    164  CB        19.5820    1.9430   -0.1580 C.3   330  GLU330      0.0429
    165  CG        18.7760    3.0960    0.4320 C.3   330  GLU330      0.1163
    166  CD        18.0890    3.9380   -0.6340 C.2   330  GLU330      0.3649
    167  OE1       18.1210    3.5410   -1.8220 O.co2 330  GLU330     -0.2457
    168  OE2       17.5160    4.9990   -0.2880 O.co2 330  GLU330     -0.2457
    169  N         18.9850    0.6910    2.9500 N.am  331  PHE331     -0.1974
    170  CA        17.9790    0.1400    3.8740 C.3   331  PHE331      0.1639
    171  C         18.0400    0.9910    5.1430 C.2   331  PHE331      0.2290
    172  O         19.1120    1.5050    5.4780 O.2   331  PHE331     -0.2864
    173  CB        18.2940   -1.3220    4.2020 C.3   331  PHE331      0.0560
    174  CG        17.2390   -2.0090    5.0350 C.ar  331  PHE331     -0.0200
    175  CD1       16.0560   -2.4580    4.4580 C.ar  331  PHE331     -0.0042
    176  CD2       17.4400   -2.2250    6.3920 C.ar  331  PHE331     -0.0042
    177  CE1       15.0940   -3.0900    5.2280 C.ar  331  PHE331     -0.0003
    178  CE2       16.4750   -2.8500    7.1730 C.ar  331  PHE331     -0.0003
    179  CZ        15.2940   -3.2790    6.5870 C.ar  331  PHE331     -0.0000
    180  N         18.7880    0.7930    8.2030 N.3   333  TYR333     -0.1241
    181  CA        19.4330   -0.0870    9.2050 C.3   333  TYR333      0.1605
    182  C         19.3380    0.3970   10.6540 C.2   333  TYR333      0.2264
    183  O         19.1080   -0.4110   11.5620 O.2   333  TYR333     -0.2867
    184  CB        20.8950   -0.3560    8.8680 C.3   333  TYR333      0.0534
    185  CG        21.1130   -1.1030    7.5650 C.ar  333  TYR333     -0.0201
    186  CD1       20.7640   -2.4440    7.4350 C.ar  333  TYR333     -0.0009
    187  CD2       21.7000   -0.4630    6.4800 C.ar  333  TYR333     -0.0009
    188  CE1       20.9700   -3.1230    6.2300 C.ar  333  TYR333      0.0417
    189  CE2       21.9210   -1.1290    5.2860 C.ar  333  TYR333      0.0417
    190  CZ        21.5610   -2.4540    5.1690 C.ar  333  TYR333      0.1957
    191  OH        21.7910   -3.0840    3.9630 O.3   333  TYR333     -0.2866
    192  N         15.7910   -0.0010   11.8480 N.3   336  TYR336     -0.1241
    193  CA        15.5470   -1.4410   12.0690 C.3   336  TYR336      0.1605
    194  C         16.1900   -1.9140   13.3750 C.2   336  TYR336      0.2264
    195  O         15.5700   -2.6650   14.1340 O.2   336  TYR336     -0.2867
    196  CB        16.0590   -2.2780   10.9030 C.3   336  TYR336      0.0534
    197  CG        15.7370   -3.7540   11.0430 C.ar  336  TYR336     -0.0201
    198  CD1       14.4270   -4.2180   10.8850 C.ar  336  TYR336     -0.0009
    199  CD2       16.7440   -4.6820   11.3330 C.ar  336  TYR336     -0.0009
    200  CE1       14.1170   -5.5700   11.0250 C.ar  336  TYR336      0.0417
    201  CE2       16.4440   -6.0450   11.4540 C.ar  336  TYR336      0.0417
    202  CZ        15.1370   -6.4720   11.2980 C.ar  336  TYR336      0.1957
    203  OH        14.8390   -7.8170   11.4070 O.3   336  TYR336     -0.2866
@<TRIPOS>BOND
     1   167   166   ar
     2   157   159    1
     3   157   156    1
     4   166   168   ar
     5   166   165    1
     6   158   156    1
     7   164   165    1
     8   164   161    1
     9   104   106   ar
    10   104   102   ar
    11   153   156    1
    12   153   152    1
    13   153   154    1
    14   106   105   ar
    15   160   154   am
    16   160   161    1
    17    62    61    2
    18   102   101   ar
    19   154   155    2
    20   161   162    1
    21   163   162    2
    22   105   103   ar
    23    61    60    1
    24   162   169   am
    25   101   103   ar
    26   101   100    1
    27    60    59    1
    28    87    86    2
    29   100    97    1
    30    86    85    1
    31   169   170    1
    32    97    98    1
    33    97    96    1
    34   170   173    1
    35   170   171    1
    36    99    98    2
    37   191   190    1
    38   173   174    1
    39    88    85    1
    40    88    89    1
    41    85    84    1
    42   175   174   ar
    43   175   177   ar
    44   174   176   ar
    45    53    52    2
    46   171   172    2
    47   190   189   ar
    48   190   188   ar
    49    57    56    2
    50   177   179   ar
    51   189   187   ar
    52    74    73    1
    53    71    73   ar
    54    71    69   ar
    55    89    91   ar
    56    89    90   ar
    57    58    56   am
    58    52    51    1
    59    91    93   ar
    60    56    55    1
    61    73    72   ar
    62   188   186   ar
    63    69    68   ar
    64    49    47   ar
    65   176   178   ar
    66   187   185   ar
    67   150   149    2
    68   179   178   ar
    69    63    64    1
    70    90    92   ar
    71   146   145    2
    72    93    94   ar
    73    55    54    1
    74    51    50    1
    75    51    54    1
    76   186   185   ar
    77   140   142   ar
    78   140   138   ar
    79    45    44    2
    80    72    70   ar
    81    47    48   ar
    82    47    46    1
    83   142   141   ar
    84   185   184    1
    85    68    70   ar
    86    68    67    1
    87   149   148    1
    88   149   151   am
    89    92    94   ar
    90   147   148    1
    91   147   144    1
    92    64    67    1
    93    64    65    1
    94   145   144    1
    95    94    95    1
    96    46    43    1
    97   180   181    1
    98   144   143    1
    99   138   137   ar
   100   138   136   ar
   101    44    43    1
   102   141   139   ar
   103   184   181    1
   104   137   135   ar
   105    65    66    2
   106   181   182    1
   107    43    42    1
   108   128   127   ar
   109   128   126   ar
   110   127   125   ar
   111    82    81   ar
   112   136   139   ar
   113   136   134   ar
   114    42    36   am
   115   135   134   ar
   116   126   124   ar
   117    81    83   ar
   118    81    80    1
   119    78    77    2
   120   182   183    2
   121    33    32    1
   122    79    80    1
   123    79    76    1
   124   198   200   ar
   125   198   197   ar
   126   196   197    1
   127   196   193    1
   128   134   133    1
   129   125   122   ar
   130   200   202   ar
   131   197   199   ar
   132    36    37    2
   133    36    35    1
   134    34    35    1
   135   202   203    1
   136   202   201   ar
   137   132   131    2
   138   199   201   ar
   139    77    76    1
   140   124   122   ar
   141   124   123   ar
   142    35    38    1
   143    76    75    1
   144   192   193    1
   145    38    39    1
   146   122   120   ar
   147   193   194    1
   148    32    31   ar
   149    32    30   ar
   150   131   130    1
   151   133   130    1
   152    31    29   ar
   153    41    39   am
   154   123   121   ar
   155    39    40    2
   156   130   129    1
   157    30    28   ar
   158     9    10   ar
   159     9     7   ar
   160    12    10   ar
   161    12    14   ar
   162   120   121   ar
   163   120   119    1
   164   194   195    2
   165    10     8   ar
   166    29    27   ar
   167   118   117    2
   168     7     6   ar
   169    14    13   ar
   170   119   116    1
   171    28    27   ar
   172   116   117    1
   173   116   115    1
   174    27    26    1
   175     8     6   ar
   176     8    11   ar
   177    21    19    1
   178     6     5    1
   179    13    11   ar
   180   114   112    1
   181    20    19    1
   182   110   109    2
   183   115   109   am
   184   112   113    1
   185   112   111    1
   186    19    16    1
   187     5     2    1
   188    26    23    1
   189   109   108    1
   190    23    22    1
   191    23    24    1
   192    16    17    1
   193    16    15    1
   194   111   108    1
   195     2     3    1
   196     2     1    1
   197    25    24    2
   198    18    17    2
   199   108   107    1
   200     4     3    2
