@<TRIPOS>MOLECULE
tmp/4cg9A00.pdb
 180 177 0 0 0
SMALL
GASTEIGER

@<TRIPOS>ATOM
      1  N        -29.5780    8.9230   17.1420 N.3   152  TYR152     -0.1241
      2  CA       -28.8390    7.7670   16.6700 C.3   152  TYR152      0.1605
      3  C        -28.8630    6.6150   17.6560 C.2   152  TYR152      0.2264
      4  O        -28.9520    5.4700   17.2380 O.2   152  TYR152     -0.2867
      5  CB       -27.3760    8.0970   16.3450 C.3   152  TYR152      0.0534
      6  CG       -27.1650    8.9310   15.1090 C.ar  152  TYR152     -0.0201
      7  CD1      -28.1280    9.0090   14.0980 C.ar  152  TYR152     -0.0009
      8  CD2      -25.9700    9.6200   14.9300 C.ar  152  TYR152     -0.0009
      9  CE1      -27.9100    9.7800   12.9630 C.ar  152  TYR152      0.0417
     10  CE2      -25.7420   10.3810   13.7980 C.ar  152  TYR152      0.0417
     11  CZ       -26.7190   10.4620   12.8300 C.ar  152  TYR152      0.1957
     12  OH       -26.4710   11.2330   11.7230 O.3   152  TYR152     -0.2866
     13  N        -18.4660   20.6190   11.0920 N.3   201  ASN201     -0.1225
     14  CA       -18.8720   19.3050   11.6430 C.3   201  ASN201      0.1785
     15  C        -18.3370   18.0790   10.9120 C.2   201  ASN201      0.2597
     16  O        -18.6300   16.9560   11.3140 O.2   201  ASN201     -0.2718
     17  CB       -20.4010   19.1990   11.8240 C.3   201  ASN201      0.1169
     18  CG       -20.9200   20.1170   12.9150 C.2   201  ASN201      0.2627
     19  OD1      -20.2540   20.3100   13.9400 O.2   201  ASN201     -0.2716
     20  ND2      -22.0990   20.7400   12.6760 N.am  201  ASN201     -0.0877
     21  N        -17.5440   18.2860    9.8620 N.am  202  ASP202     -0.1974
     22  CA       -17.0160   17.1520    9.0890 C.3   202  ASP202      0.1709
     23  C        -15.6440   17.4880    8.4850 C.2   202  ASP202      0.2293
     24  O        -15.3870   17.2140    7.3150 O.2   202  ASP202     -0.2864
     25  CB       -18.0280   16.7620    7.9930 C.3   202  ASP202      0.1436
     26  CG       -17.7500   15.4010    7.3700 C.2   202  ASP202      0.3671
     27  OD1      -16.9780   14.5850    7.9330 O.co2 202  ASP202     -0.2456
     28  OD2      -18.3280   15.1360    6.2920 O.co2 202  ASP202     -0.2456
     29  N        -12.7540   16.3670    7.7740 N.3   204  GLN204     -0.1245
     30  CA       -11.7940   15.3240    7.3610 C.3   204  GLN204      0.1566
     31  C        -11.0240   15.7340    6.0960 C.2   204  GLN204      0.2260
     32  O        -11.4790   16.5760    5.3350 O.2   204  GLN204     -0.2867
     33  CB       -12.5360   14.0370    7.0580 C.3   204  GLN204      0.0367
     34  CG       -13.7780   14.2530    6.2040 C.3   204  GLN204      0.0905
     35  CD       -14.4220   12.9640    5.7540 C.2   204  GLN204      0.2608
     36  OE1      -13.8740   12.2560    4.9190 O.2   204  GLN204     -0.2717
     37  NE2      -15.6150   12.6740    6.2810 N.am  204  GLN204     -0.0878
     38  N        -23.3440   18.9530    6.6170 N.3   229  TYR229     -0.1241
     39  CA       -23.5640   18.6830    8.0350 C.3   229  TYR229      0.1605
     40  C        -23.3700   19.8920    8.9430 C.2   229  TYR229      0.2264
     41  O        -23.5240   19.7790   10.1580 O.2   229  TYR229     -0.2867
     42  CB       -22.6690   17.5340    8.5070 C.3   229  TYR229      0.0534
     43  CG       -22.9680   16.2440    7.7980 C.ar  229  TYR229     -0.0201
     44  CD1      -24.0600   15.4650    8.1750 C.ar  229  TYR229     -0.0009
     45  CD2      -22.1600   15.7970    6.7450 C.ar  229  TYR229     -0.0009
     46  CE1      -24.3500   14.2770    7.5280 C.ar  229  TYR229      0.0417
     47  CE2      -22.4380   14.6000    6.0970 C.ar  229  TYR229      0.0417
     48  CZ       -23.5370   13.8510    6.4910 C.ar  229  TYR229      0.1957
     49  OH       -23.8290   12.6630    5.8640 O.3   229  TYR229     -0.2866
     50  N        -13.1970   16.9250   16.5580 N.3   241  ASN241     -0.1240
     51  CA       -13.5120   16.0450   15.4340 C.3   241  ASN241      0.1653
     52  C        -12.3920   16.0130   14.4010 C.2   241  ASN241      0.2266
     53  O        -12.0550   14.9640   13.8690 O.2   241  ASN241     -0.2867
     54  CB       -14.8220   16.4370   14.7210 C.3   241  ASN241      0.1155
     55  CG       -15.1760   15.4540   13.6070 C.2   241  ASN241      0.2627
     56  OD1      -15.4870   14.2870   13.8740 O.2   241  ASN241     -0.2716
     57  ND2      -15.0850   15.9020   12.3590 N.am  241  ASN241     -0.0877
     58  N         -9.7270   12.8900   13.0700 N.3   245  GLU245     -0.1245
     59  CA        -9.5450   12.4940   11.6730 C.3   245  GLU245      0.1567
     60  C         -8.0930   12.2120   11.2930 C.2   245  GLU245      0.2260
     61  O         -7.8260   11.5410   10.2980 O.2   245  GLU245     -0.2867
     62  CB       -10.2230   13.4910   10.7050 C.3   245  GLU245      0.0388
     63  CG       -11.7480   13.3480   10.6420 C.3   245  GLU245      0.1160
     64  CD       -12.2150   11.9810   10.1380 C.2   245  GLU245      0.3649
     65  OE1      -11.3740   11.1560    9.7380 O.co2 245  GLU245     -0.2457
     66  OE2      -13.4360   11.7190   10.1210 O.co2 245  GLU245     -0.2457
     67  N         -9.2970    6.6540    4.9560 N.3   250  TYR250     -0.1241
     68  CA       -10.3980    6.0590    4.1890 C.3   250  TYR250      0.1605
     69  C         -9.9950    5.6040    2.7790 C.2   250  TYR250      0.2264
     70  O        -10.8630    5.3940    1.9360 O.2   250  TYR250     -0.2867
     71  CB       -11.6100    7.0080    4.1570 C.3   250  TYR250      0.0534
     72  CG       -11.9860    7.4700    5.5460 C.ar  250  TYR250     -0.0201
     73  CD1      -12.5430    6.5790    6.4790 C.ar  250  TYR250     -0.0009
     74  CD2      -11.7540    8.7870    5.9440 C.ar  250  TYR250     -0.0009
     75  CE1      -12.8650    7.0020    7.7610 C.ar  250  TYR250      0.0417
     76  CE2      -12.0670    9.2090    7.2280 C.ar  250  TYR250      0.0417
     77  CZ       -12.6150    8.3220    8.1290 C.ar  250  TYR250      0.1957
     78  OH       -12.9280    8.7640    9.3950 O.3   250  TYR250     -0.2866
     79  N        -11.8330   -1.3820    4.5000 N.3   257  PHE257     -0.1241
     80  CA       -11.7830   -0.1690    3.6560 C.3   257  PHE257      0.1605
     81  C        -11.4550    1.1120    4.4280 C.2   257  PHE257      0.2264
     82  O        -11.7630    2.2480    3.9860 O.2   257  PHE257     -0.2867
     83  CB       -13.0510   -0.0240    2.8040 C.3   257  PHE257      0.0534
     84  CG       -13.2590   -1.1640    1.8530 C.ar  257  PHE257     -0.0203
     85  CD1      -12.5530   -1.2200    0.6550 C.ar  257  PHE257     -0.0042
     86  CD2      -14.1340   -2.2010    2.1680 C.ar  257  PHE257     -0.0042
     87  CE1      -12.7300   -2.2810   -0.2200 C.ar  257  PHE257     -0.0003
     88  CE2      -14.3140   -3.2700    1.2950 C.ar  257  PHE257     -0.0003
     89  CZ       -13.6140   -3.3060    0.1010 C.ar  257  PHE257     -0.0000
     90  N        -19.9180    9.4860   15.7070 N.3   316  TRP316     -0.1241
     91  CA       -19.6900    8.7720   14.4470 C.3   316  TRP316      0.1605
     92  C        -19.6620    7.2830   14.6300 C.2   316  TRP316      0.2264
     93  O        -19.9290    6.5520   13.6830 O.2   316  TRP316     -0.2867
     94  CB       -18.4670    9.2990   13.6780 C.3   316  TRP316      0.0550
     95  CG       -18.5350   10.8000   13.4590 C.ar  316  TRP316      0.0003
     96  CD1      -17.5200   11.7410   13.6720 C.ar  316  TRP316      0.0946
     97  CD2      -19.7070   11.6030   13.0490 C.ar  316  TRP316      0.0152
     98  NE1      -17.9600   13.0080   13.3980 N.ar  316  TRP316     -0.2442
     99  CE2      -19.2610   13.0010   13.0370 C.ar  316  TRP316      0.0810
    100  CE3      -21.0340   11.3160   12.7250 C.ar  316  TRP316      0.0012
    101  CZ2      -20.1220   14.0510   12.6950 C.ar  316  TRP316      0.0191
    102  CZ3      -21.8910   12.3760   12.3760 C.ar  316  TRP316      0.0001
    103  CH2      -21.4450   13.7100   12.3650 C.ar  316  TRP316      0.0015
    104  N        -23.3690    6.6230   14.4630 N.3   319  TRP319     -0.1241
    105  CA       -23.6780    6.8870   13.0690 C.3   319  TRP319      0.1605
    106  C        -23.3340    5.7180   12.2030 C.2   319  TRP319      0.2264
    107  O        -24.1260    5.3160   11.3460 O.2   319  TRP319     -0.2867
    108  CB       -22.9150    8.1290   12.6090 C.3   319  TRP319      0.0550
    109  CG       -23.0490    8.4370   11.1310 C.ar  319  TRP319      0.0003
    110  CD1      -24.0260    9.2260   10.4990 C.ar  319  TRP319      0.0946
    111  CD2      -22.1850    7.9590   10.0500 C.ar  319  TRP319      0.0152
    112  NE1      -23.8110    9.2670    9.1360 N.ar  319  TRP319     -0.2442
    113  CE2      -22.7200    8.5350    8.8050 C.ar  319  TRP319      0.0810
    114  CE3      -21.0420    7.1490    9.9880 C.ar  319  TRP319      0.0012
    115  CZ2      -22.1290    8.2870    7.5670 C.ar  319  TRP319      0.0191
    116  CZ3      -20.4640    6.9060    8.7400 C.ar  319  TRP319      0.0001
    117  CH2      -20.9940    7.4640    7.5560 C.ar  319  TRP319      0.0015
    118  N        -23.2980    1.3380    0.4470 N.3   329  ILE329     -0.1231
    119  CA       -21.9160    1.5520    0.0220 C.3   329  ILE329      0.1692
    120  C        -21.0140    0.5250    0.7070 C.2   329  ILE329      0.2592
    121  O        -21.1670    0.2540    1.9000 O.2   329  ILE329     -0.2718
    122  CB       -21.4400    2.9820    0.3700 C.3   329  ILE329      0.0266
    123  CG1      -22.4990    4.0160   -0.0480 C.3   329  ILE329      0.0019
    124  CG2      -20.0840    3.2740   -0.2650 C.3   329  ILE329      0.0020
    125  CD1      -22.4720    5.3110    0.7400 C.3   329  ILE329      0.0001
    126  N        -20.0820   -0.0370   -0.0580 N.am  330  GLU330     -0.1966
    127  CA       -19.1470   -1.0650    0.4150 C.3   330  GLU330      0.1733
    128  C        -18.0740   -0.5060    1.3780 C.2   330  GLU330      0.2616
    129  O        -17.1060    0.1360    0.9470 O.2   330  GLU330     -0.2715
    130  CB       -18.4960   -1.7250   -0.8030 C.3   330  GLU330      0.0429
    131  CG       -17.5560   -2.8860   -0.5240 C.3   330  GLU330      0.1163
    132  CD       -16.7570   -3.2680   -1.7590 C.2   330  GLU330      0.3649
    133  OE1      -16.4920   -2.3790   -2.6080 O.co2 330  GLU330     -0.2457
    134  OE2      -16.3910   -4.4560   -1.8840 O.co2 330  GLU330     -0.2457
    135  N        -18.2490   -0.7770    2.6740 N.am  331  PHE331     -0.1974
    136  CA       -17.3950   -0.2270    3.7290 C.3   331  PHE331      0.1639
    137  C        -17.6640   -1.0100    5.0090 C.2   331  PHE331      0.2290
    138  O        -18.8030   -1.3670    5.2750 O.2   331  PHE331     -0.2864
    139  CB       -17.7090    1.2610    3.9290 C.3   331  PHE331      0.0560
    140  CG       -16.8310    1.9610    4.9430 C.ar  331  PHE331     -0.0200
    141  CD1      -15.5830    2.4610    4.5810 C.ar  331  PHE331     -0.0042
    142  CD2      -17.2780    2.1690    6.2500 C.ar  331  PHE331     -0.0042
    143  CE1      -14.7790    3.1220    5.5080 C.ar  331  PHE331     -0.0003
    144  CE2      -16.4810    2.8360    7.1800 C.ar  331  PHE331     -0.0003
    145  CZ       -15.2230    3.3120    6.8080 C.ar  331  PHE331     -0.0000
    146  N        -18.5750   -0.7700    8.1030 N.3   333  TYR333     -0.1241
    147  CA       -19.2250    0.1220    9.0890 C.3   333  TYR333      0.1605
    148  C        -19.2210   -0.3910   10.5450 C.2   333  TYR333      0.2264
    149  O        -19.0680    0.3960   11.4900 O.2   333  TYR333     -0.2867
    150  CB       -20.6620    0.4230    8.6770 C.3   333  TYR333      0.0534
    151  CG       -20.8070    1.3430    7.4750 C.ar  333  TYR333     -0.0201
    152  CD1      -20.5090    2.7000    7.5750 C.ar  333  TYR333     -0.0009
    153  CD2      -21.2480    0.8490    6.2400 C.ar  333  TYR333     -0.0009
    154  CE1      -20.6380    3.5440    6.4750 C.ar  333  TYR333      0.0417
    155  CE2      -21.3880    1.6840    5.1380 C.ar  333  TYR333      0.0417
    156  CZ       -21.0920    3.0320    5.2640 C.ar  333  TYR333      0.1957
    157  OH       -21.2300    3.8710    4.1760 O.3   333  TYR333     -0.2866
    158  N        -15.7620   -0.2040   11.8190 N.3   336  TYR336     -0.1241
    159  CA       -15.4570    1.2170   12.0250 C.3   336  TYR336      0.1605
    160  C        -16.0500    1.7520   13.3380 C.2   336  TYR336      0.2264
    161  O        -15.3760    2.4770   14.0910 O.2   336  TYR336     -0.2867
    162  CB       -15.9230    2.0560   10.8320 C.3   336  TYR336      0.0534
    163  CG       -15.5580    3.5290   10.9740 C.ar  336  TYR336     -0.0201
    164  CD1      -14.2490    3.9680   10.7490 C.ar  336  TYR336     -0.0009
    165  CD2      -16.5150    4.4690   11.3260 C.ar  336  TYR336     -0.0009
    166  CE1      -13.9190    5.3190   10.8770 C.ar  336  TYR336      0.0417
    167  CE2      -16.1960    5.8210   11.4470 C.ar  336  TYR336      0.0417
    168  CZ       -14.8960    6.2290   11.2230 C.ar  336  TYR336      0.1957
    169  OH       -14.5640    7.5500   11.3260 O.3   336  TYR336     -0.2866
    170  N        -14.1280    3.3500   16.5730 N.3   340  ARG340     -0.1245
    171  CA       -14.4220    4.6360   17.2120 C.3   340  ARG340      0.1563
    172  C        -14.6620    4.4370   18.7220 C.2   340  ARG340      0.2260
    173  O        -14.2300    5.2650   19.5490 O.2   340  ARG340     -0.2867
    174  CB       -15.6030    5.3380   16.5300 C.3   340  ARG340      0.0307
    175  CG       -15.3850    5.6740   15.0520 C.3   340  ARG340      0.0489
    176  CD       -14.1230    6.5220   14.7590 C.3   340  ARG340      0.2205
    177  NE       -13.9830    7.7720   15.5370 N.pl3 340  ARG340     -0.0865
    178  CZ       -14.1960    9.0140   15.0690 C.cat 340  ARG340      0.5346
    179  NH1      -14.5740    9.2330   13.8020 N.pl3 340  ARG340      0.1354
    180  NH2      -14.0180   10.0580   15.8630 N.pl3 340  ARG340      0.1354
@<TRIPOS>BOND
     1   133   132   ar
     2   134   132   ar
     3   132   131    1
     4   130   131    1
     5   130   127    1
     6   124   122    1
     7    87    89   ar
     8    87    85   ar
     9   126   127    1
    10   126   120   am
    11   123   122    1
    12   123   125    1
    13   119   122    1
    14   119   118    1
    15   119   120    1
    16    89    88   ar
    17   127   128    1
    18    85    84   ar
    19   120   121    2
    20   129   128    2
    21    88    86   ar
    22   128   135   am
    23    84    86   ar
    24    84    83    1
    25    70    69    2
    26   135   136    1
    27    69    68    1
    28    83    80    1
    29    80    81    1
    30    80    79    1
    31   136   139    1
    32   136   137    1
    33   139   140    1
    34    82    81    2
    35    71    68    1
    36    71    72    1
    37   157   156    1
    38    68    67    1
    39   141   140   ar
    40   141   143   ar
    41    36    35    2
    42   140   142   ar
    43   137   138    2
    44   155   156   ar
    45   155   153   ar
    46   156   154   ar
    47    32    31    2
    48   143   145   ar
    49    72    74   ar
    50    72    73   ar
    51    35    34    1
    52    35    37   am
    53    49    48    1
    54    74    76   ar
    55    31    30    1
    56    47    48   ar
    57    47    45   ar
    58    34    33    1
    59   153   151   ar
    60   142   144   ar
    61    28    26   ar
    62   154   152   ar
    63    73    75   ar
    64    48    46   ar
    65    38    39    1
    66    45    43   ar
    67   145   144   ar
    68    33    30    1
    69    76    77   ar
    70    24    23    2
    71    30    29    1
    72    26    27   ar
    73    26    25    1
    74   151   152   ar
    75   151   150    1
    76    46    44   ar
    77   117   115   ar
    78   117   116   ar
    79   115   113   ar
    80    75    77   ar
    81    43    44   ar
    82    43    42    1
    83    25    22    1
    84    39    42    1
    85    39    40    1
    86   146   147    1
    87    77    78    1
    88    23    22    1
    89   150   147    1
    90   116   114   ar
    91   113   112   ar
    92   113   111   ar
    93    40    41    2
    94    22    21    1
    95   147   148    1
    96   112   110   ar
    97    65    64   ar
    98    21    15   am
    99   114   111   ar
   100   111   109   ar
   101    66    64   ar
   102    64    63    1
   103    61    60    2
   104   110   109   ar
   105   148   149    2
   106    63    62    1
   107    62    59    1
   108   164   166   ar
   109   164   163   ar
   110   162   163    1
   111   162   159    1
   112   166   168   ar
   113    15    16    2
   114    15    14    1
   115   163   165   ar
   116    13    14    1
   117   109   108    1
   118   168   169    1
   119   168   167   ar
   120    60    59    1
   121   165   167   ar
   122   107   106    2
   123    14    17    1
   124    59    58    1
   125    12    11    1
   126   158   159    1
   127    17    18    1
   128   159   160    1
   129   106   105    1
   130    57    55   am
   131   103   102   ar
   132   103   101   ar
   133   102   100   ar
   134   108   105    1
   135    20    18   am
   136   101    99   ar
   137   100    97   ar
   138    11     9   ar
   139    11    10   ar
   140    18    19    2
   141     9     7   ar
   142    99    97   ar
   143    99    98   ar
   144    97    95   ar
   145   105   104    1
   146   160   161    2
   147    98    96   ar
   148    95    96   ar
   149    95    94    1
   150    55    56    2
   151    55    54    1
   152    94    91    1
   153    93    92    2
   154    10     8   ar
   155   179   178    1
   156    53    52    2
   157     7     6   ar
   158    52    51    1
   159    91    92    1
   160    91    90    1
   161    54    51    1
   162   176   175    1
   163   176   177    1
   164     8     6   ar
   165   175   174    1
   166   178   177    2
   167   178   180    1
   168     6     5    1
   169    51    50    1
   170     5     2    1
   171   174   171    1
   172   170   171    1
   173     2     1    1
   174     2     3    1
   175   171   172    1
   176     4     3    2
   177   172   173    2
