@<TRIPOS>MOLECULE
tmp/4cgaA00.pdb
 183 182 0 0 0
SMALL
GASTEIGER

@<TRIPOS>ATOM
      1  N        -27.8670   20.5440   18.5090 N.3   145  TRP145     -0.1241
      2  CA       -27.4300   19.6180   17.4540 C.3   145  TRP145      0.1605
      3  C        -26.6640   18.4220   17.9690 C.2   145  TRP145      0.2264
      4  O        -26.9650   17.2910   17.5870 O.2   145  TRP145     -0.2867
      5  CB       -26.5840   20.3480   16.3930 C.3   145  TRP145      0.0550
      6  CG       -26.1400   19.4620   15.2360 C.ar  145  TRP145      0.0003
      7  CD1      -26.8270   19.2010   14.0380 C.ar  145  TRP145      0.0946
      8  CD2      -24.8810   18.7100   15.1180 C.ar  145  TRP145      0.0152
      9  NE1      -26.1090   18.3530   13.2310 N.ar  145  TRP145     -0.2442
     10  CE2      -24.9240   18.0320   13.8120 C.ar  145  TRP145      0.0810
     11  CE3      -23.7550   18.5460   15.9290 C.ar  145  TRP145      0.0012
     12  CZ2      -23.8870   17.2140   13.3710 C.ar  145  TRP145      0.0191
     13  CZ3      -22.7220   17.7140   15.4750 C.ar  145  TRP145      0.0001
     14  CH2      -22.7850   17.0730   14.2230 C.ar  145  TRP145      0.0015
     15  N        -29.6640    9.0100   17.1710 N.3   153  TYR153     -0.1241
     16  CA       -28.9160    7.8600   16.7050 C.3   153  TYR153      0.1605
     17  C        -28.9490    6.7140   17.7130 C.2   153  TYR153      0.2264
     18  O        -29.1100    5.5470   17.3270 O.2   153  TYR153     -0.2867
     19  CB       -27.4640    8.2500   16.4130 C.3   153  TYR153      0.0534
     20  CG       -27.2130    9.1130   15.1800 C.ar  153  TYR153     -0.0201
     21  CD1      -28.1800    9.2890   14.1900 C.ar  153  TYR153     -0.0009
     22  CD2      -25.9600    9.7080   14.9860 C.ar  153  TYR153     -0.0009
     23  CE1      -27.9160   10.0660   13.0560 C.ar  153  TYR153      0.0417
     24  CE2      -25.6860   10.4720   13.8540 C.ar  153  TYR153      0.0417
     25  CZ       -26.6580   10.6470   12.9020 C.ar  153  TYR153      0.1957
     26  OH       -26.3480   11.4170   11.7980 O.3   153  TYR153     -0.2866
     27  N        -18.6610   20.7440   11.1260 N.3   202  ASN202     -0.1225
     28  CA       -19.0260   19.4110   11.6480 C.3   202  ASN202      0.1785
     29  C        -18.4220   18.2090   10.9220 C.2   202  ASN202      0.2597
     30  O        -18.6470   17.0710   11.3290 O.2   202  ASN202     -0.2718
     31  CB       -20.5430   19.2610   11.8110 C.3   202  ASN202      0.1169
     32  CG       -21.1100   20.1970   12.8640 C.2   202  ASN202      0.2627
     33  OD1      -20.4950   20.4260   13.9080 O.2   202  ASN202     -0.2716
     34  ND2      -22.2770   20.7600   12.5810 N.am  202  ASN202     -0.0877
     35  N        -17.6360   18.4540    9.8760 N.am  203  ASP203     -0.1974
     36  CA       -17.0820   17.3520    9.0710 C.3   203  ASP203      0.1709
     37  C        -15.7460   17.7590    8.4370 C.2   203  ASP203      0.2293
     38  O        -15.5210   17.5160    7.2510 O.2   203  ASP203     -0.2864
     39  CB       -18.1150   16.9170    7.9990 C.3   203  ASP203      0.1436
     40  CG       -17.7660   15.5820    7.3240 C.2   203  ASP203      0.3671
     41  OD1      -16.9090   14.8100    7.8140 O.co2 203  ASP203     -0.2456
     42  OD2      -18.3690   15.3260    6.2720 O.co2 203  ASP203     -0.2456
     43  N        -12.7820   16.9250    7.5990 N.3   205  GLN205     -0.1245
     44  CA       -11.8560   15.8390    7.2820 C.3   205  GLN205      0.1566
     45  C        -11.1390   16.1570    5.9550 C.2   205  GLN205      0.2260
     46  O        -11.5790   17.0260    5.2040 O.2   205  GLN205     -0.2867
     47  CB       -12.6330   14.5430    7.1630 C.3   205  GLN205      0.0367
     48  CG       -13.7720   14.6360    6.1590 C.3   205  GLN205      0.0905
     49  CD       -14.0500   13.3390    5.4780 C.2   205  GLN205      0.2608
     50  OE1      -13.2150   12.8360    4.7220 O.2   205  GLN205     -0.2717
     51  NE2      -15.2440   12.7960    5.7080 N.am  205  GLN205     -0.0878
     52  N        -23.5530   19.3330    6.4520 N.3   230  TYR230     -0.1241
     53  CA       -23.8500   18.9610    7.8360 C.3   230  TYR230      0.1605
     54  C        -23.6170   20.0790    8.8500 C.2   230  TYR230      0.2264
     55  O        -23.7130   19.8630   10.0600 O.2   230  TYR230     -0.2867
     56  CB       -23.0760   17.7010    8.2240 C.3   230  TYR230      0.0534
     57  CG       -23.2420   16.6010    7.2040 C.ar  230  TYR230     -0.0201
     58  CD1      -24.4300   15.8630    7.1200 C.ar  230  TYR230     -0.0009
     59  CD2      -22.2260   16.3170    6.2990 C.ar  230  TYR230     -0.0009
     60  CE1      -24.5900   14.8660    6.1600 C.ar  230  TYR230      0.0417
     61  CE2      -22.3670   15.3230    5.3430 C.ar  230  TYR230      0.0417
     62  CZ       -23.5450   14.6010    5.2750 C.ar  230  TYR230      0.1957
     63  OH       -23.6550   13.6120    4.3190 O.3   230  TYR230     -0.2866
     64  N        -13.2090   17.1810   16.4270 N.3   242  ASN242     -0.1240
     65  CA       -13.5510   16.2820   15.3250 C.3   242  ASN242      0.1653
     66  C        -12.4610   16.2830   14.2690 C.2   242  ASN242      0.2266
     67  O        -12.0730   15.2290   13.7570 O.2   242  ASN242     -0.2867
     68  CB       -14.8840   16.6530   14.6640 C.3   242  ASN242      0.1155
     69  CG       -15.2370   15.7130   13.5120 C.2   242  ASN242      0.2627
     70  OD1      -15.5660   14.5420   13.7300 O.2   242  ASN242     -0.2716
     71  ND2      -15.1630   16.2230   12.2750 N.am  242  ASN242     -0.0877
     72  N         -9.8840   13.2230   12.9620 N.3   246  GLU246     -0.1245
     73  CA        -9.7110   12.8480   11.5500 C.3   246  GLU246      0.1567
     74  C         -8.2620   12.5860   11.1250 C.2   246  GLU246      0.2260
     75  O         -8.0320   11.9750   10.1040 O.2   246  GLU246     -0.2867
     76  CB       -10.4350   13.8410   10.6170 C.3   246  GLU246      0.0388
     77  CG       -11.9550   13.6660   10.6780 C.3   246  GLU246      0.1160
     78  CD       -12.4300   12.3730   10.0060 C.2   246  GLU246      0.3649
     79  OE1      -11.6110   11.6600    9.4070 O.co2 246  GLU246     -0.2457
     80  OE2      -13.6410   12.0830   10.0430 O.co2 246  GLU246     -0.2457
     81  N         -9.6900    6.9920    4.7560 N.3   251  TYR251     -0.1241
     82  CA       -10.8890    6.4150    4.1070 C.3   251  TYR251      0.1605
     83  C        -10.6120    5.9960    2.6630 C.2   251  TYR251      0.2264
     84  O        -11.5440    5.7240    1.8970 O.2   251  TYR251     -0.2867
     85  CB       -12.0660    7.4060    4.1130 C.3   251  TYR251      0.0534
     86  CG       -12.4140    7.9270    5.4900 C.ar  251  TYR251     -0.0201
     87  CD1      -12.9120    7.0690    6.4700 C.ar  251  TYR251     -0.0009
     88  CD2      -12.2430    9.2780    5.8170 C.ar  251  TYR251     -0.0009
     89  CE1      -13.2230    7.5290    7.7390 C.ar  251  TYR251      0.0417
     90  CE2      -12.5350    9.7430    7.1030 C.ar  251  TYR251      0.0417
     91  CZ       -13.0340    8.8640    8.0530 C.ar  251  TYR251      0.1957
     92  OH       -13.3400    9.2950    9.3350 O.3   251  TYR251     -0.2866
     93  N        -12.1460   -0.8360    4.1130 N.3   258  PHE258     -0.1241
     94  CA       -12.1360    0.3790    3.2830 C.3   258  PHE258      0.1605
     95  C        -11.8110    1.6340    4.0980 C.2   258  PHE258      0.2264
     96  O        -12.0600    2.7580    3.6570 O.2   258  PHE258     -0.2867
     97  CB       -13.4330    0.5430    2.4680 C.3   258  PHE258      0.0534
     98  CG       -13.7280   -0.6320    1.5700 C.ar  258  PHE258     -0.0203
     99  CD1      -13.1170   -0.7330    0.3210 C.ar  258  PHE258     -0.0042
    100  CD2      -14.5860   -1.6440    1.9850 C.ar  258  PHE258     -0.0042
    101  CE1      -13.3720   -1.8190   -0.5060 C.ar  258  PHE258     -0.0003
    102  CE2      -14.8420   -2.7360    1.1680 C.ar  258  PHE258     -0.0003
    103  CZ       -14.2420   -2.8180   -0.0820 C.ar  258  PHE258     -0.0000
    104  N        -20.0140    9.7330   15.7900 N.3   317  TRP317     -0.1241
    105  CA       -19.7520    9.0200   14.5330 C.3   317  TRP317      0.1605
    106  C        -19.7600    7.5080   14.6900 C.2   317  TRP317      0.2264
    107  O        -20.0990    6.7870   13.7380 O.2   317  TRP317     -0.2867
    108  CB       -18.5160    9.5640   13.8010 C.3   317  TRP317      0.0550
    109  CG       -18.6230   11.0720   13.5750 C.ar  317  TRP317      0.0003
    110  CD1      -17.6210   12.0340   13.7460 C.ar  317  TRP317      0.0946
    111  CD2      -19.8280   11.8430   13.1750 C.ar  317  TRP317      0.0152
    112  NE1      -18.1000   13.2980   13.4740 N.ar  317  TRP317     -0.2442
    113  CE2      -19.4140   13.2550   13.1210 C.ar  317  TRP317      0.0810
    114  CE3      -21.1570   11.5100   12.8500 C.ar  317  TRP317      0.0012
    115  CZ2      -20.3060   14.2710   12.7780 C.ar  317  TRP317      0.0191
    116  CZ3      -22.0430   12.5440   12.5080 C.ar  317  TRP317      0.0001
    117  CH2      -21.6260   13.8930   12.4890 C.ar  317  TRP317      0.0015
    118  N        -23.4600    6.8980   14.4830 N.3   320  TRP320     -0.1241
    119  CA       -23.7610    7.1640   13.0770 C.3   320  TRP320      0.1605
    120  C        -23.4540    5.9750   12.1960 C.2   320  TRP320      0.2264
    121  O        -24.2460    5.6310   11.3180 O.2   320  TRP320     -0.2867
    122  CB       -23.0150    8.4250   12.5970 C.3   320  TRP320      0.0550
    123  CG       -23.1310    8.6730   11.0970 C.ar  320  TRP320      0.0003
    124  CD1      -24.1120    9.4180   10.4330 C.ar  320  TRP320      0.0946
    125  CD2      -22.2480    8.1670   10.0450 C.ar  320  TRP320      0.0152
    126  NE1      -23.8760    9.4340    9.0740 N.ar  320  TRP320     -0.2442
    127  CE2      -22.7790    8.6840    8.7740 C.ar  320  TRP320      0.0810
    128  CE3      -21.0930    7.3710   10.0260 C.ar  320  TRP320      0.0012
    129  CZ2      -22.1800    8.3950    7.5600 C.ar  320  TRP320      0.0191
    130  CZ3      -20.5050    7.0790    8.7900 C.ar  320  TRP320      0.0001
    131  CH2      -21.0360    7.5820    7.5840 C.ar  320  TRP320      0.0015
    132  N        -24.3810    2.0690    0.4700 N.3   330  ILE330     -0.1231
    133  CA       -22.9580    2.1910    0.1050 C.3   330  ILE330      0.1692
    134  C        -22.1160    1.1120    0.7920 C.2   330  ILE330      0.2592
    135  O        -22.3320    0.8080    1.9700 O.2   330  ILE330     -0.2718
    136  CB       -22.4050    3.5960    0.4520 C.3   330  ILE330      0.0266
    137  CG1      -23.2290    4.6830   -0.2470 C.3   330  ILE330      0.0019
    138  CG2      -20.9360    3.7170    0.0620 C.3   330  ILE330      0.0020
    139  CD1      -23.2390    6.0260    0.4610 C.3   330  ILE330      0.0001
    140  N        -21.1640    0.5360    0.0560 N.am  331  GLU331     -0.1966
    141  CA       -20.2230   -0.4250    0.6240 C.3   331  GLU331      0.1733
    142  C        -19.1730    0.2730    1.4900 C.2   331  GLU331      0.2616
    143  O        -18.5590    1.2460    1.0540 O.2   331  GLU331     -0.2715
    144  CB       -19.5370   -1.2330   -0.4810 C.3   331  GLU331      0.0429
    145  CG       -18.7390   -2.4260    0.0310 C.3   331  GLU331      0.1163
    146  CD       -18.0880   -3.2350   -1.0790 C.2   331  GLU331      0.3649
    147  OE1      -18.2060   -2.8520   -2.2640 O.co2 331  GLU331     -0.2457
    148  OE2      -17.4450   -4.2600   -0.7650 O.co2 331  GLU331     -0.2457
    149  N        -18.9870   -0.2450    2.7100 N.am  332  PHE332     -0.1974
    150  CA       -18.0230    0.2640    3.7100 C.3   332  PHE332      0.1639
    151  C        -18.1310   -0.6380    4.9440 C.2   332  PHE332      0.2290
    152  O        -19.2160   -1.1010    5.2540 O.2   332  PHE332     -0.2864
    153  CB       -18.3580    1.7070    4.1110 C.3   332  PHE332      0.0560
    154  CG       -17.3040    2.3720    4.9780 C.ar  332  PHE332     -0.0200
    155  CD1      -16.1160    2.8260    4.4310 C.ar  332  PHE332     -0.0042
    156  CD2      -17.5150    2.5490    6.3450 C.ar  332  PHE332     -0.0042
    157  CE1      -15.1560    3.4300    5.2320 C.ar  332  PHE332     -0.0003
    158  CE2      -16.5640    3.1660    7.1520 C.ar  332  PHE332     -0.0003
    159  CZ       -15.3760    3.6030    6.5940 C.ar  332  PHE332     -0.0000
    160  N        -18.8930   -0.5170    8.0600 N.3   334  TYR334     -0.1241
    161  CA       -19.4940    0.3710    9.0730 C.3   334  TYR334      0.1605
    162  C        -19.4030   -0.1590   10.5100 C.2   334  TYR334      0.2264
    163  O        -19.1870    0.6130   11.4430 O.2   334  TYR334     -0.2867
    164  CB       -20.9430    0.7090    8.7410 C.3   334  TYR334      0.0534
    165  CG       -21.1190    1.5550    7.4950 C.ar  334  TYR334     -0.0201
    166  CD1      -20.7830    2.9070    7.4960 C.ar  334  TYR334     -0.0009
    167  CD2      -21.6350    1.0020    6.3220 C.ar  334  TYR334     -0.0009
    168  CE1      -20.9340    3.6840    6.3430 C.ar  334  TYR334      0.0417
    169  CE2      -21.8110    1.7730    5.1770 C.ar  334  TYR334      0.0417
    170  CZ       -21.4570    3.1070    5.1980 C.ar  334  TYR334      0.1957
    171  OH       -21.6080    3.8720    4.0590 O.3   334  TYR334     -0.2866
    172  N        -15.7890    0.1790   11.6530 N.3   337  TYR337     -0.1241
    173  CA       -15.5260    1.6080   11.8930 C.3   337  TYR337      0.1605
    174  C        -16.1170    2.0730   13.2250 C.2   337  TYR337      0.2264
    175  O        -15.4410    2.7420   14.0100 O.2   337  TYR337     -0.2867
    176  CB       -16.0900    2.4650   10.7670 C.3   337  TYR337      0.0534
    177  CG       -15.7260    3.9220   10.9170 C.ar  337  TYR337     -0.0201
    178  CD1      -14.4250    4.3540   10.6910 C.ar  337  TYR337     -0.0009
    179  CD2      -16.6850    4.8570   11.2900 C.ar  337  TYR337     -0.0009
    180  CE1      -14.0850    5.6990   10.8270 C.ar  337  TYR337      0.0417
    181  CE2      -16.3550    6.2040   11.4390 C.ar  337  TYR337      0.0417
    182  CZ       -15.0520    6.6130   11.1900 C.ar  337  TYR337      0.1957
    183  OH       -14.7170    7.9500   11.3280 O.3   337  TYR337     -0.2866
@<TRIPOS>BOND
     1   147   146   ar
     2   146   148   ar
     3   146   145    1
     4   101   103   ar
     5   101    99   ar
     6   144   145    1
     7   144   141    1
     8   137   136    1
     9   137   139    1
    10   103   102   ar
    11   140   141    1
    12   140   134   am
    13   138   136    1
    14   133   136    1
    15   133   132    1
    16   133   134    1
    17    99    98   ar
    18   141   142    1
    19   134   135    2
    20   143   142    2
    21   102   100   ar
    22   142   149   am
    23    98   100   ar
    24    98    97    1
    25    84    83    2
    26    97    94    1
    27    83    82    1
    28   149   150    1
    29    94    95    1
    30    94    93    1
    31    96    95    2
    32   150   153    1
    33   150   151    1
    34   171   170    1
    35    82    85    1
    36    82    81    1
    37   153   154    1
    38    85    86    1
    39    63    62    1
    40   155   154   ar
    41   155   157   ar
    42    50    49    2
    43   151   152    2
    44   154   156   ar
    45   169   170   ar
    46   169   167   ar
    47   170   168   ar
    48    46    45    2
    49   157   159   ar
    50    62    61   ar
    51    62    60   ar
    52    61    59   ar
    53    49    51   am
    54    49    48    1
    55    86    88   ar
    56    86    87   ar
    57    88    90   ar
    58    45    44    1
    59    48    47    1
    60    60    58   ar
    61    42    40   ar
    62    59    57   ar
    63   167   165   ar
    64   168   166   ar
    65   156   158   ar
    66    52    53    1
    67    87    89   ar
    68   159   158   ar
    69    90    91   ar
    70    58    57   ar
    71    47    44    1
    72    57    56    1
    73    38    37    2
    74    44    43    1
    75    40    41   ar
    76    40    39    1
    77   165   166   ar
    78   165   164    1
    79   129   131   ar
    80   129   127   ar
    81   131   130   ar
    82    89    91   ar
    83    53    56    1
    84    53    54    1
    85    39    36    1
    86    91    92    1
    87   160   161    1
    88    37    36    1
    89   164   161    1
    90   127   126   ar
    91   127   125   ar
    92   130   128   ar
    93    54    55    2
    94    36    35    1
    95   161   162    1
    96   126   124   ar
    97    79    78   ar
    98    35    29   am
    99    78    80   ar
   100    78    77    1
   101   128   125   ar
   102   125   123   ar
   103    75    74    2
   104   124   123   ar
   105   162   163    2
   106    76    77    1
   107    76    73    1
   108   178   180   ar
   109   178   177   ar
   110   176   177    1
   111   176   173    1
   112   180   182   ar
   113   177   179   ar
   114    29    30    2
   115    29    28    1
   116   123   122    1
   117    74    73    1
   118    27    28    1
   119   182   183    1
   120   182   181   ar
   121   179   181   ar
   122   121   120    2
   123    73    72    1
   124    28    31    1
   125   172   173    1
   126    26    25    1
   127    31    32    1
   128   173   174    1
   129   120   119    1
   130    71    69   am
   131   117   116   ar
   132   117   115   ar
   133   116   114   ar
   134    34    32   am
   135   122   119    1
   136   115   113   ar
   137   114   111   ar
   138    32    33    2
   139    25    23   ar
   140    25    24   ar
   141    23    21   ar
   142   119   118    1
   143   113   111   ar
   144   113   112   ar
   145   111   109   ar
   146   174   175    2
   147     9    10   ar
   148     9     7   ar
   149    12    10   ar
   150    12    14   ar
   151   112   110   ar
   152    69    70    2
   153    69    68    1
   154   109   110   ar
   155   109   108    1
   156   107   106    2
   157    67    66    2
   158   108   105    1
   159    10     8   ar
   160    24    22   ar
   161     7     6   ar
   162    21    20   ar
   163    14    13   ar
   164    66    65    1
   165   105   106    1
   166   105   104    1
   167    68    65    1
   168    22    20   ar
   169     8     6   ar
   170     8    11   ar
   171    20    19    1
   172     6     5    1
   173    65    64    1
   174    13    11   ar
   175     5     2    1
   176    19    16    1
   177    16    15    1
   178    16    17    1
   179    18    17    2
   180     2     3    1
   181     2     1    1
   182     4     3    2
