@<TRIPOS>MOLECULE
tmp/4cggA00.pdb
 97 95 0 0 0
SMALL
GASTEIGER

@<TRIPOS>ATOM
      1  N         21.9430   -7.9200   -0.7010 N.3    32  GLU32      -0.1245
      2  CA        22.2230   -6.5990   -0.1400 C.3    32  GLU32       0.1567
      3  C         23.0760   -5.7800   -1.1100 C.2    32  GLU32       0.2260
      4  O         23.8410   -6.3330   -1.8970 O.2    32  GLU32      -0.2867
      5  CB        22.9220   -6.7060    1.2330 C.3    32  GLU32       0.0388
      6  CG        24.3870   -7.1130    1.1770 C.3    32  GLU32       0.1160
      7  CD        25.1200   -7.0060    2.5060 C.2    32  GLU32       0.3649
      8  OE1       24.5010   -6.8230    3.5820 O.co2  32  GLU32      -0.2457
      9  OE2       26.3560   -7.1270    2.4680 O.co2  32  GLU32      -0.2457
     10  N         35.1060   -8.1680    5.1420 N.3    40  GLN40      -0.1231
     11  CA        34.2550   -7.7220    6.2420 C.3    40  GLN40       0.1698
     12  C         32.7830   -7.6670    5.8470 C.2    40  GLN40       0.2592
     13  O         31.9300   -8.1290    6.6030 O.2    40  GLN40      -0.2718
     14  CB        34.6970   -6.3660    6.7860 C.3    40  GLN40       0.0381
     15  CG        35.7670   -6.4670    7.8560 C.3    40  GLN40       0.0905
     16  CD        36.0570   -5.1330    8.5100 C.2    40  GLN40       0.2608
     17  OE1       37.1320   -4.5780    8.3330 O.2    40  GLN40      -0.2717
     18  NE2       35.0910   -4.6090    9.2660 N.am   40  GLN40      -0.0878
     19  N         32.4870   -7.1050    4.6780 N.am   41  GLU41      -0.1979
     20  CA        31.0940   -7.0490    4.1890 C.3    41  GLU41       0.1602
     21  C         30.5330   -8.4490    3.9630 C.2    41  GLU41       0.2287
     22  O         29.3970   -8.7430    4.3520 O.2    41  GLU41      -0.2864
     23  CB        30.9810   -6.2270    2.8960 C.3    41  GLU41       0.0415
     24  CG        31.2360   -4.7310    3.0630 C.3    41  GLU41       0.1163
     25  CD        30.1420   -3.9840    3.8200 C.2    41  GLU41       0.3649
     26  OE1       29.0690   -4.5530    4.1100 O.co2  41  GLU41      -0.2457
     27  OE2       30.3620   -2.7920    4.1220 O.co2  41  GLU41      -0.2457
     28  N         31.5490  -11.2740    5.3450 N.3    43  ALA43      -0.1231
     29  CA        31.4400  -11.9330    6.6470 C.3    43  ALA43       0.1694
     30  C         30.1420  -11.5540    7.3570 C.2    43  ALA43       0.2592
     31  O         29.4230  -12.4190    7.8690 O.2    43  ALA43      -0.2718
     32  CB        32.6370  -11.5700    7.5150 C.3    43  ALA43       0.0304
     33  N         29.8430  -10.2600    7.3660 N.am   44  TYR44      -0.1976
     34  CA        28.6420   -9.7420    8.0130 C.3    44  TYR44       0.1639
     35  C         27.3780  -10.2670    7.3360 C.2    44  TYR44       0.2290
     36  O         26.4130  -10.6520    8.0000 O.2    44  TYR44      -0.2864
     37  CB        28.6600   -8.2110    8.0030 C.3    44  TYR44       0.0560
     38  CG        27.4740   -7.5970    8.7000 C.ar   44  TYR44      -0.0198
     39  CD1       27.3190   -7.7090   10.0750 C.ar   44  TYR44      -0.0009
     40  CD2       26.5020   -6.9030    7.9830 C.ar   44  TYR44      -0.0009
     41  CE1       26.2280   -7.1500   10.7200 C.ar   44  TYR44       0.0417
     42  CE2       25.4150   -6.3360    8.6180 C.ar   44  TYR44       0.0417
     43  CZ        25.2790   -6.4620    9.9870 C.ar   44  TYR44       0.1957
     44  OH        24.1870   -5.9210   10.6300 O.3    44  TYR44      -0.2866
     45  N         26.8910  -13.8670    8.3660 N.3    47  LEU47      -0.1245
     46  CA        26.3830  -13.9070    9.7300 C.3    47  LEU47       0.1561
     47  C         24.8670  -13.6800    9.7450 C.2    47  LEU47       0.2260
     48  O         24.1290  -14.4180   10.3990 O.2    47  LEU47      -0.2867
     49  CB        27.0970  -12.8750   10.6080 C.3    47  LEU47       0.0270
     50  CG        26.5630  -12.7180   12.0290 C.3    47  LEU47       0.0019
     51  CD1       26.6000  -14.0310   12.8080 C.3    47  LEU47       0.0001
     52  CD2       27.3590  -11.6450   12.7460 C.3    47  LEU47       0.0001
     53  N         38.5500  -12.8610    7.8020 N.3    70  THR70      -0.1218
     54  CA        37.2920  -12.3640    8.3480 C.3    70  THR70       0.1862
     55  C         36.1110  -13.2520    7.9180 C.2    70  THR70       0.2287
     56  O         35.2330  -13.5720    8.7290 O.2    70  THR70      -0.2866
     57  CB        37.0740  -10.8960    7.9350 C.3    70  THR70       0.1770
     58  OG1       38.2700  -10.1430    8.1870 O.3    70  THR70      -0.2211
     59  CG2       35.9250  -10.2740    8.7010 C.3    70  THR70       0.0375
     60  N         36.4190  -16.4520    9.8020 N.3    73  ALA73      -0.1231
     61  CA        35.9830  -16.2290   11.1890 C.3    73  ALA73       0.1694
     62  C         34.4620  -16.2560   11.3140 C.2    73  ALA73       0.2591
     63  O         33.9160  -16.8630   12.2400 O.2    73  ALA73      -0.2718
     64  CB        36.5390  -14.9210   11.7230 C.3    73  ALA73       0.0304
     65  N         33.7780  -15.6150   10.3720 N.am   74  ALA74      -0.1980
     66  CA        32.3130  -15.6190   10.3620 C.3    74  ALA74       0.1597
     67  C         31.7590  -17.0200   10.1480 C.2    74  ALA74       0.2287
     68  O         30.8050  -17.4320   10.8200 O.2    74  ALA74      -0.2864
     69  CB        31.7870  -14.6670    9.2970 C.3    74  ALA74       0.0319
     70  N         33.2900  -19.8640   10.8160 N.3    76  TRP76      -0.1227
     71  CA        33.5460  -20.5810   12.0610 C.3    76  TRP76       0.1737
     72  C         32.4840  -20.2290   13.1130 C.2    76  TRP76       0.2595
     73  O         31.8760  -21.1120   13.7340 O.2    76  TRP76      -0.2718
     74  CB        34.9330  -20.2720   12.6210 C.3    76  TRP76       0.0564
     75  CG        35.0050  -20.7170   14.0380 C.ar   76  TRP76       0.0003
     76  CD1       35.1750  -21.9960   14.4830 C.ar   76  TRP76       0.0946
     77  CD2       34.8220  -19.9050   15.2020 C.ar   76  TRP76       0.0152
     78  NE1       35.1360  -22.0270   15.8560 N.ar   76  TRP76      -0.2442
     79  CE2       34.9150  -20.7580   16.3230 C.ar   76  TRP76       0.0810
     80  CE3       34.6040  -18.5380   15.4080 C.ar   76  TRP76       0.0012
     81  CZ2       34.7960  -20.2910   17.6300 C.ar   76  TRP76       0.0191
     82  CZ3       34.4790  -18.0710   16.7140 C.ar   76  TRP76       0.0001
     83  CH2       34.5820  -18.9480   17.8070 C.ar   76  TRP76       0.0015
     84  N         32.2610  -18.9340   13.3010 N.am   77  TRP77      -0.1976
     85  CA        31.3330  -18.4660   14.3300 C.3    77  TRP77       0.1640
     86  C         29.9440  -19.0590   14.1160 C.2    77  TRP77       0.2290
     87  O         29.3270  -19.5790   15.0480 O.2    77  TRP77      -0.2864
     88  CB        31.2710  -16.9290   14.3690 C.3    77  TRP77       0.0576
     89  CG        30.6840  -16.4380   15.6490 C.ar   77  TRP77       0.0006
     90  CD1       31.3670  -16.0490   16.7660 C.ar   77  TRP77       0.0946
     91  CD2       29.2940  -16.3610   15.9840 C.ar   77  TRP77       0.0152
     92  NE1       30.4890  -15.7150   17.7670 N.ar   77  TRP77      -0.2442
     93  CE2       29.2090  -15.8860   17.3090 C.ar   77  TRP77       0.0810
     94  CE3       28.1100  -16.6100   15.2820 C.ar   77  TRP77       0.0012
     95  CZ2       27.9900  -15.6780   17.9490 C.ar   77  TRP77       0.0191
     96  CZ3       26.9030  -16.4060   15.9180 C.ar   77  TRP77       0.0001
     97  CH2       26.8510  -15.9460   17.2400 C.ar   77  TRP77       0.0015
@<TRIPOS>BOND
     1     4     3    2
     2     3     2    1
     3     1     2    1
     4     2     5    1
     5     6     5    1
     6     6     7    1
     7     9     7   ar
     8     7     8   ar
     9    23    24    1
    10    23    20    1
    11    24    25    1
    12    25    26   ar
    13    25    27   ar
    14    21    20    1
    15    21    22    2
    16    20    19    1
    17    19    12   am
    18    10    11    1
    19    28    29    1
    20    12    11    1
    21    12    13    2
    22    11    14    1
    23    29    30    1
    24    29    32    1
    25    14    15    1
    26    35    36    2
    27    35    34    1
    28    30    33   am
    29    30    31    2
    30    33    34    1
    31    53    54    1
    32    15    16    1
    33    55    54    1
    34    55    56    2
    35    57    58    1
    36    57    54    1
    37    57    59    1
    38    40    42   ar
    39    40    38   ar
    40    37    34    1
    41    37    38    1
    42    17    16    2
    43    45    46    1
    44    16    18   am
    45    42    43   ar
    46    38    39   ar
    47    69    66    1
    48    46    47    1
    49    46    49    1
    50    47    48    2
    51    60    61    1
    52    43    44    1
    53    43    41   ar
    54    39    41   ar
    55    67    66    1
    56    67    68    2
    57    66    65    1
    58    65    62   am
    59    49    50    1
    60    70    71    1
    61    61    62    1
    62    61    64    1
    63    62    63    2
    64    50    52    1
    65    50    51    1
    66    71    74    1
    67    71    72    1
    68    74    75    1
    69    72    84   am
    70    72    73    2
    71    84    85    1
    72    75    76   ar
    73    75    77   ar
    74    86    85    1
    75    86    87    2
    76    85    88    1
    77    88    89    1
    78    76    78   ar
    79    77    80   ar
    80    77    79   ar
    81    94    96   ar
    82    94    91   ar
    83    80    82   ar
    84    89    91   ar
    85    89    90   ar
    86    78    79   ar
    87    96    97   ar
    88    91    93   ar
    89    79    81   ar
    90    82    83   ar
    91    90    92   ar
    92    97    95   ar
    93    93    92   ar
    94    93    95   ar
    95    81    83   ar
