@<TRIPOS>MOLECULE
tmp/4cghB00.pdb
 88 87 0 0 0
SMALL
GASTEIGER

@<TRIPOS>ATOM
      1  N         81.9740    6.7020  -10.2760 N.3    39  GLN39      -0.1231
      2  CA        81.9510    7.6870   -9.1770 C.3    39  GLN39       0.1698
      3  C         81.2170    8.9640   -9.5640 C.2    39  GLN39       0.2592
      4  O         80.3800    9.4460   -8.8070 O.2    39  GLN39      -0.2718
      5  CB        83.3430    8.0440   -8.6400 C.3    39  GLN39       0.0381
      6  CG        83.5390    7.6000   -7.1900 C.3    39  GLN39       0.0905
      7  CD        84.3570    8.5660   -6.3460 C.2    39  GLN39       0.2608
      8  OE1       84.5760    8.3320   -5.1560 O.2    39  GLN39      -0.2717
      9  NE2       84.8050    9.6560   -6.9510 N.am   39  GLN39      -0.0878
     10  N         81.5370    9.5180  -10.7290 N.am   40  GLU40      -0.1979
     11  CA        80.8460   10.7410  -11.1900 C.3    40  GLU40       0.1602
     12  C         79.3520   10.4960  -11.3760 C.2    40  GLU40       0.2287
     13  O         78.5250   11.3170  -10.9590 O.2    40  GLU40      -0.2864
     14  CB        81.4390   11.2760  -12.4930 C.3    40  GLU40       0.0415
     15  CG        82.8610   11.8200  -12.3740 C.3    40  GLU40       0.1163
     16  CD        82.9770   13.1770  -11.6780 C.2    40  GLU40       0.3649
     17  OE1       81.9840   13.7400  -11.1730 O.co2  40  GLU40      -0.2457
     18  OE2       84.1080   13.7060  -11.6320 O.co2  40  GLU40      -0.2457
     19  N         77.4600    8.1600   -9.9890 N.3    42  ALA42      -0.1231
     20  CA        76.8520    7.9100   -8.6890 C.3    42  ALA42       0.1694
     21  C         76.5270    9.2140   -7.9660 C.2    42  ALA42       0.2592
     22  O         75.4240    9.3780   -7.4400 O.2    42  ALA42      -0.2718
     23  CB        77.7780    7.0560   -7.8320 C.3    42  ALA42       0.0304
     24  N         77.4910   10.1320   -7.9430 N.am   43  TYR43      -0.1976
     25  CA        77.3110   11.4340   -7.2960 C.3    43  TYR43       0.1639
     26  C         76.2160   12.2600   -7.9690 C.2    43  TYR43       0.2290
     27  O         75.3880   12.8790   -7.3030 O.2    43  TYR43      -0.2864
     28  CB        78.6370   12.2020   -7.2760 C.3    43  TYR43       0.0560
     29  CG        78.5500   13.5180   -6.5550 C.ar   43  TYR43      -0.0198
     30  CD1       78.3910   13.5720   -5.1800 C.ar   43  TYR43      -0.0009
     31  CD2       78.5980   14.7210   -7.2550 C.ar   43  TYR43      -0.0009
     32  CE1       78.3030   14.7840   -4.5150 C.ar   43  TYR43       0.0417
     33  CE2       78.5030   15.9300   -6.6010 C.ar   43  TYR43       0.0417
     34  CZ        78.3510   15.9640   -5.2330 C.ar   43  TYR43       0.1957
     35  OH        78.2470   17.1820   -4.5930 O.3    43  TYR43      -0.2866
     36  N         72.8260   10.8920   -6.9580 N.3    46  LEU46      -0.1245
     37  CA        72.5090   11.3190   -5.6030 C.3    46  LEU46       0.1561
     38  C         71.9710   12.7600   -5.5850 C.2    46  LEU46       0.2260
     39  O         70.9670   13.0430   -4.9280 O.2    46  LEU46      -0.2867
     40  CB        73.7280   11.1760   -4.6930 C.3    46  LEU46       0.0270
     41  CG        73.5610   11.7320   -3.2820 C.3    46  LEU46       0.0019
     42  CD1       72.4390   11.0240   -2.5270 C.3    46  LEU46       0.0001
     43  CD2       74.8810   11.6410   -2.5370 C.3    46  LEU46       0.0001
     44  N         79.6320    1.2900   -7.5400 N.3    69  THR69      -0.1218
     45  CA        79.4140    2.6100   -6.9520 C.3    69  THR69       0.1862
     46  C         78.0610    3.1900   -7.3800 C.2    69  THR69       0.2287
     47  O         77.3330    3.7740   -6.5690 O.2    69  THR69      -0.2866
     48  CB        80.5480    3.5730   -7.3380 C.3    69  THR69       0.1770
     49  OG1       81.8130    2.9000   -7.2210 O.3    69  THR69      -0.2211
     50  CG2       80.5400    4.7930   -6.4420 C.3    69  THR69       0.0375
     51  N         75.4730    1.2960   -5.4930 N.3    72  ALA72      -0.1231
     52  CA        75.4150    1.7930   -4.1100 C.3    72  ALA72       0.1694
     53  C         74.5980    3.0810   -3.9970 C.2    72  ALA72       0.2591
     54  O         73.7960    3.2350   -3.0760 O.2    72  ALA72      -0.2718
     55  CB        76.8170    2.0040   -3.5570 C.3    72  ALA72       0.0304
     56  N         74.8010    4.0070   -4.9300 N.am   73  ALA73      -0.1980
     57  CA        74.0450    5.2590   -4.9360 C.3    73  ALA73       0.1597
     58  C         72.5620    5.0230   -5.1540 C.2    73  ALA73       0.2287
     59  O         71.7180    5.6320   -4.4960 O.2    73  ALA73      -0.2864
     60  CB        74.5750    6.1950   -6.0150 C.3    73  ALA73       0.0319
     61  N         70.9080    2.2240   -4.5140 N.3    75  TRP75      -0.1227
     62  CA        70.4130    1.6530   -3.2710 C.3    75  TRP75       0.1737
     63  C         70.1650    2.7450   -2.2130 C.2    75  TRP75       0.2595
     64  O         69.0890    2.8230   -1.6020 O.2    75  TRP75      -0.2718
     65  CB        71.3740    0.5980   -2.7200 C.3    75  TRP75       0.0564
     66  CG        70.9930    0.2590   -1.3250 C.ar   75  TRP75       0.0003
     67  CD1       69.9850   -0.5820   -0.9250 C.ar   75  TRP75       0.0946
     68  CD2       71.5500    0.8150   -0.1370 C.ar   75  TRP75       0.0152
     69  NE1       69.9030   -0.5990    0.4480 N.ar   75  TRP75      -0.2442
     70  CE2       70.8470    0.2570    0.9570 C.ar   75  TRP75       0.0810
     71  CE3       72.5840    1.7250    0.1150 C.ar   75  TRP75       0.0012
     72  CZ2       71.1520    0.5760    2.2800 C.ar   75  TRP75       0.0191
     73  CZ3       72.8870    2.0410    1.4350 C.ar   75  TRP75       0.0001
     74  CH2       72.1700    1.4720    2.4980 C.ar   75  TRP75       0.0015
     75  N         71.1600    3.5940   -2.0070 N.am   76  TRP76      -0.1976
     76  CA        71.0680    4.6120   -0.9720 C.3    76  TRP76       0.1640
     77  C         69.8460    5.5040   -1.2000 C.2    76  TRP76       0.2290
     78  O         69.0600    5.7530   -0.2770 O.2    76  TRP76      -0.2864
     79  CB        72.3610    5.4340   -0.9080 C.3    76  TRP76       0.0576
     80  CG        72.4680    6.1770    0.3700 C.ar   76  TRP76       0.0006
     81  CD1       73.1180    5.7800    1.4940 C.ar   76  TRP76       0.0946
     82  CD2       71.8350    7.4160    0.6860 C.ar   76  TRP76       0.0152
     83  NE1       72.9490    6.7090    2.4900 N.ar   76  TRP76      -0.2442
     84  CE2       72.1630    7.7250    2.0180 C.ar   76  TRP76       0.0810
     85  CE3       71.0390    8.3060   -0.0350 C.ar   76  TRP76       0.0012
     86  CZ2       71.7140    8.8860    2.6450 C.ar   76  TRP76       0.0191
     87  CZ3       70.5910    9.4540    0.5860 C.ar   76  TRP76       0.0001
     88  CH2       70.9290    9.7330    1.9180 C.ar   76  TRP76       0.0015
@<TRIPOS>BOND
     1    14    15    1
     2    14    11    1
     3    15    16    1
     4    16    18   ar
     5    16    17   ar
     6    12    11    1
     7    12    13    2
     8    11    10    1
     9    10     3   am
    10     1     2    1
    11    19    20    1
    12     3     2    1
    13     3     4    2
    14     2     5    1
    15    20    21    1
    16    20    23    1
    17     5     6    1
    18    26    27    2
    19    26    25    1
    20    21    24   am
    21    21    22    2
    22    24    25    1
    23    44    45    1
    24    46    45    1
    25    46    47    2
    26    48    49    1
    27    48    45    1
    28    48    50    1
    29    25    28    1
    30    28    29    1
    31    31    33   ar
    32    31    29   ar
    33     6     7    1
    34    36    37    1
    35     9     7   am
    36    33    34   ar
    37    29    30   ar
    38     7     8    2
    39    60    57    1
    40    37    38    1
    41    37    40    1
    42    38    39    2
    43    51    52    1
    44    34    35    1
    45    34    32   ar
    46    30    32   ar
    47    58    57    1
    48    58    59    2
    49    57    56    1
    50    56    53   am
    51    40    41    1
    52    61    62    1
    53    52    53    1
    54    52    55    1
    55    53    54    2
    56    41    43    1
    57    41    42    1
    58    62    65    1
    59    62    63    1
    60    65    66    1
    61    63    75   am
    62    63    64    2
    63    75    76    1
    64    66    67   ar
    65    66    68   ar
    66    77    76    1
    67    77    78    2
    68    76    79    1
    69    67    69   ar
    70    79    80    1
    71    68    71   ar
    72    68    70   ar
    73    85    87   ar
    74    85    82   ar
    75    71    73   ar
    76    80    82   ar
    77    80    81   ar
    78    69    70   ar
    79    87    88   ar
    80    82    84   ar
    81    70    72   ar
    82    73    74   ar
    83    81    83   ar
    84    88    86   ar
    85    84    83   ar
    86    84    86   ar
    87    72    74   ar
