@<TRIPOS>MOLECULE
tmp/4cgkB00.pdb
 81 80 0 0 0
SMALL
GASTEIGER

@<TRIPOS>ATOM
      1  N         53.9200   46.0720   19.6450 N.3   247  GLU247     -0.1231
      2  CA        52.7700   46.8300   19.1570 C.3   247  GLU247      0.1699
      3  C         52.3600   46.3410   17.7710 C.2   247  GLU247      0.2592
      4  O         53.1470   45.7030   17.0720 O.2   247  GLU247     -0.2718
      5  CB        53.0820   48.3290   19.1040 C.3   247  GLU247      0.0402
      6  CG        53.3680   48.9740   20.4530 C.3   247  GLU247      0.1161
      7  CD        52.1280   49.1480   21.3150 C.2   247  GLU247      0.3649
      8  OE1       51.1090   49.6670   20.8150 O.co2 247  GLU247     -0.2457
      9  OE2       52.1760   48.7760   22.5060 O.co2 247  GLU247     -0.2457
     10  N         51.1220   46.6430   17.3890 N.am  248  CYS248     -0.1970
     11  CA        50.5890   46.2570   16.0810 C.3   248  CYS248      0.1712
     12  C         51.3400   46.9340   14.9380 C.2   248  CYS248      0.2296
     13  O         51.5200   46.3480   13.8720 O.2   248  CYS248     -0.2864
     14  CB        49.0980   46.5870   15.9950 C.3   248  CYS248      0.0983
     15  SG        48.7090   48.3460   16.1280 S.3   248  CYS248     -0.0798
     16  N         42.9550   54.5470   19.2020 N.3   297  TYR297     -0.1227
     17  CA        44.2680   54.0580   18.7780 C.3   297  TYR297      0.1736
     18  C         44.1610   53.2080   17.5180 C.2   297  TYR297      0.2596
     19  O         45.0610   53.2090   16.6840 O.2   297  TYR297     -0.2718
     20  CB        44.9320   53.2580   19.8980 C.3   297  TYR297      0.0548
     21  CG        45.1340   54.0470   21.1700 C.ar  297  TYR297     -0.0200
     22  CD1       46.1810   54.9550   21.2890 C.ar  297  TYR297     -0.0009
     23  CD2       44.2750   53.8890   22.2550 C.ar  297  TYR297     -0.0009
     24  CE1       46.3700   55.6810   22.4520 C.ar  297  TYR297      0.0417
     25  CE2       44.4550   54.6110   23.4240 C.ar  297  TYR297      0.0417
     26  CZ        45.5030   55.5050   23.5180 C.ar  297  TYR297      0.1957
     27  OH        45.6910   56.2240   24.6780 O.3   297  TYR297     -0.2866
     28  N         43.0520   52.4900   17.3810 N.am  298  GLY298     -0.1942
     29  CA        42.8200   51.6550   16.2120 C.3   298  GLY298      0.2014
     30  C         43.7160   50.4340   16.1890 C.2   298  GLY298      0.2638
     31  O         44.1180   49.9250   17.2380 O.2   298  GLY298     -0.2714
     32  N         44.0320   49.9680   14.9860 N.am  299  HIS299     -0.1973
     33  CA        44.7930   48.7350   14.8080 C.3   299  HIS299      0.1656
     34  C         45.2610   48.6020   13.3620 C.2   299  HIS299      0.2291
     35  O         44.6230   49.1230   12.4470 O.2   299  HIS299     -0.2864
     36  CB        43.9250   47.5330   15.1910 C.3   299  HIS299      0.0771
     37  CG        44.6700   46.2370   15.2540 C.ar  299  HIS299      0.0820
     38  ND1       45.6780   46.0020   16.1630 N.ar  299  HIS299     -0.2267
     39  CD2       44.5390   45.0970   14.5350 C.ar  299  HIS299      0.1154
     40  CE1       46.1430   44.7770   15.9930 C.ar  299  HIS299      0.1986
     41  NE2       45.4680   44.2050   15.0130 N.ar  299  HIS299     -0.2212
     42  N         49.9250   42.1390   18.7000 N.3   318  ASN318     -0.1225
     43  CA        49.1520   42.7680   19.7810 C.3   318  ASN318      0.1785
     44  C         47.6450   42.7030   19.5460 C.2   318  ASN318      0.2597
     45  O         46.9650   43.7300   19.4740 O.2   318  ASN318     -0.2718
     46  CB        49.6040   44.2180   20.0160 C.3   318  ASN318      0.1169
     47  CG        49.0560   44.8240   21.3140 C.2   318  ASN318      0.2627
     48  OD1       48.9950   46.0450   21.4530 O.2   318  ASN318     -0.2716
     49  ND2       48.6540   43.9840   22.2610 N.am  318  ASN318     -0.0877
     50  N         47.1350   41.4820   19.4220 N.am  319  TYR319     -0.1962
     51  CA        45.7040   41.2520   19.3410 C.3   319  TYR319      0.1771
     52  C         45.2350   40.5060   20.5850 C.2   319  TYR319      0.2619
     53  O         45.7710   39.4510   20.9180 O.2   319  TYR319     -0.2715
     54  CB        45.3440   40.4550   18.0900 C.3   319  TYR319      0.0574
     55  CG        43.8550   40.2670   17.9580 C.ar  319  TYR319     -0.0198
     56  CD1       43.0530   41.2790   17.4470 C.ar  319  TYR319     -0.0009
     57  CD2       43.2430   39.0930   18.3840 C.ar  319  TYR319     -0.0009
     58  CE1       41.6840   41.1220   17.3470 C.ar  319  TYR319      0.0417
     59  CE2       41.8730   38.9240   18.2880 C.ar  319  TYR319      0.0417
     60  CZ        41.0970   39.9410   17.7680 C.ar  319  TYR319      0.1957
     61  OH        39.7340   39.7900   17.6640 O.3   319  TYR319     -0.2866
     62  N         44.2420   41.0700   21.2690 N.am  320  ALA320     -0.1977
     63  CA        43.6930   40.4900   22.4960 C.3   320  ALA320      0.1597
     64  C         44.7760   40.1350   23.5210 C.2   320  ALA320      0.2287
     65  O         44.7270   39.0730   24.1430 O.2   320  ALA320     -0.2864
     66  CB        42.8480   39.2690   22.1630 C.3   320  ALA320      0.0319
     67  N         35.6960   45.2540   16.7710 N.3   338  SER338     -0.1202
     68  CA        35.7270   46.3410   17.7430 C.3   338  SER338      0.2020
     69  C         36.7930   47.4050   17.4420 C.2   338  SER338      0.2618
     70  O         36.8790   48.3960   18.1600 O.2   338  SER338     -0.2717
     71  CB        35.9320   45.7770   19.1520 C.3   338  SER338      0.2103
     72  OG        37.0290   44.8830   19.1810 O.3   338  SER338     -0.2182
     73  N         37.5890   47.2100   16.3890 N.am  339  GLU339     -0.1979
     74  CA        38.6100   48.1840   15.9950 C.3   339  GLU339      0.1602
     75  C         38.0940   49.2140   14.9840 C.2   339  GLU339      0.2287
     76  O         38.8060   50.1600   14.6500 O.2   339  GLU339     -0.2864
     77  CB        39.8520   47.4810   15.4370 C.3   339  GLU339      0.0415
     78  CG        40.6850   46.7360   16.4700 C.3   339  GLU339      0.1163
     79  CD        39.9120   45.6460   17.1810 C.2   339  GLU339      0.3649
     80  OE1       39.8720   44.4990   16.6820 O.co2 339  GLU339     -0.2457
     81  OE2       39.3450   45.9450   18.2500 O.co2 339  GLU339     -0.2457
@<TRIPOS>BOND
     1    35    34    2
     2    34    33    1
     3    13    12    2
     4    39    41   ar
     5    39    37   ar
     6    76    75    2
     7    33    32    1
     8    33    36    1
     9    12    11    1
    10    75    74    1
    11    32    30   am
    12    41    40   ar
    13    36    37    1
    14    37    38   ar
    15    77    74    1
    16    77    78    1
    17    40    38   ar
    18    14    11    1
    19    14    15    1
    20    74    73    1
    21    11    10    1
    22    30    29    1
    23    30    31    2
    24    29    28    1
    25    73    69   am
    26    78    79    1
    27    80    79   ar
    28    19    18    2
    29    67    68    1
    30     4     3    2
    31    79    81   ar
    32    58    56   ar
    33    58    60   ar
    34    28    18   am
    35    10     3   am
    36    69    68    1
    37    69    70    2
    38    56    55   ar
    39    18    17    1
    40    61    60    1
    41    68    71    1
    42    60    59   ar
    43     3     2    1
    44    55    54    1
    45    55    57   ar
    46    54    51    1
    47    59    57   ar
    48    42    43    1
    49    17    16    1
    50    17    20    1
    51     5     2    1
    52     5     6    1
    53    71    72    1
    54     2     1    1
    55    51    50    1
    56    51    52    1
    57    50    44   am
    58    45    44    2
    59    44    43    1
    60    43    46    1
    61    20    21    1
    62    46    47    1
    63     6     7    1
    64    52    53    2
    65    52    62   am
    66     8     7   ar
    67    21    22   ar
    68    21    23   ar
    69    62    63    1
    70    22    24   ar
    71    47    48    2
    72    47    49   am
    73     7     9   ar
    74    66    63    1
    75    23    25   ar
    76    24    26   ar
    77    63    64    1
    78    25    26   ar
    79    26    27    1
    80    64    65    2
