@<TRIPOS>MOLECULE
tmp/4cgmA00.pdb
 254 248 0 0 0
SMALL
GASTEIGER

@<TRIPOS>ATOM
      1  N          6.9150   39.7250   66.6140 N.3    70  TYR70      -0.1227
      2  CA         6.3970   40.4360   65.4260 C.3    70  TYR70       0.1736
      3  C          7.2240   41.7420   65.1030 C.2    70  TYR70       0.2595
      4  O          8.3630   41.9000   65.5960 O.2    70  TYR70      -0.2718
      5  CB         4.9000   40.7010   65.5330 C.3    70  TYR70       0.0548
      6  CG         4.2310   40.8870   64.1380 C.ar   70  TYR70      -0.0200
      7  CD1        4.4480   39.9360   63.0780 C.ar   70  TYR70      -0.0009
      8  CD2        3.3420   41.9160   63.9190 C.ar   70  TYR70      -0.0009
      9  CE1        3.8600   40.1390   61.8240 C.ar   70  TYR70       0.0417
     10  CE2        2.6840   42.0850   62.7080 C.ar   70  TYR70       0.0417
     11  CZ         2.9590   41.1880   61.6480 C.ar   70  TYR70       0.1957
     12  OH         2.2820   41.4100   60.4670 O.3    70  TYR70      -0.2866
     13  N          6.6970   42.5830   64.2230 N.am   71  VAL71      -0.1966
     14  CA         7.4640   43.7010   63.6380 C.3    71  VAL71       0.1727
     15  C          7.9300   44.6900   64.7200 C.2    71  VAL71       0.2616
     16  O          7.1590   45.1080   65.5890 O.2    71  VAL71      -0.2715
     17  CB         6.5900   44.4730   62.6040 C.3    71  VAL71       0.0290
     18  CG1        7.2350   45.7360   62.0290 C.3    71  VAL71       0.0023
     19  CG2        6.1630   43.5830   61.4090 C.3    71  VAL71       0.0023
     20  N          9.2100   45.0160   64.6320 N.am   72  GLU72      -0.1963
     21  CA         9.8130   46.0930   65.4650 C.3    72  GLU72       0.1733
     22  C         10.2390   47.2110   64.6240 C.2    72  GLU72       0.2616
     23  O         10.3230   47.0560   63.3990 O.2    72  GLU72      -0.2715
     24  CB        11.0730   45.5350   66.1600 C.3    72  GLU72       0.0429
     25  CG        10.7460   44.3840   67.1130 C.3    72  GLU72       0.1163
     26  CD        11.9860   43.7140   67.7430 C.2    72  GLU72       0.3649
     27  OE1       13.1710   44.1680   67.6030 O.co2  72  GLU72      -0.2457
     28  OE2       11.7900   42.6600   68.3540 O.co2  72  GLU72      -0.2457
     29  N         10.5640   48.3540   65.2390 N.am   73  ASP73      -0.1971
     30  CA        11.1440   49.4510   64.4310 C.3    73  ASP73       0.1709
     31  C         12.5960   49.1050   64.1810 C.2    73  ASP73       0.2293
     32  O         13.0900   48.1270   64.6680 O.2    73  ASP73      -0.2864
     33  CB        11.0910   50.7170   65.2030 C.3    73  ASP73       0.1436
     34  CG        11.9520   50.6610   66.4200 C.2    73  ASP73       0.3671
     35  OD1       11.7110   49.8280   67.3100 O.co2  73  ASP73      -0.2456
     36  OD2       12.9460   51.4400   66.4780 O.co2  73  ASP73      -0.2456
     37  N         10.5360   49.5100   69.7560 N.3    78  PHE78      -0.1227
     38  CA         9.0940   49.2330   69.8400 C.3    78  PHE78       0.1736
     39  C          8.7970   47.9630   69.0960 C.2    78  PHE78       0.2595
     40  O          9.4270   47.7010   68.0800 O.2    78  PHE78      -0.2718
     41  CB         8.2550   50.3490   69.2000 C.3    78  PHE78       0.0547
     42  CG         8.5950   51.7210   69.7450 C.ar   78  PHE78      -0.0202
     43  CD1        8.2400   52.0570   71.0500 C.ar   78  PHE78      -0.0042
     44  CD2        9.3280   52.6080   68.9660 C.ar   78  PHE78      -0.0042
     45  CE1        8.6020   53.3060   71.5790 C.ar   78  PHE78      -0.0003
     46  CE2        9.7340   53.8310   69.5030 C.ar   78  PHE78      -0.0003
     47  CZ         9.3760   54.1590   70.7920 C.ar   78  PHE78      -0.0000
     48  N          7.7900   47.2440   69.5830 N.am   79  ARG79      -0.1966
     49  CA         7.3200   46.0280   68.8670 C.3    79  ARG79       0.1729
     50  C          5.7730   46.0050   68.9470 C.2    79  ARG79       0.2616
     51  O          5.1340   46.1920   70.0390 O.2    79  ARG79      -0.2715
     52  CB         7.9780   44.7400   69.4980 C.3    79  ARG79       0.0348
     53  CG         7.4360   43.3900   68.8730 C.3    79  ARG79       0.0492
     54  CD         8.4690   42.2420   69.2240 C.3    79  ARG79       0.2205
     55  NE         8.5800   42.0740   70.7010 N.pl3  79  ARG79      -0.0865
     56  CZ         9.6740   42.2600   71.4540 C.cat  79  ARG79       0.5346
     57  NH1       10.8700   42.5790   70.9590 N.pl3  79  ARG79       0.1354
     58  NH2        9.5360   42.0790   72.7690 N.pl3  79  ARG79       0.1354
     59  N          5.1130   45.7540   67.8100 N.am   80  PHE80      -0.1974
     60  CA         3.6480   45.7460   67.8450 C.3    80  PHE80       0.1639
     61  C          3.1180   44.7380   68.8290 C.2    80  PHE80       0.2290
     62  O          3.7090   43.6390   68.9630 O.2    80  PHE80      -0.2864
     63  CB         3.1230   45.4200   66.4290 C.3    80  PHE80       0.0560
     64  CG         3.2930   46.5790   65.4660 C.ar   80  PHE80      -0.0200
     65  CD1        2.4390   47.6510   65.5400 C.ar   80  PHE80      -0.0042
     66  CD2        4.3810   46.6240   64.5980 C.ar   80  PHE80      -0.0042
     67  CE1        2.6030   48.7450   64.6590 C.ar   80  PHE80      -0.0003
     68  CE2        4.5320   47.6820   63.6960 C.ar   80  PHE80      -0.0003
     69  CZ         3.6460   48.7350   63.7500 C.ar   80  PHE80      -0.0000
     70  N         -0.4470   43.5350   68.9650 N.3    82  TYR82      -0.1241
     71  CA        -1.8080   43.3160   68.6220 C.3    82  TYR82       0.1605
     72  C         -2.5140   42.5520   69.7410 C.2    82  TYR82       0.2264
     73  O         -1.9530   41.5330   70.2400 O.2    82  TYR82      -0.2867
     74  CB        -1.7700   42.5270   67.3320 C.3    82  TYR82       0.0534
     75  CG        -1.4360   43.2660   66.0960 C.ar   82  TYR82      -0.0201
     76  CD1       -2.4630   43.8570   65.3370 C.ar   82  TYR82      -0.0009
     77  CD2       -0.1280   43.2800   65.5830 C.ar   82  TYR82      -0.0009
     78  CE1       -2.1550   44.5400   64.1230 C.ar   82  TYR82       0.0417
     79  CE2        0.1870   44.0010   64.4100 C.ar   82  TYR82       0.0417
     80  CZ        -0.8500   44.5470   63.6640 C.ar   82  TYR82       0.1957
     81  OH        -0.5970   45.1970   62.4630 O.3    82  TYR82      -0.2866
     82  N         -1.3950   38.4550   55.9780 N.3   157  ASN157     -0.1240
     83  CA        -0.8860   39.3460   57.0360 C.3   157  ASN157      0.1653
     84  C         -0.3280   38.4520   58.1310 C.2   157  ASN157      0.2266
     85  O         -0.4870   37.2010   58.1290 O.2   157  ASN157     -0.2867
     86  CB        -2.0810   40.2280   57.4750 C.3   157  ASN157      0.1155
     87  CG        -1.6710   41.5410   58.1430 C.2   157  ASN157      0.2627
     88  OD1       -0.4950   41.7660   58.4740 O.2   157  ASN157     -0.2716
     89  ND2       -2.6720   42.4000   58.3950 N.am  157  ASN157     -0.0877
     90  N          1.3830   43.3570   52.1910 N.3   193  THR193     -0.1203
     91  CA         2.2290   44.5850   52.2820 C.3   193  THR193      0.1994
     92  C          3.4910   44.1710   53.1020 C.2   193  THR193      0.2618
     93  O          3.5660   43.1400   53.7850 O.2   193  THR193     -0.2717
     94  CB         1.5240   45.7600   52.9360 C.3   193  THR193      0.1784
     95  OG1        1.0000   45.3910   54.2470 O.3   193  THR193     -0.2211
     96  CG2        0.3910   46.4010   52.0780 C.3   193  THR193      0.0376
     97  N          4.5090   44.9990   53.0230 N.am  194  ALA194     -0.1965
     98  CA         5.7110   44.7700   53.8440 C.3   194  ALA194      0.1728
     99  C          6.4550   46.0710   53.9260 C.2   194  ALA194      0.2616
    100  O          6.4120   46.8590   52.9890 O.2   194  ALA194     -0.2715
    101  CB         6.5590   43.7130   53.1660 C.3   194  ALA194      0.0334
    102  N          7.1640   46.2790   55.0270 N.am  195  GLY195     -0.1955
    103  CA         8.1070   47.3740   55.0640 C.3   195  GLY195      0.1869
    104  C          9.4930   47.0750   54.5520 C.2   195  GLY195      0.2309
    105  O         10.3070   47.9490   54.3910 O.2   195  GLY195     -0.2863
    106  N          5.1010   56.4410   55.7110 N.3   207  TYR207     -0.1227
    107  CA         4.2950   56.5180   56.9000 C.3   207  TYR207      0.1736
    108  C          4.2450   57.9170   57.4320 C.2   207  TYR207      0.2595
    109  O          5.2290   58.6760   57.3590 O.2   207  TYR207     -0.2718
    110  CB         5.0350   55.6900   57.9670 C.3   207  TYR207      0.0548
    111  CG         5.1990   54.1740   57.7140 C.ar  207  TYR207     -0.0200
    112  CD1        4.0960   53.3010   57.7750 C.ar  207  TYR207     -0.0009
    113  CD2        6.4430   53.6150   57.5560 C.ar  207  TYR207     -0.0009
    114  CE1        4.2360   51.9160   57.6290 C.ar  207  TYR207      0.0417
    115  CE2        6.6130   52.2090   57.4360 C.ar  207  TYR207      0.0417
    116  CZ         5.5150   51.3750   57.4530 C.ar  207  TYR207      0.1957
    117  OH         5.7100   50.0000   57.3250 O.3   207  TYR207     -0.2866
    118  N          3.1550   58.2380   58.0830 N.am  208  PHE208     -0.1962
    119  CA         2.9770   59.4850   58.7530 C.3   208  PHE208      0.1771
    120  C          2.4490   59.2780   60.1310 C.2   208  PHE208      0.2619
    121  O          1.6660   58.3640   60.3390 O.2   208  PHE208     -0.2715
    122  CB         2.0190   60.3700   57.9710 C.3   208  PHE208      0.0574
    123  CG         2.6280   60.8330   56.6700 C.ar  208  PHE208     -0.0200
    124  CD1        2.6410   60.0230   55.5630 C.ar  208  PHE208     -0.0042
    125  CD2        3.2180   62.1380   56.6060 C.ar  208  PHE208     -0.0042
    126  CE1        3.2660   60.4090   54.3920 C.ar  208  PHE208     -0.0003
    127  CE2        3.7760   62.5920   55.4100 C.ar  208  PHE208     -0.0003
    128  CZ         3.8270   61.7080   54.3040 C.ar  208  PHE208     -0.0000
    129  N          2.7950   60.1970   61.0190 N.am  209  HIS209     -0.1973
    130  CA         2.3670   60.1660   62.4470 C.3   209  HIS209      0.1656
    131  C          1.9540   61.5580   62.9190 C.2   209  HIS209      0.2291
    132  O          2.5070   62.5740   62.4720 O.2   209  HIS209     -0.2864
    133  CB         3.5020   59.6030   63.3070 C.3   209  HIS209      0.0771
    134  CG         4.8050   60.3230   63.1510 C.ar  209  HIS209      0.0820
    135  ND1        4.9980   61.6260   63.5680 N.ar  209  HIS209     -0.2267
    136  CD2        5.9840   59.9260   62.6120 C.ar  209  HIS209      0.1154
    137  CE1        6.2480   61.9910   63.2910 C.ar  209  HIS209      0.1986
    138  NE2        6.8610   60.9720   62.7270 N.ar  209  HIS209     -0.2212
    139  N          9.8710   57.7690   71.0270 N.3   222  PHE222     -0.1241
    140  CA         9.1930   57.8550   69.7240 C.3   222  PHE222      0.1605
    141  C          9.4440   59.1900   69.0150 C.2   222  PHE222      0.2264
    142  O          9.5870   59.2230   67.7910 O.2   222  PHE222     -0.2867
    143  CB         7.7110   57.6470   69.9400 C.3   222  PHE222      0.0534
    144  CG         6.9180   57.6170   68.6840 C.ar  222  PHE222     -0.0203
    145  CD1        6.4380   58.7850   68.1350 C.ar  222  PHE222     -0.0042
    146  CD2        6.6900   56.3710   68.0080 C.ar  222  PHE222     -0.0042
    147  CE1        5.6660   58.7320   66.9270 C.ar  222  PHE222     -0.0003
    148  CE2        5.9840   56.3230   66.8000 C.ar  222  PHE222     -0.0003
    149  CZ         5.4590   57.5030   66.2740 C.ar  222  PHE222     -0.0000
    150  N         -8.3940   52.2310   64.0050 N.3   316  TYR316     -0.1241
    151  CA        -8.2200   51.0590   64.8720 C.3   316  TYR316      0.1605
    152  C         -7.0110   51.2230   65.8000 C.2   316  TYR316      0.2264
    153  O         -6.1140   51.9980   65.5490 O.2   316  TYR316     -0.2867
    154  CB        -8.1200   49.7490   64.0460 C.3   316  TYR316      0.0534
    155  CG        -7.0260   49.7940   62.9730 C.ar  316  TYR316     -0.0201
    156  CD1       -7.3470   50.3400   61.7150 C.ar  316  TYR316     -0.0009
    157  CD2       -5.7010   49.3530   63.2180 C.ar  316  TYR316     -0.0009
    158  CE1       -6.3490   50.4190   60.7360 C.ar  316  TYR316      0.0417
    159  CE2       -4.7080   49.3390   62.2310 C.ar  316  TYR316      0.0417
    160  CZ        -5.1000   49.9400   60.9700 C.ar  316  TYR316      0.1957
    161  OH        -4.2290   50.0980   59.9730 O.3   316  TYR316     -0.2866
    162  N         -3.6590   49.8410   67.7260 N.3   318  ILE318     -0.1245
    163  CA        -2.6540   48.8030   67.9840 C.3   318  ILE318      0.1561
    164  C         -1.6800   49.3430   68.9750 C.2   318  ILE318      0.2260
    165  O         -1.0360   50.3480   68.7200 O.2   318  ILE318     -0.2867
    166  CB        -1.8310   48.3680   66.7710 C.3   318  ILE318      0.0252
    167  CG1       -2.7310   48.1180   65.5310 C.3   318  ILE318      0.0019
    168  CG2       -1.0730   47.0560   67.1740 C.3   318  ILE318      0.0019
    169  CD1       -1.9500   48.1140   64.1660 C.3   318  ILE318      0.0001
    170  N          1.9100   49.2750   71.0030 N.3   320  SER320     -0.1217
    171  CA         3.2110   48.6800   70.8650 C.3   320  SER320      0.1889
    172  C          3.9130   48.5790   72.1840 C.2   320  SER320      0.2288
    173  O          3.8170   49.5150   73.0250 O.2   320  SER320     -0.2866
    174  CB         4.1350   49.4350   69.9100 C.3   320  SER320      0.2089
    175  OG         3.6070   49.3760   68.5470 O.3   320  SER320     -0.2183
    176  N          2.9850   52.0610   73.9150 N.3   331  LEU331     -0.1301
    177  CA         2.5880   53.1910   73.0230 C.3   331  LEU331      0.1247
    178  C          1.1840   52.8830   72.5440 C.3   331  LEU331      0.2009
    179  O          0.9650   51.7720   71.9280 O.3   331  LEU331     -0.2188
    180  CB         3.5580   53.2370   71.8860 C.3   331  LEU331      0.0217
    181  CG         3.1260   54.0120   70.6060 C.3   331  LEU331      0.0015
    182  CD1        3.2220   55.4960   70.8520 C.3   331  LEU331      0.0000
    183  CD2        4.1060   53.6380   69.4700 C.3   331  LEU331      0.0000
    184  N         -4.7480   54.2310   64.2990 N.3   335  TYR335     -0.1241
    185  CA        -4.3760   54.0650   62.8740 C.3   335  TYR335      0.1605
    186  C         -5.5730   54.4730   62.0840 C.2   335  TYR335      0.2264
    187  O         -6.6610   53.9960   62.3010 O.2   335  TYR335     -0.2867
    188  CB        -4.0070   52.5640   62.6090 C.3   335  TYR335      0.0534
    189  CG        -2.6800   52.2520   63.2550 C.ar  335  TYR335     -0.0201
    190  CD1       -2.6020   51.9670   64.6240 C.ar  335  TYR335     -0.0009
    191  CD2       -1.5040   52.3170   62.5190 C.ar  335  TYR335     -0.0009
    192  CE1       -1.3790   51.7500   65.2420 C.ar  335  TYR335      0.0417
    193  CE2       -0.2260   52.0930   63.1350 C.ar  335  TYR335      0.0417
    194  CZ        -0.1980   51.7720   64.4910 C.ar  335  TYR335      0.1957
    195  OH         1.0560   51.6060   65.1150 O.3   335  TYR335     -0.2866
    196  N         -1.4270   57.3140   63.4620 N.3   366  ASN366     -0.1225
    197  CA        -0.5200   56.9200   62.3850 C.3   366  ASN366      0.1785
    198  C         -1.2880   56.4850   61.1090 C.2   366  ASN366      0.2597
    199  O         -2.5020   56.1450   61.1460 O.2   366  ASN366     -0.2718
    200  CB         0.2110   55.6570   62.8570 C.3   366  ASN366      0.1169
    201  CG         1.1560   55.9350   63.9890 C.2   366  ASN366      0.2627
    202  OD1        1.6930   57.0550   64.1240 O.2   366  ASN366     -0.2716
    203  ND2        1.4160   54.9040   64.8340 N.am  366  ASN366     -0.0877
    204  N         -0.5800   56.5310   60.0140 N.am  367  MET367     -0.1965
    205  CA        -1.1360   56.2060   58.7480 C.3   367  MET367      0.1736
    206  C         -0.0730   56.0880   57.6600 C.2   367  MET367      0.2616
    207  O          0.9980   56.4390   57.8310 O.2   367  MET367     -0.2715
    208  CB        -2.1890   57.2100   58.3310 C.3   367  MET367      0.0427
    209  CG        -1.5970   58.4970   57.7840 C.3   367  MET367      0.0599
    210  SD        -2.7560   59.7970   57.4550 S.3   367  MET367     -0.1393
    211  CE        -1.6550   61.0560   56.7340 C.3   367  MET367      0.0692
    212  N         -0.4840   55.5600   56.5280 N.am  368  VAL368     -0.1977
    213  CA         0.3280   55.4530   55.2850 C.3   368  VAL368      0.1596
    214  C         -0.3610   56.4200   54.3010 C.2   368  VAL368      0.2287
    215  O         -1.5620   56.6570   54.4200 O.2   368  VAL368     -0.2864
    216  CB         0.3670   54.0280   54.6720 C.3   368  VAL368      0.0276
    217  CG1        1.2040   53.9810   53.3790 C.3   368  VAL368      0.0022
    218  CG2        1.0040   53.0430   55.6360 C.3   368  VAL368      0.0022
    219  N          7.1920   59.7220   58.7810 N.3   385  GLY385     -0.1210
    220  CA         7.9680   58.8130   59.6610 C.3   385  GLY385      0.1956
    221  C          9.1240   58.1280   58.9040 C.2   385  GLY385      0.2611
    222  O          9.4940   58.5910   57.8650 O.2   385  GLY385     -0.2717
    223  N          9.7340   57.0510   59.4340 N.am  386  ASP386     -0.1973
    224  CA        10.8450   56.4900   58.7150 C.3   386  ASP386      0.1709
    225  C         10.3570   55.3340   57.8920 C.2   386  ASP386      0.2293
    226  O          9.4590   54.6110   58.3150 O.2   386  ASP386     -0.2864
    227  CB        11.9560   56.0450   59.6430 C.3   386  ASP386      0.1436
    228  CG        12.7640   57.2160   60.1440 C.2   386  ASP386      0.3671
    229  OD1       13.6850   57.6740   59.4270 O.co2 386  ASP386     -0.2456
    230  OD2       12.4390   57.6870   61.2410 O.co2 386  ASP386     -0.2456
    231  N          5.8050   51.7050   53.4740 N.3   389  LEU389     -0.1245
    232  CA         4.9970   50.4660   53.3460 C.3   389  LEU389      0.1561
    233  C          4.8330   50.2100   51.8240 C.2   389  LEU389      0.2260
    234  O          4.4510   51.1280   51.0980 O.2   389  LEU389     -0.2867
    235  CB         3.6120   50.6920   53.9660 C.3   389  LEU389      0.0270
    236  CG         2.9540   49.2900   54.0220 C.3   389  LEU389      0.0019
    237  CD1        3.7150   48.2790   54.9630 C.3   389  LEU389      0.0001
    238  CD2        1.5100   49.4410   54.5090 C.3   389  LEU389      0.0001
    239  N         -4.3140   47.9270   55.2990 N.3   410  MET410     -0.1230
    240  CA        -3.9230   46.6120   55.8090 C.3   410  MET410      0.1702
    241  C         -3.7590   46.7850   57.3050 C.2   410  MET410      0.2592
    242  O         -3.0730   47.7530   57.7420 O.2   410  MET410     -0.2718
    243  CB        -2.5660   46.2600   55.2330 C.3   410  MET410      0.0401
    244  CG        -2.6100   46.2960   53.7230 C.3   410  MET410      0.0596
    245  SD        -3.3250   44.7320   53.2180 S.3   410  MET410     -0.1393
    246  CE        -1.9750   43.6250   53.3570 C.3   410  MET410      0.0692
    247  N         -4.3750   45.8980   58.0680 N.am  411  LEU411     -0.1980
    248  CA        -4.3250   45.9800   59.5420 C.3   411  LEU411      0.1596
    249  C         -3.0000   45.6060   60.1390 C.2   411  LEU411      0.2287
    250  O         -2.2030   44.8150   59.5950 O.2   411  LEU411     -0.2864
    251  CB        -5.4480   45.1180   60.1420 C.3   411  LEU411      0.0297
    252  CG        -6.8680   45.5110   59.6900 C.3   411  LEU411      0.0022
    253  CD1       -7.8580   44.4120   60.0830 C.3   411  LEU411      0.0001
    254  CD2       -7.2930   46.8710   60.2010 C.3   411  LEU411      0.0001
@<TRIPOS>BOND
     1   234   233    2
     2   233   232    1
     3    96    94    1
     4    90    91    1
     5    91    94    1
     6    91    92    1
     7    94    95    1
     8   100    99    2
     9    97    92   am
    10    97    98    1
    11    92    93    2
    12   101    98    1
    13   245   246    1
    14   245   244    1
    15   232   231    1
    16   232   235    1
    17   217   216    1
    18   244   243    1
    19    98    99    1
    20    99   102   am
    21   235   236    1
    22   236   238    1
    23   236   237    1
    24   214   215    2
    25   214   213    1
    26   128   126   ar
    27   128   127   ar
    28   105   104    2
    29   126   124   ar
    30   104   103    1
    31   216   213    1
    32   216   218    1
    33   102   103    1
    34   243   240    1
    35   213   212    1
    36   239   240    1
    37   127   125   ar
    38   124   123   ar
    39   106   107    1
    40   240   241    1
    41    82    83    1
    42   212   206   am
    43   125   123   ar
    44   123   122    1
    45   211   210    1
    46   107   108    1
    47   107   110    1
    48    83    86    1
    49    83    84    1
    50   241   242    2
    51   241   247   am
    52   117   116    1
    53   109   108    2
    54   108   118   am
    55   115   116   ar
    56   115   113   ar
    57   116   114   ar
    58   210   209    1
    59    86    87    1
    60   113   111   ar
    61   114   112   ar
    62   206   207    2
    63   206   205    1
    64   111   112   ar
    65   111   110    1
    66   209   208    1
    67   222   221    2
    68   225   226    2
    69   225   224    1
    70   122   119    1
    71   247   248    1
    72   118   119    1
    73    85    84    2
    74    87    89   am
    75    87    88    2
    76   208   205    1
    77   224   223    1
    78   224   227    1
    79   205   204    1
    80   119   120    1
    81   219   220    1
    82   221   223   am
    83   221   220    1
    84   229   228   ar
    85   248   249    1
    86   248   251    1
    87   250   249    2
    88   227   228    1
    89   252   253    1
    90   252   251    1
    91   252   254    1
    92   161   160    1
    93   204   198   am
    94   120   121    2
    95   120   129   am
    96   228   230   ar
    97    12    11    1
    98   158   160   ar
    99   158   156   ar
   100   160   159   ar
   101   129   130    1
   102   198   199    2
   103   198   197    1
   104    19    17    1
   105    11     9   ar
   106    11    10   ar
   107   156   155   ar
   108     9     7   ar
   109    18    17    1
   110   186   187    2
   111   186   185    1
   112   159   157   ar
   113   197   200    1
   114   197   196    1
   115   130   131    1
   116   130   133    1
   117    81    80    1
   118   132   131    2
   119   191   193   ar
   120   191   189   ar
   121    17    14    1
   122   188   185    1
   123   188   189    1
   124   136   138   ar
   125   136   134   ar
   126    10     8   ar
   127   138   137   ar
   128   200   201    1
   129   185   184    1
   130   155   157   ar
   131   155   154    1
   132     7     6   ar
   133   193   194   ar
   134   134   133    1
   135   134   135   ar
   136   189   190   ar
   137   137   135   ar
   138    23    22    2
   139    14    13    1
   140    14    15    1
   141    80    78   ar
   142    80    79   ar
   143    68    69   ar
   144    68    66   ar
   145    69    67   ar
   146     8     6   ar
   147   201   202    2
   148   201   203   am
   149   150   151    1
   150   154   151    1
   151    78    76   ar
   152     6     5    1
   153   169   167    1
   154    31    30    1
   155    31    32    2
   156    13     3   am
   157    79    77   ar
   158    30    33    1
   159    30    29    1
   160   194   195    1
   161   194   192   ar
   162    66    64   ar
   163    22    29   am
   164    22    21    1
   165   190   192   ar
   166    20    15   am
   167    20    21    1
   168    67    65   ar
   169    15    16    2
   170   151   152    1
   171     3     2    1
   172     3     4    2
   173    33    34    1
   174    76    75   ar
   175     2     5    1
   176     2     1    1
   177    21    24    1
   178    64    65   ar
   179    64    63    1
   180   167   166    1
   181   153   152    2
   182    77    75   ar
   183    75    74    1
   184    24    25    1
   185   149   148   ar
   186   149   147   ar
   187    34    36   ar
   188    34    35   ar
   189    63    60    1
   190   166   168    1
   191   166   163    1
   192   148   146   ar
   193   147   145   ar
   194    25    26    1
   195    74    71    1
   196    27    26   ar
   197   162   163    1
   198    26    28   ar
   199   142   141    2
   200    59    60    1
   201    59    50   am
   202    60    61    1
   203   163   164    1
   204   146   144   ar
   205    40    39    2
   206   145   144   ar
   207   175   174    1
   208    71    70    1
   209    71    72    1
   210   144   143    1
   211   165   164    2
   212    61    62    2
   213    49    50    1
   214    49    52    1
   215    49    48    1
   216    53    54    1
   217    53    52    1
   218    50    51    2
   219    44    46   ar
   220    44    42   ar
   221   141   140    1
   222    39    48   am
   223    39    38    1
   224    41    42    1
   225    41    38    1
   226    54    55    1
   227   183   181    1
   228    46    47   ar
   229   140   143    1
   230   140   139    1
   231    72    73    2
   232    42    43   ar
   233    37    38    1
   234   174   171    1
   235   181   182    1
   236   181   180    1
   237    55    56    2
   238    47    45   ar
   239   171   170    1
   240   171   172    1
   241    57    56    1
   242    43    45   ar
   243    56    58    1
   244   180   177    1
   245   179   178    1
   246   172   173    2
   247   178   177    1
   248   177   176    1
