@<TRIPOS>MOLECULE
tmp/4cgnA00.pdb
 234 227 0 0 0
SMALL
GASTEIGER

@<TRIPOS>ATOM
      1  N          7.7050   39.0250   66.3660 N.3    70  TYR70      -0.1227
      2  CA         7.2460   39.6800   65.1380 C.3    70  TYR70       0.1736
      3  C          8.0380   40.9730   64.7990 C.2    70  TYR70       0.2595
      4  O          9.1590   41.1640   65.2900 O.2    70  TYR70      -0.2718
      5  CB         5.7220   39.9060   65.2330 C.3    70  TYR70       0.0548
      6  CG         4.9870   40.1690   63.8980 C.ar   70  TYR70      -0.0200
      7  CD1        5.2280   39.3550   62.7760 C.ar   70  TYR70      -0.0009
      8  CD2        4.0530   41.2350   63.7800 C.ar   70  TYR70      -0.0009
      9  CE1        4.5730   39.5980   61.5590 C.ar   70  TYR70       0.0417
     10  CE2        3.3570   41.4780   62.5660 C.ar   70  TYR70       0.0417
     11  CZ         3.6520   40.6690   61.4710 C.ar   70  TYR70       0.1957
     12  OH         3.0240   40.8540   60.2610 O.3    70  TYR70      -0.2866
     13  N          7.4400   41.8560   63.9940 N.am   71  VAL71      -0.1966
     14  CA         8.1850   42.9720   63.4110 C.3    71  VAL71       0.1727
     15  C          8.6670   43.9890   64.5100 C.2    71  VAL71       0.2616
     16  O          7.9180   44.3280   65.3910 O.2    71  VAL71      -0.2715
     17  CB         7.2250   43.7390   62.4770 C.3    71  VAL71       0.0290
     18  CG1        7.8970   44.9510   61.9160 C.3    71  VAL71       0.0023
     19  CG2        6.8080   42.8250   61.2640 C.3    71  VAL71       0.0023
     20  N          9.9320   44.3740   64.4650 N.am   72  GLU72      -0.1963
     21  CA        10.4310   45.4570   65.3050 C.3    72  GLU72       0.1733
     22  C         10.7710   46.6860   64.4640 C.2    72  GLU72       0.2616
     23  O         10.8600   46.6010   63.2360 O.2    72  GLU72      -0.2715
     24  CB        11.7110   44.9860   65.9960 C.3    72  GLU72       0.0429
     25  CG        11.4370   43.7610   66.8620 C.3    72  GLU72       0.1163
     26  CD        12.6880   43.0500   67.4110 C.2    72  GLU72       0.3649
     27  OE1       13.8420   43.5060   67.2230 O.co2  72  GLU72      -0.2457
     28  OE2       12.4970   42.0120   68.0710 O.co2  72  GLU72      -0.2457
     29  N         11.0040   47.8090   65.1240 N.am   73  ASP73      -0.1971
     30  CA        11.5800   48.9650   64.4410 C.3    73  ASP73       0.1709
     31  C         13.0680   48.6320   64.1730 C.2    73  ASP73       0.2293
     32  O         13.5840   47.5650   64.5040 O.2    73  ASP73      -0.2864
     33  CB        11.5100   50.1760   65.3660 C.3    73  ASP73       0.1436
     34  CG        12.4850   50.0580   66.5210 C.2    73  ASP73       0.3671
     35  OD1       12.3840   49.0790   67.3060 O.co2  73  ASP73      -0.2456
     36  OD2       13.3830   50.9500   66.6600 O.co2  73  ASP73      -0.2456
     37  N         11.2630   48.8830   69.6300 N.3    78  PHE78      -0.1227
     38  CA         9.8610   48.5670   69.6940 C.3    78  PHE78       0.1736
     39  C          9.5700   47.2890   68.9520 C.2    78  PHE78       0.2595
     40  O         10.2450   46.9910   67.9640 O.2    78  PHE78      -0.2718
     41  CB         9.0770   49.6720   68.9320 C.3    78  PHE78       0.0547
     42  CG         9.3900   51.0590   69.4410 C.ar   78  PHE78      -0.0202
     43  CD1        9.0060   51.4150   70.7380 C.ar   78  PHE78      -0.0042
     44  CD2       10.2390   51.8970   68.7000 C.ar   78  PHE78      -0.0042
     45  CE1        9.3590   52.6710   71.2390 C.ar   78  PHE78      -0.0003
     46  CE2       10.5860   53.1720   69.1900 C.ar   78  PHE78      -0.0003
     47  CZ        10.1840   53.5020   70.4650 C.ar   78  PHE78      -0.0000
     48  N          8.5570   46.5770   69.3920 N.am   79  ARG79      -0.1966
     49  CA         8.1210   45.3880   68.5980 C.3    79  ARG79       0.1729
     50  C          6.5680   45.3850   68.6490 C.2    79  ARG79       0.2616
     51  O          5.9120   45.5620   69.7250 O.2    79  ARG79      -0.2715
     52  CB         8.6940   44.0770   69.2400 C.3    79  ARG79       0.0348
     53  CG         8.2650   42.7680   68.4800 C.3    79  ARG79       0.0492
     54  CD         9.2040   41.5860   68.8930 C.3    79  ARG79       0.2205
     55  NE         9.2140   41.4190   70.3450 N.pl3  79  ARG79      -0.0865
     56  CZ        10.2570   41.5850   71.1620 C.cat  79  ARG79       0.5346
     57  NH1       11.4770   41.9520   70.7580 N.pl3  79  ARG79       0.1354
     58  NH2       10.0380   41.3910   72.4690 N.pl3  79  ARG79       0.1354
     59  N          5.9140   45.1160   67.5050 N.am   80  PHE80      -0.1974
     60  CA         4.4550   45.1810   67.5460 C.3    80  PHE80       0.1639
     61  C          3.9020   44.1910   68.5430 C.2    80  PHE80       0.2290
     62  O          4.4810   43.0860   68.6900 O.2    80  PHE80      -0.2864
     63  CB         3.8990   44.7760   66.1790 C.3    80  PHE80       0.0560
     64  CG         4.0240   45.8430   65.1550 C.ar   80  PHE80      -0.0200
     65  CD1        3.4170   47.0110   65.3180 C.ar   80  PHE80      -0.0042
     66  CD2        4.6860   45.5870   63.9470 C.ar   80  PHE80      -0.0042
     67  CE1        3.5180   48.0250   64.3020 C.ar   80  PHE80      -0.0003
     68  CE2        4.7780   46.5770   62.9330 C.ar   80  PHE80      -0.0003
     69  CZ         4.2250   47.8090   63.1470 C.ar   80  PHE80      -0.0000
     70  N          0.2910   43.0360   68.6780 N.3    82  TYR82      -0.1241
     71  CA        -1.1090   42.8930   68.3560 C.3    82  TYR82       0.1605
     72  C         -1.8320   42.1380   69.4560 C.2    82  TYR82       0.2264
     73  O         -1.3310   41.1240   69.9500 O.2    82  TYR82      -0.2867
     74  CB        -1.1740   42.0450   67.0640 C.3    82  TYR82       0.0534
     75  CG        -0.7460   42.8080   65.7880 C.ar   82  TYR82      -0.0201
     76  CD1        0.5930   42.8050   65.3540 C.ar   82  TYR82      -0.0009
     77  CD2       -1.7260   43.4800   65.0050 C.ar   82  TYR82      -0.0009
     78  CE1        0.9480   43.4650   64.1860 C.ar   82  TYR82       0.0417
     79  CE2       -1.3980   44.0870   63.8050 C.ar   82  TYR82       0.0417
     80  CZ        -0.0930   44.1000   63.4240 C.ar   82  TYR82       0.1957
     81  OH         0.2360   44.7260   62.2160 O.3    82  TYR82      -0.2866
     82  N         -0.8050   37.9420   55.7460 N.3   157  ASN157     -0.1240
     83  CA        -0.2090   38.8370   56.8080 C.3   157  ASN157      0.1653
     84  C          0.3230   37.9060   57.8990 C.2   157  ASN157      0.2266
     85  O          0.1120   36.6680   57.8600 O.2   157  ASN157     -0.2867
     86  CB        -1.3190   39.8230   57.2960 C.3   157  ASN157      0.1155
     87  CG        -0.7730   41.1490   57.8410 C.2   157  ASN157      0.2627
     88  OD1        0.3640   41.2590   58.2140 O.2   157  ASN157     -0.2716
     89  ND2       -1.6550   42.1250   57.9660 N.am  157  ASN157     -0.0877
     90  N          1.8050   43.0330   52.0580 N.3   193  THR193     -0.1203
     91  CA         2.7240   44.1630   52.1360 C.3   193  THR193      0.1994
     92  C          3.9480   43.7330   52.9690 C.2   193  THR193      0.2617
     93  O          3.9410   42.7070   53.6920 O.2   193  THR193     -0.2717
     94  CB         2.0760   45.3900   52.8040 C.3   193  THR193      0.1784
     95  OG1        1.5950   45.0370   54.1070 O.3   193  THR193     -0.2211
     96  CG2        0.9070   45.9560   52.0080 C.3   193  THR193      0.0376
     97  N          5.0130   44.5100   52.8550 N.am  194  ALA194     -0.1979
     98  CA         6.1710   44.3480   53.7630 C.3   194  ALA194      0.1597
     99  C          6.9150   45.6620   53.8310 C.2   194  ALA194      0.2287
    100  O          6.9090   46.4890   52.8670 O.2   194  ALA194     -0.2864
    101  CB         7.0990   43.2550   53.2320 C.3   194  ALA194      0.0319
    102  N          5.6570   55.9100   55.5640 N.3   207  TYR207     -0.1241
    103  CA         4.8470   55.9950   56.7550 C.3   207  TYR207      0.1605
    104  C          4.7930   57.4060   57.2530 C.2   207  TYR207      0.2264
    105  O          5.7640   58.1720   57.0200 O.2   207  TYR207     -0.2867
    106  CB         5.5210   55.1810   57.8380 C.3   207  TYR207      0.0534
    107  CG         5.7980   53.7140   57.4780 C.ar  207  TYR207     -0.0201
    108  CD1        4.7960   52.7590   57.5130 C.ar  207  TYR207     -0.0009
    109  CD2        7.1050   53.2840   57.2280 C.ar  207  TYR207     -0.0009
    110  CE1        5.0640   51.4010   57.2870 C.ar  207  TYR207      0.0417
    111  CE2        7.3790   51.9160   56.9870 C.ar  207  TYR207      0.0417
    112  CZ         6.3580   50.9900   57.0350 C.ar  207  TYR207      0.1957
    113  OH         6.6070   49.6230   56.7930 O.3   207  TYR207     -0.2866
    114  N          3.5270   59.7630   60.8690 N.3   209  HIS209     -0.1241
    115  CA         3.1580   59.7390   62.3300 C.3   209  HIS209      0.1621
    116  C          2.6560   61.0850   62.7550 C.2   209  HIS209      0.2264
    117  O          3.2350   62.1100   62.3610 O.2   209  HIS209     -0.2867
    118  CB         4.3800   59.4280   63.1680 C.3   209  HIS209      0.0745
    119  CG         5.1020   58.2240   62.6790 C.ar  209  HIS209      0.0817
    120  ND1        4.5040   56.9820   62.6140 N.ar  209  HIS209     -0.2268
    121  CD2        6.3720   58.0570   62.2420 C.ar  209  HIS209      0.1154
    122  CE1        5.3600   56.1060   62.1170 C.ar  209  HIS209      0.1986
    123  NE2        6.4940   56.7360   61.8570 N.ar  209  HIS209     -0.2212
    124  N         10.7090   57.2330   70.4950 N.3   222  PHE222     -0.1241
    125  CA         9.9690   57.1670   69.2510 C.3   222  PHE222      0.1605
    126  C         10.2190   58.4260   68.4280 C.2   222  PHE222      0.2264
    127  O         10.4080   58.3390   67.2470 O.2   222  PHE222     -0.2867
    128  CB         8.4750   57.0050   69.5360 C.3   222  PHE222      0.0534
    129  CG         7.6380   56.9120   68.2960 C.ar  222  PHE222     -0.0203
    130  CD1        7.1850   58.0540   67.6480 C.ar  222  PHE222     -0.0042
    131  CD2        7.2370   55.6630   67.8310 C.ar  222  PHE222     -0.0042
    132  CE1        6.3780   57.9650   66.5140 C.ar  222  PHE222     -0.0003
    133  CE2        6.4240   55.5700   66.6980 C.ar  222  PHE222     -0.0003
    134  CZ         6.0030   56.7190   66.0400 C.ar  222  PHE222     -0.0000
    135  N         -7.6600   51.7810   63.8570 N.3   316  TYR316     -0.1241
    136  CA        -7.5380   50.5880   64.7280 C.3   316  TYR316      0.1605
    137  C         -6.3050   50.7020   65.6220 C.2   316  TYR316      0.2264
    138  O         -5.4430   51.5510   65.4090 O.2   316  TYR316     -0.2867
    139  CB        -7.5430   49.3040   63.8450 C.3   316  TYR316      0.0534
    140  CG        -6.5010   49.3290   62.7350 C.ar  316  TYR316     -0.0201
    141  CD1       -5.1710   48.9170   62.9280 C.ar  316  TYR316     -0.0009
    142  CD2       -6.8320   49.8030   61.4690 C.ar  316  TYR316     -0.0009
    143  CE1       -4.2280   48.9340   61.9070 C.ar  316  TYR316      0.0417
    144  CE2       -5.8970   49.8630   60.4670 C.ar  316  TYR316      0.0417
    145  CZ        -4.6190   49.4170   60.6620 C.ar  316  TYR316      0.1957
    146  OH        -3.7680   49.5400   59.6150 O.3   316  TYR316     -0.2866
    147  N         -2.9090   49.2430   67.3960 N.3   318  ILE318     -0.1245
    148  CA        -1.8940   48.2190   67.5720 C.3   318  ILE318      0.1561
    149  C         -0.9310   48.8170   68.5580 C.2   318  ILE318      0.2260
    150  O         -0.1920   49.7440   68.2230 O.2   318  ILE318     -0.2867
    151  CB        -1.1240   47.8240   66.3060 C.3   318  ILE318      0.0252
    152  CG1       -2.0520   47.4960   65.1090 C.3   318  ILE318      0.0019
    153  CG2       -0.3010   46.5770   66.6660 C.3   318  ILE318      0.0019
    154  CD1       -1.2940   47.5880   63.7560 C.3   318  ILE318      0.0001
    155  N          2.6290   48.6460   70.7440 N.3   320  SER320     -0.1217
    156  CA         3.9860   48.0880   70.5700 C.3   320  SER320      0.1889
    157  C          4.6430   47.9700   71.9040 C.2   320  SER320      0.2288
    158  O          4.4570   48.8230   72.7760 O.2   320  SER320     -0.2866
    159  CB         4.8730   48.9460   69.6570 C.3   320  SER320      0.2089
    160  OG         4.4440   48.6980   68.3280 O.3   320  SER320     -0.2183
    161  N          3.7560   51.3690   73.7510 N.3   331  LEU331     -0.1245
    162  CA         3.3600   52.5090   72.9040 C.3   331  LEU331      0.1561
    163  C          1.9300   52.2620   72.3650 C.2   331  LEU331      0.2260
    164  O          1.6520   51.1630   71.8120 O.2   331  LEU331     -0.2867
    165  CB         4.2860   52.5500   71.7490 C.3   331  LEU331      0.0270
    166  CG         3.8040   53.4250   70.5590 C.3   331  LEU331      0.0019
    167  CD1        3.9720   54.8740   70.9510 C.3   331  LEU331      0.0001
    168  CD2        4.6500   53.1570   69.3230 C.3   331  LEU331      0.0001
    169  N         -3.9900   53.7100   64.1020 N.3   335  TYR335     -0.1241
    170  CA        -3.6580   53.6310   62.6610 C.3   335  TYR335      0.1605
    171  C         -4.8910   54.0370   61.8890 C.2   335  TYR335      0.2264
    172  O         -5.9950   53.5030   62.0670 O.2   335  TYR335     -0.2867
    173  CB        -3.3350   52.1500   62.3420 C.3   335  TYR335      0.0534
    174  CG        -2.0110   51.7890   62.9220 C.ar  335  TYR335     -0.0201
    175  CD1       -1.9050   51.3950   64.2680 C.ar  335  TYR335     -0.0009
    176  CD2       -0.8890   51.7720   62.1580 C.ar  335  TYR335     -0.0009
    177  CE1       -0.6570   51.1370   64.8140 C.ar  335  TYR335      0.0417
    178  CE2        0.4010   51.4540   62.6920 C.ar  335  TYR335      0.0417
    179  CZ         0.4540   51.1220   64.0610 C.ar  335  TYR335      0.1957
    180  OH         1.6950   50.8690   64.6620 O.3   335  TYR335     -0.2866
    181  N         -0.8380   56.8440   63.2470 N.3   366  ASN366     -0.1225
    182  CA         0.0530   56.4430   62.1530 C.3   366  ASN366      0.1785
    183  C         -0.7590   56.1710   60.8900 C.2   366  ASN366      0.2597
    184  O         -1.9210   55.8230   60.9420 O.2   366  ASN366     -0.2718
    185  CB         0.7300   55.0960   62.5280 C.3   366  ASN366      0.1169
    186  CG         1.6190   55.2260   63.7170 C.2   366  ASN366      0.2627
    187  OD1        2.3270   56.2440   63.8590 O.2   366  ASN366     -0.2716
    188  ND2        1.6450   54.1600   64.5860 N.am  366  ASN366     -0.0877
    189  N         -0.1030   56.2880   59.7370 N.am  367  MET367     -0.1965
    190  CA        -0.7370   55.9320   58.4550 C.3   367  MET367      0.1736
    191  C          0.3460   55.7930   57.4010 C.2   367  MET367      0.2616
    192  O          1.5000   56.1040   57.6260 O.2   367  MET367     -0.2715
    193  CB        -1.7640   56.9810   57.9980 C.3   367  MET367      0.0427
    194  CG        -1.0620   58.3000   57.6590 C.3   367  MET367      0.0599
    195  SD        -2.3150   59.5320   57.3310 S.3   367  MET367     -0.1393
    196  CE        -1.2710   60.9460   56.8940 C.3   367  MET367      0.0692
    197  N         -0.0400   55.2630   56.2490 N.am  368  VAL368     -0.1977
    198  CA         0.8860   55.2740   55.0650 C.3   368  VAL368      0.1596
    199  C          0.2160   56.2390   54.0910 C.2   368  VAL368      0.2287
    200  O         -0.9840   56.4890   54.1900 O.2   368  VAL368     -0.2864
    201  CB         0.9440   53.8550   54.4720 C.3   368  VAL368      0.0276
    202  CG1        1.7590   53.7670   53.1660 C.3   368  VAL368      0.0022
    203  CG2        1.5910   52.9340   55.4840 C.3   368  VAL368      0.0022
    204  N          6.3370   51.3010   53.2770 N.3   389  LEU389     -0.1245
    205  CA         5.5380   50.0670   53.2070 C.3   389  LEU389      0.1561
    206  C          5.4160   49.7820   51.7130 C.2   389  LEU389      0.2260
    207  O          5.0000   50.6740   50.9550 O.2   389  LEU389     -0.2867
    208  CB         4.1090   50.3270   53.7860 C.3   389  LEU389      0.0270
    209  CG         3.3620   48.9930   53.8760 C.3   389  LEU389      0.0019
    210  CD1        4.0040   47.9650   54.8330 C.3   389  LEU389      0.0001
    211  CD2        1.9490   49.1860   54.3550 C.3   389  LEU389      0.0001
    212  N         -6.2250   49.1050   52.8320 N.3   409  VAL409     -0.1231
    213  CA        -5.5120   49.3040   54.0880 C.3   409  VAL409      0.1692
    214  C         -4.9740   47.9550   54.5520 C.2   409  VAL409      0.2592
    215  O         -5.6750   46.9840   54.4590 O.2   409  VAL409     -0.2718
    216  CB        -6.4430   49.9420   55.1360 C.3   409  VAL409      0.0266
    217  CG1       -5.6680   50.0410   56.4700 C.3   409  VAL409      0.0020
    218  CG2       -6.9450   51.2990   54.6840 C.3   409  VAL409      0.0020
    219  N         -3.7150   47.8570   55.0330 N.am  410  MET410     -0.1965
    220  CA        -3.2650   46.5430   55.4640 C.3   410  MET410      0.1736
    221  C         -2.9490   46.6400   56.9430 C.2   410  MET410      0.2616
    222  O         -2.3790   47.6310   57.4210 O.2   410  MET410     -0.2715
    223  CB        -2.1080   46.0020   54.5820 C.3   410  MET410      0.0427
    224  CG        -2.5820   45.6850   53.1430 C.3   410  MET410      0.0599
    225  SD        -3.2860   44.0580   52.8750 S.3   410  MET410     -0.1393
    226  CE        -1.8290   43.0410   52.7340 C.3   410  MET410      0.0692
    227  N         -3.3490   45.5990   57.6460 N.am  411  LEU411     -0.1977
    228  CA        -3.2820   45.6150   59.1140 C.3   411  LEU411      0.1596
    229  C         -1.8480   45.3430   59.6420 C.2   411  LEU411      0.2287
    230  O         -0.9930   44.7470   58.9790 O.2   411  LEU411     -0.2864
    231  CB        -4.3600   44.6670   59.7020 C.3   411  LEU411      0.0297
    232  CG        -5.8190   44.9800   59.3200 C.3   411  LEU411      0.0022
    233  CD1       -6.7410   43.8770   59.8620 C.3   411  LEU411      0.0001
    234  CD2       -6.2920   46.3510   59.7560 C.3   411  LEU411      0.0001
@<TRIPOS>BOND
     1   207   206    2
     2   206   205    1
     3    96    94    1
     4    90    91    1
     5    91    94    1
     6    91    92    1
     7   226   225    1
     8    94    95    1
     9   212   213    1
    10    97    92   am
    11    97    98    1
    12   100    99    2
    13   225   224    1
    14    92    93    2
    15   224   223    1
    16   202   201    1
    17   205   204    1
    18   205   208    1
    19   101    98    1
    20    98    99    1
    21   208   209    1
    22   209   211    1
    23   209   210    1
    24   213   214    1
    25   213   216    1
    26   199   200    2
    27   199   198    1
    28   215   214    2
    29   201   198    1
    30   201   203    1
    31   214   219   am
    32   223   220    1
    33   218   216    1
    34   219   220    1
    35   198   197    1
    36   216   217    1
    37   220   221    1
    38   102   103    1
    39    82    83    1
    40   197   191   am
    41   103   104    1
    42   103   106    1
    43   113   112    1
    44    83    86    1
    45    83    84    1
    46   196   195    1
    47   221   222    2
    48   221   227   am
    49   111   112   ar
    50   111   109   ar
    51   105   104    2
    52   112   110   ar
    53   109   107   ar
    54   110   108   ar
    55    86    87    1
    56   195   194    1
    57   191   192    2
    58   191   190    1
    59   107   108   ar
    60   107   106    1
    61   227   228    1
    62   194   193    1
    63    87    89   am
    64    87    88    2
    65    85    84    2
    66   193   190    1
    67   190   189    1
    68   230   229    2
    69   228   229    1
    70   228   231    1
    71   232   231    1
    72   232   234    1
    73   232   233    1
    74   146   145    1
    75   189   183   am
    76    12    11    1
    77   144   145   ar
    78   144   142   ar
    79   145   143   ar
    80   114   115    1
    81   183   184    2
    82   183   182    1
    83    19    17    1
    84   142   140   ar
    85    11     9   ar
    86    11    10   ar
    87     9     7   ar
    88   123   122   ar
    89   123   121   ar
    90   171   172    2
    91   171   170    1
    92   143   141   ar
    93    18    17    1
    94   122   120   ar
    95   182   185    1
    96   182   181    1
    97   176   178   ar
    98   176   174   ar
    99    81    80    1
   100   121   119   ar
   101   115   116    1
   102   115   118    1
   103   173   170    1
   104   173   174    1
   105   117   116    2
   106    17    14    1
   107   185   186    1
   108    10     8   ar
   109   120   119   ar
   110   170   169    1
   111   119   118    1
   112   178   179   ar
   113   140   141   ar
   114   140   139    1
   115     7     6   ar
   116   174   175   ar
   117    68    69   ar
   118    68    66   ar
   119    69    67   ar
   120    23    22    2
   121    14    13    1
   122    14    15    1
   123    80    79   ar
   124    80    78   ar
   125   186   187    2
   126   186   188   am
   127   154   152    1
   128     8     6   ar
   129    79    77   ar
   130   139   136    1
   131   135   136    1
   132     6     5    1
   133    66    64   ar
   134    13     3   am
   135   179   180    1
   136   179   177   ar
   137    31    30    1
   138    31    32    2
   139    78    76   ar
   140   175   177   ar
   141    67    65   ar
   142    30    29    1
   143    30    33    1
   144    22    29   am
   145    22    21    1
   146    20    15   am
   147    20    21    1
   148    15    16    2
   149   136   137    1
   150     3     2    1
   151     3     4    2
   152    77    75   ar
   153   152   151    1
   154     2     5    1
   155     2     1    1
   156    64    65   ar
   157    64    63    1
   158    21    24    1
   159    76    75   ar
   160    33    34    1
   161   138   137    2
   162    75    74    1
   163    24    25    1
   164   134   132   ar
   165   134   133   ar
   166    63    60    1
   167   151   153    1
   168   151   148    1
   169   132   130   ar
   170    34    36   ar
   171    34    35   ar
   172   133   131   ar
   173    25    26    1
   174    74    71    1
   175    27    26   ar
   176   127   126    2
   177   147   148    1
   178    26    28   ar
   179    59    60    1
   180    59    50   am
   181    60    61    1
   182   148   149    1
   183   130   129   ar
   184   131   129   ar
   185    40    39    2
   186   150   149    2
   187   129   128    1
   188   160   159    1
   189    71    70    1
   190    71    72    1
   191   126   125    1
   192    53    54    1
   193    53    52    1
   194    61    62    2
   195    49    50    1
   196    49    52    1
   197    49    48    1
   198    50    51    2
   199    44    46   ar
   200    44    42   ar
   201    54    55    1
   202    41    42    1
   203    41    38    1
   204    39    48   am
   205    39    38    1
   206    46    47   ar
   207   125   128    1
   208   125   124    1
   209   168   166    1
   210    42    43   ar
   211    72    73    2
   212    37    38    1
   213   159   156    1
   214    55    56    2
   215    47    45   ar
   216   166   167    1
   217   166   165    1
   218   156   155    1
   219   156   157    1
   220    43    45   ar
   221    57    56    1
   222    56    58    1
   223   165   162    1
   224   164   163    2
   225   157   158    2
   226   163   162    1
   227   162   161    1
