@<TRIPOS>MOLECULE
tmp/4cgoA02.pdb
 166 158 0 0 0
SMALL
GASTEIGER

@<TRIPOS>ATOM
      1  N          8.7110   41.4500   64.6290 N.3    71  VAL71      -0.1231
      2  CA         9.6330   42.4390   64.0670 C.3    71  VAL71       0.1692
      3  C         10.1180   43.4280   65.1410 C.2    71  VAL71       0.2592
      4  O          9.3410   43.8770   66.0270 O.2    71  VAL71      -0.2718
      5  CB         8.9220   43.3010   62.9960 C.3    71  VAL71       0.0266
      6  CG1        9.9540   44.1720   62.3200 C.3    71  VAL71       0.0020
      7  CG2        8.1460   42.4940   61.9620 C.3    71  VAL71       0.0020
      8  N         11.4390   43.6630   65.0940 N.am   72  GLU72      -0.1966
      9  CA        12.0810   44.6410   65.9620 C.3    72  GLU72       0.1733
     10  C         12.9410   45.5330   65.1450 C.2    72  GLU72       0.2616
     11  O         13.3380   45.1720   64.0600 O.2    72  GLU72      -0.2715
     12  CB        12.7980   43.9820   67.1730 C.3    72  GLU72       0.0429
     13  CG        13.9880   43.1150   66.8020 C.3    72  GLU72       0.1163
     14  CD        14.5030   42.4070   68.0710 C.2    72  GLU72       0.3649
     15  OE1       13.8920   41.5320   68.7010 O.co2  72  GLU72      -0.2457
     16  OE2       15.4880   42.8740   68.6250 O.co2  72  GLU72      -0.2457
     17  N         13.2550   46.6980   65.7010 N.am   73  ASP73      -0.1957
     18  CA        14.1490   47.5940   64.9570 C.3    73  ASP73       0.1840
     19  C         15.5890   47.0000   64.9860 C.2    73  ASP73       0.2622
     20  O         15.9540   46.1480   65.7260 O.2    73  ASP73      -0.2715
     21  CB        14.0520   49.0150   65.4980 C.3    73  ASP73       0.1450
     22  CG        14.6830   49.1150   66.8130 C.2    73  ASP73       0.3671
     23  OD1       14.2840   48.4130   67.7780 O.co2  73  ASP73      -0.2456
     24  OD2       15.7710   49.8230   66.9630 O.co2  73  ASP73      -0.2456
     25  N         16.4730   47.6120   64.1370 N.am   74  ASP74      -0.1971
     26  CA        17.8810   47.0900   64.1070 C.3    74  ASP74       0.1709
     27  C         18.7290   47.2930   65.3840 C.2    74  ASP74       0.2293
     28  O         19.7130   46.5610   65.6870 O.2    74  ASP74      -0.2864
     29  CB        18.6070   47.8170   62.9190 C.3    74  ASP74       0.1436
     30  CG        18.1820   47.3360   61.5530 C.2    74  ASP74       0.3671
     31  OD1       17.4640   46.2900   61.4430 O.co2  74  ASP74      -0.2456
     32  OD2       18.5920   48.0360   60.5860 O.co2  74  ASP74      -0.2456
     33  N         15.5440   48.0830   70.1820 N.3    77  MET77      -0.1230
     34  CA        14.8760   48.9490   71.1690 C.3    77  MET77       0.1702
     35  C         13.3650   48.6800   71.3020 C.2    77  MET77       0.2592
     36  O         12.8270   48.8920   72.3700 O.2    77  MET77      -0.2718
     37  CB        14.9670   50.4220   70.7420 C.3    77  MET77       0.0401
     38  CG        16.3530   50.9480   70.5900 C.3    77  MET77       0.0596
     39  SD        16.2560   52.7370   70.3390 S.3    77  MET77      -0.1393
     40  CE        18.0030   53.0480   70.4740 C.3    77  MET77       0.0692
     41  N         12.7340   48.2980   70.1830 N.am   78  PHE78      -0.1976
     42  CA        11.2760   48.1020   70.1780 C.3    78  PHE78       0.1639
     43  C         10.9870   46.8540   69.4240 C.2    78  PHE78       0.2290
     44  O         11.5230   46.5830   68.3180 O.2    78  PHE78      -0.2864
     45  CB        10.6020   49.2770   69.3670 C.3    78  PHE78       0.0560
     46  CG        11.0400   50.6810   69.8280 C.ar   78  PHE78      -0.0200
     47  CD1       10.8070   51.0930   71.1040 C.ar   78  PHE78      -0.0042
     48  CD2       11.7320   51.5150   68.9720 C.ar   78  PHE78      -0.0042
     49  CE1       11.3020   52.3800   71.5790 C.ar   78  PHE78      -0.0003
     50  CE2       12.1920   52.7910   69.4080 C.ar   78  PHE78      -0.0003
     51  CZ        11.9390   53.2030   70.6510 C.ar   78  PHE78      -0.0000
     52  N          7.3740   44.6690   68.1750 N.3    80  PHE80      -0.1241
     53  CA         5.8740   44.6590   68.2740 C.3    80  PHE80       0.1605
     54  C          5.3390   43.6860   69.2880 C.2    80  PHE80       0.2264
     55  O          5.8700   42.5860   69.4750 O.2    80  PHE80      -0.2867
     56  CB         5.2830   44.2830   66.9100 C.3    80  PHE80       0.0534
     57  CG         5.5030   45.3300   65.8740 C.ar   80  PHE80      -0.0203
     58  CD1        4.9800   46.5970   66.0250 C.ar   80  PHE80      -0.0042
     59  CD2        6.2740   45.0210   64.7330 C.ar   80  PHE80      -0.0042
     60  CE1        5.2070   47.5860   65.0290 C.ar   80  PHE80      -0.0003
     61  CE2        6.4710   45.9950   63.7320 C.ar   80  PHE80      -0.0003
     62  CZ         6.0010   47.2700   63.8990 C.ar   80  PHE80      -0.0000
     63  N          4.9080   59.5530   61.2020 N.3   209  HIS209     -0.1241
     64  CA         4.6100   59.4830   62.6370 C.3   209  HIS209      0.1621
     65  C          4.1640   60.8580   63.0910 C.2   209  HIS209      0.2264
     66  O          4.6970   61.8570   62.6590 O.2   209  HIS209     -0.2867
     67  CB         5.8560   59.0120   63.4090 C.3   209  HIS209      0.0745
     68  CG         6.5590   57.8460   62.7500 C.ar  209  HIS209      0.0817
     69  ND1        6.0080   56.5890   62.7600 N.ar  209  HIS209     -0.2268
     70  CD2        7.6610   57.7760   61.9260 C.ar  209  HIS209      0.1154
     71  CE1        6.7550   55.7770   62.0220 C.ar  209  HIS209      0.1986
     72  NE2        7.7450   56.4640   61.4780 N.ar  209  HIS209     -0.2212
     73  N         13.6520   57.0680   73.2220 N.3   221  ARG221     -0.1231
     74  CA        14.3830   57.1530   72.0700 C.3   221  ARG221      0.1694
     75  C         13.7640   56.7420   70.7380 C.2   221  ARG221      0.2592
     76  O         14.3270   56.3580   69.7850 O.2   221  ARG221     -0.2718
     77  CB        15.8010   56.4940   72.2330 C.3   221  ARG221      0.0321
     78  CG        16.6500   57.0040   73.3760 C.3   221  ARG221      0.0489
     79  CD        17.9020   56.1560   73.1520 C.3   221  ARG221      0.2205
     80  NE        19.1110   56.4840   73.8870 N.pl3 221  ARG221     -0.0865
     81  CZ        20.3200   56.1340   73.4550 C.cat 221  ARG221      0.5346
     82  NH1       20.4420   55.4720   72.3010 N.pl3 221  ARG221      0.1354
     83  NH2       21.3990   56.4440   74.1650 N.pl3 221  ARG221      0.1354
     84  N         12.4360   56.8430   70.7090 N.am  222  PHE222     -0.1962
     85  CA        11.7160   56.7000   69.4960 C.3   222  PHE222      0.1771
     86  C         11.9950   57.9160   68.6880 C.2   222  PHE222      0.2620
     87  O         12.1230   57.8260   67.5320 O.2   222  PHE222     -0.2715
     88  CB        10.1720   56.6730   69.8300 C.3   222  PHE222      0.0574
     89  CG         9.2410   56.5900   68.6230 C.ar  222  PHE222     -0.0200
     90  CD1        8.9090   57.7080   67.8790 C.ar  222  PHE222     -0.0042
     91  CD2        8.6810   55.3820   68.2790 C.ar  222  PHE222     -0.0042
     92  CE1        8.0480   57.6250   66.7730 C.ar  222  PHE222     -0.0003
     93  CE2        7.7740   55.2960   67.2190 C.ar  222  PHE222     -0.0003
     94  CZ         7.4820   56.4450   66.4860 C.ar  222  PHE222     -0.0000
     95  N         12.0590   59.0320   69.4570 N.am  223  SER223     -0.1950
     96  CA        12.2940   60.4370   68.9420 C.3   223  SER223      0.1924
     97  C         13.5320   61.0040   69.6210 C.2   223  SER223      0.2314
     98  O         13.8540   60.6240   70.8010 O.2   223  SER223     -0.2863
     99  CB        11.0620   61.3690   69.3110 C.3   223  SER223      0.2116
    100  OG         9.9110   60.9340   68.7150 O.3   223  SER223     -0.2180
    101  N         -1.4720   49.0520   68.0390 N.3   318  ILE318     -0.1245
    102  CA        -0.3880   48.0320   68.1380 C.3   318  ILE318      0.1561
    103  C          0.6130   48.5270   69.1520 C.2   318  ILE318      0.2260
    104  O          1.3070   49.4750   68.8320 O.2   318  ILE318     -0.2867
    105  CB         0.2960   47.6990   66.7890 C.3   318  ILE318      0.0252
    106  CG1       -0.7390   47.4450   65.6620 C.3   318  ILE318      0.0019
    107  CG2        1.3230   46.5470   66.9980 C.3   318  ILE318      0.0019
    108  CD1       -0.0650   47.3620   64.2850 C.3   318  ILE318      0.0001
    109  N          4.1550   48.2480   71.2910 N.3   320  SER320     -0.1217
    110  CA         5.4960   47.6090   71.1920 C.3   320  SER320      0.1889
    111  C          6.1250   47.5240   72.5860 C.2   320  SER320      0.2288
    112  O          5.9500   48.4140   73.4160 O.2   320  SER320     -0.2866
    113  CB         6.3810   48.3640   70.3110 C.3   320  SER320      0.2089
    114  OG         5.9800   48.2390   68.9230 O.3   320  SER320     -0.2183
    115  N          5.2840   51.0340   74.3540 N.3   331  LEU331     -0.1245
    116  CA         5.0210   52.1460   73.4250 C.3   331  LEU331      0.1561
    117  C          3.6210   51.8740   72.9300 C.2   331  LEU331      0.2260
    118  O          3.3440   50.7990   72.3110 O.2   331  LEU331     -0.2867
    119  CB         6.0430   52.0860   72.2810 C.3   331  LEU331      0.0270
    120  CG         5.7900   52.9630   71.0640 C.3   331  LEU331      0.0019
    121  CD1        5.6890   54.4470   71.4570 C.3   331  LEU331      0.0001
    122  CD2        6.8740   52.7670   70.0520 C.3   331  LEU331      0.0001
    123  N          0.9800   52.6540   70.2650 N.3   333  ALA333     -0.1245
    124  CA         0.8520   53.3080   68.9470 C.3   333  ALA333      0.1562
    125  C         -0.5320   53.1430   68.3740 C.2   333  ALA333      0.2260
    126  O         -1.1320   52.0370   68.4180 O.2   333  ALA333     -0.2867
    127  CB         1.8840   52.7690   67.9710 C.3   333  ALA333      0.0290
    128  N         -2.6400   53.5330   64.7790 N.3   335  TYR335     -0.1241
    129  CA        -2.3640   53.4870   63.3290 C.3   335  TYR335      0.1605
    130  C         -3.5930   53.9300   62.6040 C.2   335  TYR335      0.2264
    131  O         -4.7430   53.4640   62.8600 O.2   335  TYR335     -0.2867
    132  CB        -2.0660   52.0440   62.8770 C.3   335  TYR335      0.0534
    133  CG        -0.6630   51.6180   63.2070 C.ar  335  TYR335     -0.0201
    134  CD1       -0.2970   51.3180   64.5020 C.ar  335  TYR335     -0.0009
    135  CD2        0.2800   51.4590   62.2080 C.ar  335  TYR335     -0.0009
    136  CE1        1.0120   50.9180   64.8070 C.ar  335  TYR335      0.0417
    137  CE2        1.6010   51.0600   62.5110 C.ar  335  TYR335      0.0417
    138  CZ         1.8910   50.7970   63.8100 C.ar  335  TYR335      0.1957
    139  OH         3.2110   50.3240   64.1510 O.3   335  TYR335     -0.2866
    140  N          1.8070   57.9050   70.0160 N.3   364  VAL364     -0.1245
    141  CA         2.1760   58.2530   68.6400 C.3   364  VAL364      0.1561
    142  C          1.0770   57.7680   67.7370 C.2   364  VAL364      0.2260
    143  O          0.4210   56.7520   68.0400 O.2   364  VAL364     -0.2867
    144  CB         3.5850   57.6730   68.2560 C.3   364  VAL364      0.0252
    145  CG1        3.5340   56.1180   68.2430 C.3   364  VAL364      0.0019
    146  CG2        4.1010   58.2140   66.9360 C.3   364  VAL364      0.0019
    147  N          0.7730   56.4890   63.7680 N.3   366  ASN366     -0.1240
    148  CA         1.5680   56.0490   62.6030 C.3   366  ASN366      0.1653
    149  C          0.6890   55.8360   61.3790 C.2   366  ASN366      0.2266
    150  O         -0.5190   55.4620   61.4990 O.2   366  ASN366     -0.2867
    151  CB         2.2000   54.6770   62.9530 C.3   366  ASN366      0.1155
    152  CG         3.2420   54.7980   64.0510 C.2   366  ASN366      0.2627
    153  OD1        3.9260   55.7460   64.2080 O.2   366  ASN366     -0.2716
    154  ND2        3.2580   53.8040   64.9580 N.am  366  ASN366     -0.0877
    155  N          9.2900   58.9500   58.7590 N.3   385  GLY385     -0.1210
    156  CA        10.2260   58.1390   59.4790 C.3   385  GLY385      0.1956
    157  C         11.2550   57.5120   58.5810 C.2   385  GLY385      0.2611
    158  O         11.3250   57.8160   57.4160 O.2   385  GLY385     -0.2717
    159  N         12.0710   56.6070   59.0630 N.am  386  ASP386     -0.1973
    160  CA        13.0510   55.9510   58.1890 C.3   386  ASP386      0.1709
    161  C         12.5760   54.6680   57.5670 C.2   386  ASP386      0.2293
    162  O         13.2650   54.0250   56.7000 O.2   386  ASP386     -0.2864
    163  CB        14.3970   55.7070   58.8770 C.3   386  ASP386      0.1436
    164  CG        14.2740   55.1090   60.2330 C.2   386  ASP386      0.3671
    165  OD1       13.2350   54.5160   60.6300 O.co2 386  ASP386     -0.2456
    166  OD2       15.2800   55.2470   60.9940 O.co2 386  ASP386     -0.2456
@<TRIPOS>BOND
     1   162   161    2
     2   158   157    2
     3   161   160    1
     4   160   163    1
     5   160   159    1
     6   157   159   am
     7   157   156    1
     8   155   156    1
     9   163   164    1
    10   164   165   ar
    11   164   166   ar
    12    32    30   ar
    13    63    64    1
    14   149   150    2
    15   149   148    1
    16    31    30   ar
    17    72    70   ar
    18    72    71   ar
    19    30    29    1
    20    70    68   ar
    21     7     5    1
    22    71    69   ar
    23   135   137   ar
    24   135   133   ar
    25     6     5    1
    26   137   138   ar
    27   148   151    1
    28   148   147    1
    29   130   131    2
    30   130   129    1
    31    64    65    1
    32    64    67    1
    33    66    65    2
    34    68    69   ar
    35    68    67    1
    36   132   133    1
    37   132   129    1
    38    29    26    1
    39   151   152    1
    40     5     2    1
    41   133   134   ar
    42   129   128    1
    43    61    62   ar
    44    61    59   ar
    45   138   139    1
    46   138   136   ar
    47    62    60   ar
    48   152   153    2
    49   152   154   am
    50    11    10    2
    51     2     1    1
    52     2     3    1
    53    26    25    1
    54    26    27    1
    55    25    19   am
    56   108   106    1
    57   134   136   ar
    58    59    57   ar
    59    18    19    1
    60    18    21    1
    61    18    17    1
    62    19    20    2
    63    60    58   ar
    64     8     3   am
    65     8     9    1
    66     3     4    2
    67    10    17   am
    68    10     9    1
    69    27    28    2
    70    21    22    1
    71   106   105    1
    72    57    58   ar
    73    57    56    1
    74     9    12    1
    75    94    92   ar
    76    94    93   ar
    77    92    90   ar
    78   105   107    1
    79   105   102    1
    80    13    12    1
    81    13    14    1
    82    22    24   ar
    83    22    23   ar
    84    56    53    1
    85   146   144    1
    86    93    91   ar
    87    87    86    2
    88   142   143    2
    89   142   141    1
    90    90    89   ar
    91   127   124    1
    92   101   102    1
    93    14    16   ar
    94    14    15   ar
    95   102   103    1
    96    52    53    1
    97   145   144    1
    98   144   141    1
    99    53    54    1
   100    91    89   ar
   101    44    43    2
   102   125   126    2
   103   125   124    1
   104    89    88    1
   105   141   140    1
   106    86    95   am
   107    86    85    1
   108   100    99    1
   109   104   103    2
   110   114   113    1
   111    96    99    1
   112    96    95    1
   113    96    97    1
   114   124   123    1
   115    48    50   ar
   116    48    46   ar
   117    54    55    2
   118    45    46    1
   119    45    42    1
   120    50    51   ar
   121    43    42    1
   122    85    88    1
   123    85    84    1
   124    97    98    2
   125    76    75    2
   126    46    47   ar
   127   122   120    1
   128    42    41    1
   129    33    34    1
   130    41    35   am
   131   113   110    1
   132    39    40    1
   133    39    38    1
   134    38    37    1
   135    51    49   ar
   136    84    75   am
   137    75    74    1
   138    37    34    1
   139   120   121    1
   140   120   119    1
   141    47    49   ar
   142    34    35    1
   143   110   109    1
   144   110   111    1
   145    35    36    2
   146    74    77    1
   147    74    73    1
   148    77    78    1
   149   119   116    1
   150    82    81    1
   151   118   117    2
   152   111   112    2
   153   117   116    1
   154    79    78    1
   155    79    80    1
   156   116   115    1
   157    81    80    2
   158    81    83    1
