@<TRIPOS>MOLECULE
tmp/4cgoA01.pdb
 200 195 0 0 0
SMALL
GASTEIGER

@<TRIPOS>ATOM
      1  N          8.8100   38.6010   67.0000 N.3    70  TYR70      -0.1227
      2  CA         8.3430   39.3230   65.8040 C.3    70  TYR70       0.1736
      3  C          9.1750   40.5530   65.5200 C.2    70  TYR70       0.2595
      4  O         10.2780   40.7060   66.0340 O.2    70  TYR70      -0.2718
      5  CB         6.8390   39.5960   65.8980 C.3    70  TYR70       0.0548
      6  CG         6.1600   39.8560   64.5200 C.ar   70  TYR70      -0.0200
      7  CD1        6.3190   39.0230   63.4350 C.ar   70  TYR70      -0.0009
      8  CD2        5.2420   40.8970   64.4170 C.ar   70  TYR70      -0.0009
      9  CE1        5.6410   39.2330   62.2400 C.ar   70  TYR70       0.0417
     10  CE2        4.5510   41.1390   63.1910 C.ar   70  TYR70       0.0417
     11  CZ         4.7800   40.2820   62.1530 C.ar   70  TYR70       0.1957
     12  OH         4.1060   40.5430   60.9830 O.3    70  TYR70      -0.2866
     13  N          8.7110   41.4500   64.6290 N.am   71  VAL71      -0.1980
     14  CA         9.6330   42.4390   64.0670 C.3    71  VAL71       0.1595
     15  C         10.1180   43.4280   65.1410 C.2    71  VAL71       0.2287
     16  O          9.3410   43.8770   66.0270 O.2    71  VAL71      -0.2864
     17  CB         8.9220   43.3010   62.9960 C.3    71  VAL71       0.0276
     18  CG1        9.9540   44.1720   62.3200 C.3    71  VAL71       0.0022
     19  CG2        8.1460   42.4940   61.9620 C.3    71  VAL71       0.0022
     20  N          7.3740   44.6690   68.1750 N.3    80  PHE80      -0.1241
     21  CA         5.8740   44.6590   68.2740 C.3    80  PHE80       0.1605
     22  C          5.3390   43.6860   69.2880 C.2    80  PHE80       0.2264
     23  O          5.8700   42.5860   69.4750 O.2    80  PHE80      -0.2867
     24  CB         5.2830   44.2830   66.9100 C.3    80  PHE80       0.0534
     25  CG         5.5030   45.3300   65.8740 C.ar   80  PHE80      -0.0203
     26  CD1        4.9800   46.5970   66.0250 C.ar   80  PHE80      -0.0042
     27  CD2        6.2740   45.0210   64.7330 C.ar   80  PHE80      -0.0042
     28  CE1        5.2070   47.5860   65.0290 C.ar   80  PHE80      -0.0003
     29  CE2        6.4710   45.9950   63.7320 C.ar   80  PHE80      -0.0003
     30  CZ         6.0010   47.2700   63.8990 C.ar   80  PHE80      -0.0000
     31  N          1.6930   42.8370   69.4280 N.3    82  TYR82      -0.1241
     32  CA         0.2860   42.7410   69.0520 C.3    82  TYR82       0.1605
     33  C         -0.4760   41.9580   70.1200 C.2    82  TYR82       0.2264
     34  O         -0.0210   40.8940   70.5720 O.2    82  TYR82      -0.2867
     35  CB         0.1760   41.9280   67.7360 C.3    82  TYR82       0.0534
     36  CG         0.5730   42.6390   66.4670 C.ar   82  TYR82      -0.0201
     37  CD1        1.8790   42.6910   66.0210 C.ar   82  TYR82      -0.0009
     38  CD2       -0.4320   43.2710   65.6800 C.ar   82  TYR82      -0.0009
     39  CE1        2.1920   43.3650   64.8300 C.ar   82  TYR82       0.0417
     40  CE2       -0.1110   43.8770   64.4850 C.ar   82  TYR82       0.0417
     41  CZ         1.1940   43.9000   64.0560 C.ar   82  TYR82       0.1957
     42  OH         1.5400   44.4650   62.8250 O.3    82  TYR82      -0.2866
     43  N         -1.3720   37.7000   53.3860 N.3   156  ILE156     -0.1231
     44  CA        -0.4360   37.0210   54.2970 C.3   156  ILE156      0.1692
     45  C          0.1770   37.9870   55.3070 C.2   156  ILE156      0.2592
     46  O          0.5670   39.1160   54.8930 O.2   156  ILE156     -0.2718
     47  CB         0.7150   36.3340   53.4870 C.3   156  ILE156      0.0266
     48  CG1        0.1900   35.1530   52.6370 C.3   156  ILE156      0.0019
     49  CG2        1.9140   35.8520   54.3890 C.3   156  ILE156      0.0020
     50  CD1       -0.1920   33.9130   53.4660 C.3   156  ILE156      0.0001
     51  N          0.3330   37.5370   56.5430 N.am  157  ASN157     -0.1974
     52  CA         0.8410   38.4130   57.6060 C.3   157  ASN157      0.1688
     53  C          1.3920   37.5270   58.7140 C.2   157  ASN157      0.2292
     54  O          1.1620   36.2870   58.7290 O.2   157  ASN157     -0.2864
     55  CB        -0.3410   39.3240   58.1260 C.3   157  ASN157      0.1181
     56  CG         0.1100   40.6390   58.7230 C.2   157  ASN157      0.2629
     57  OD1        1.2340   40.8200   59.1510 O.2   157  ASN157     -0.2716
     58  ND2       -0.8070   41.6190   58.7150 N.am  157  ASN157     -0.0877
     59  N          2.7810   42.5630   52.6740 N.3   193  THR193     -0.1203
     60  CA         3.6810   43.7470   52.8750 C.3   193  THR193      0.1994
     61  C          4.8050   43.3720   53.7110 C.2   193  THR193      0.2618
     62  O          4.7410   42.4170   54.5390 O.2   193  THR193     -0.2717
     63  CB         2.9550   44.9470   53.4430 C.3   193  THR193      0.1784
     64  OG1        2.3750   44.6100   54.7490 O.3   193  THR193     -0.2211
     65  CG2        1.8440   45.4650   52.5030 C.3   193  THR193      0.0376
     66  N          5.9380   44.0810   53.5740 N.am  194  ALA194     -0.1965
     67  CA         7.0920   43.9420   54.4900 C.3   194  ALA194      0.1728
     68  C          7.9030   45.2220   54.4230 C.2   194  ALA194      0.2617
     69  O          7.7940   45.9910   53.4810 O.2   194  ALA194     -0.2715
     70  CB         7.9810   42.7910   54.0390 C.3   194  ALA194      0.0334
     71  N          8.7260   45.4240   55.4510 N.am  195  GLY195     -0.1940
     72  CA         9.7220   46.4960   55.4520 C.3   195  GLY195      0.2014
     73  C         10.8900   46.1670   54.5510 C.2   195  GLY195      0.2638
     74  O         11.4620   47.0670   53.8480 O.2   195  GLY195     -0.2714
     75  N         11.2890   44.9480   54.5390 N.am  196  VAL196     -0.1977
     76  CA        12.4940   44.5170   53.7690 C.3   196  VAL196      0.1596
     77  C         12.1600   44.5640   52.2930 C.2   196  VAL196      0.2287
     78  O         11.0050   44.3740   51.8360 O.2   196  VAL196     -0.2864
     79  CB        13.0330   43.2080   54.2350 C.3   196  VAL196      0.0276
     80  CG1       13.5690   43.4290   55.6490 C.3   196  VAL196      0.0022
     81  CG2       12.0410   42.0470   54.1040 C.3   196  VAL196      0.0022
     82  N          6.7950   55.3980   55.9430 N.3   207  TYR207     -0.1241
     83  CA         6.0510   55.6100   57.1860 C.3   207  TYR207      0.1605
     84  C          6.1200   57.0260   57.6350 C.2   207  TYR207      0.2264
     85  O          7.1650   57.7370   57.4340 O.2   207  TYR207     -0.2867
     86  CB         6.6310   54.7480   58.2950 C.3   207  TYR207      0.0534
     87  CG         5.9450   53.3740   58.3770 C.ar  207  TYR207     -0.0201
     88  CD1        4.7520   53.2270   59.0740 C.ar  207  TYR207     -0.0009
     89  CD2        6.4750   52.2780   57.7080 C.ar  207  TYR207     -0.0009
     90  CE1        4.0880   51.9810   59.0630 C.ar  207  TYR207      0.0417
     91  CE2        5.7940   51.0270   57.7290 C.ar  207  TYR207      0.0417
     92  CZ         4.6300   50.9260   58.3730 C.ar  207  TYR207      0.1957
     93  OH         3.9140   49.7330   58.2800 O.3   207  TYR207     -0.2866
     94  N          4.9080   59.5530   61.2020 N.3   209  HIS209     -0.1241
     95  CA         4.6100   59.4830   62.6370 C.3   209  HIS209      0.1621
     96  C          4.1640   60.8580   63.0910 C.2   209  HIS209      0.2264
     97  O          4.6970   61.8570   62.6590 O.2   209  HIS209     -0.2867
     98  CB         5.8560   59.0120   63.4090 C.3   209  HIS209      0.0745
     99  CG         6.5590   57.8460   62.7500 C.ar  209  HIS209      0.0817
    100  ND1        6.0080   56.5890   62.7600 N.ar  209  HIS209     -0.2268
    101  CD2        7.6610   57.7760   61.9260 C.ar  209  HIS209      0.1154
    102  CE1        6.7550   55.7770   62.0220 C.ar  209  HIS209      0.1986
    103  NE2        7.7450   56.4640   61.4780 N.ar  209  HIS209     -0.2212
    104  N         12.4360   56.8430   70.7090 N.3   222  PHE222     -0.1241
    105  CA        11.7160   56.7000   69.4960 C.3   222  PHE222      0.1605
    106  C         11.9950   57.9160   68.6880 C.2   222  PHE222      0.2264
    107  O         12.1230   57.8260   67.5320 O.2   222  PHE222     -0.2867
    108  CB        10.1720   56.6730   69.8300 C.3   222  PHE222      0.0534
    109  CG         9.2410   56.5900   68.6230 C.ar  222  PHE222     -0.0203
    110  CD1        8.9090   57.7080   67.8790 C.ar  222  PHE222     -0.0042
    111  CD2        8.6810   55.3820   68.2790 C.ar  222  PHE222     -0.0042
    112  CE1        8.0480   57.6250   66.7730 C.ar  222  PHE222     -0.0003
    113  CE2        7.7740   55.2960   67.2190 C.ar  222  PHE222     -0.0003
    114  CZ         7.4820   56.4450   66.4860 C.ar  222  PHE222     -0.0000
    115  N         -6.3490   51.7060   64.7040 N.3   316  TYR316     -0.1241
    116  CA        -6.1600   50.4890   65.5290 C.3   316  TYR316      0.1605
    117  C         -4.9050   50.6340   66.3630 C.2   316  TYR316      0.2264
    118  O         -4.0400   51.4400   66.1130 O.2   316  TYR316     -0.2867
    119  CB        -6.2130   49.1950   64.6810 C.3   316  TYR316      0.0534
    120  CG        -5.2700   49.1910   63.5400 C.ar  316  TYR316     -0.0201
    121  CD1       -3.9110   48.8300   63.6730 C.ar  316  TYR316     -0.0009
    122  CD2       -5.7030   49.6060   62.2740 C.ar  316  TYR316     -0.0009
    123  CE1       -3.0220   48.8680   62.5880 C.ar  316  TYR316      0.0417
    124  CE2       -4.8040   49.6450   61.2030 C.ar  316  TYR316      0.0417
    125  CZ        -3.5070   49.2880   61.3580 C.ar  316  TYR316      0.1957
    126  OH        -2.6380   49.3840   60.2910 O.3   316  TYR316     -0.2866
    127  N         -1.4720   49.0520   68.0390 N.3   318  ILE318     -0.1245
    128  CA        -0.3880   48.0320   68.1380 C.3   318  ILE318      0.1561
    129  C          0.6130   48.5270   69.1520 C.2   318  ILE318      0.2260
    130  O          1.3070   49.4750   68.8320 O.2   318  ILE318     -0.2867
    131  CB         0.2960   47.6990   66.7890 C.3   318  ILE318      0.0252
    132  CG1       -0.7390   47.4450   65.6620 C.3   318  ILE318      0.0019
    133  CG2        1.3230   46.5470   66.9980 C.3   318  ILE318      0.0019
    134  CD1       -0.0650   47.3620   64.2850 C.3   318  ILE318      0.0001
    135  N         -2.6400   53.5330   64.7790 N.3   335  TYR335     -0.1241
    136  CA        -2.3640   53.4870   63.3290 C.3   335  TYR335      0.1605
    137  C         -3.5930   53.9300   62.6040 C.2   335  TYR335      0.2264
    138  O         -4.7430   53.4640   62.8600 O.2   335  TYR335     -0.2867
    139  CB        -2.0660   52.0440   62.8770 C.3   335  TYR335      0.0534
    140  CG        -0.6630   51.6180   63.2070 C.ar  335  TYR335     -0.0201
    141  CD1       -0.2970   51.3180   64.5020 C.ar  335  TYR335     -0.0009
    142  CD2        0.2800   51.4590   62.2080 C.ar  335  TYR335     -0.0009
    143  CE1        1.0120   50.9180   64.8070 C.ar  335  TYR335      0.0417
    144  CE2        1.6010   51.0600   62.5110 C.ar  335  TYR335      0.0417
    145  CZ         1.8910   50.7970   63.8100 C.ar  335  TYR335      0.1957
    146  OH         3.2110   50.3240   64.1510 O.3   335  TYR335     -0.2866
    147  N          0.7730   56.4890   63.7680 N.3   366  ASN366     -0.1240
    148  CA         1.5680   56.0490   62.6030 C.3   366  ASN366      0.1653
    149  C          0.6890   55.8360   61.3790 C.2   366  ASN366      0.2266
    150  O         -0.5190   55.4620   61.4990 O.2   366  ASN366     -0.2867
    151  CB         2.2000   54.6770   62.9530 C.3   366  ASN366      0.1155
    152  CG         3.2420   54.7980   64.0510 C.2   366  ASN366      0.2627
    153  OD1        3.9260   55.7460   64.2080 O.2   366  ASN366     -0.2716
    154  ND2        3.2580   53.8040   64.9580 N.am  366  ASN366     -0.0877
    155  N         12.0710   56.6070   59.0630 N.3   386  ASP386     -0.1225
    156  CA        13.0510   55.9510   58.1890 C.3   386  ASP386      0.1805
    157  C         12.5760   54.6680   57.5670 C.2   386  ASP386      0.2598
    158  O         13.2650   54.0250   56.7000 O.2   386  ASP386     -0.2718
    159  CB        14.3970   55.7070   58.8770 C.3   386  ASP386      0.1424
    160  CG        14.2740   55.1090   60.2330 C.2   386  ASP386      0.3668
    161  OD1       13.2350   54.5160   60.6300 O.co2 386  ASP386     -0.2456
    162  OD2       15.2800   55.2470   60.9940 O.co2 386  ASP386     -0.2456
    163  N         11.3690   54.3020   57.9560 N.am  387  GLY387     -0.1942
    164  CA        10.8770   52.9810   57.4630 C.3   387  GLY387      0.2014
    165  C         10.0940   53.1700   56.1980 C.2   387  GLY387      0.2639
    166  O          9.5510   54.2580   55.8920 O.2   387  GLY387     -0.2714
    167  N          9.7480   51.9960   55.6940 N.am  388  HIS388     -0.1959
    168  CA         8.8850   51.9720   54.5930 C.3   388  HIS388      0.1787
    169  C          8.1020   50.7080   54.7370 C.2   388  HIS388      0.2620
    170  O          8.4460   49.7250   55.3400 O.2   388  HIS388     -0.2715
    171  CB         9.6970   51.7240   53.3130 C.3   388  HIS388      0.0785
    172  CG        10.6370   52.8290   52.9370 C.ar  388  HIS388      0.0821
    173  ND1       11.9240   52.9380   53.4210 N.ar  388  HIS388     -0.2267
    174  CD2       10.4410   53.8750   52.1240 C.ar  388  HIS388      0.1154
    175  CE1       12.4940   53.9990   52.8850 C.ar  388  HIS388      0.1986
    176  NE2       11.6070   54.5940   52.0960 N.ar  388  HIS388     -0.2212
    177  N          7.1210   50.7380   53.9270 N.am  389  LEU389     -0.1977
    178  CA         6.2590   49.5490   53.7320 C.3   389  LEU389      0.1596
    179  C          6.1800   49.2530   52.2680 C.2   389  LEU389      0.2287
    180  O          5.7020   50.1150   51.4760 O.2   389  LEU389     -0.2864
    181  CB         4.8950   49.6570   54.3490 C.3   389  LEU389      0.0297
    182  CG         4.1360   48.3270   54.5240 C.3   389  LEU389      0.0022
    183  CD1        4.8470   47.3460   55.4960 C.3   389  LEU389      0.0001
    184  CD2        2.7140   48.4960   54.9430 C.3   389  LEU389      0.0001
    185  N         -2.6930   47.1990   55.6160 N.3   410  MET410     -0.1230
    186  CA        -2.1930   45.9370   56.0740 C.3   410  MET410      0.1702
    187  C         -1.8530   46.0680   57.6020 C.2   410  MET410      0.2592
    188  O         -1.1070   46.9900   57.9570 O.2   410  MET410     -0.2718
    189  CB        -1.0120   45.6650   55.1430 C.3   410  MET410      0.0401
    190  CG        -1.5870   45.2920   53.7350 C.3   410  MET410      0.0596
    191  SD        -2.4430   43.6960   53.6810 S.3   410  MET410     -0.1393
    192  CE        -1.0410   42.7560   53.1750 C.3   410  MET410      0.0692
    193  N         -2.3760   45.1580   58.3970 N.am  411  LEU411     -0.1980
    194  CA        -2.2210   45.2850   59.8620 C.3   411  LEU411      0.1596
    195  C         -0.8410   44.8860   60.3590 C.2   411  LEU411      0.2287
    196  O         -0.0220   44.1320   59.7640 O.2   411  LEU411     -0.2864
    197  CB        -3.3060   44.3580   60.5160 C.3   411  LEU411      0.0297
    198  CG        -4.7130   44.7660   60.1430 C.3   411  LEU411      0.0022
    199  CD1       -5.6110   43.7210   60.8350 C.3   411  LEU411      0.0001
    200  CD2       -5.1490   46.1750   60.5710 C.3   411  LEU411      0.0001
@<TRIPOS>BOND
     1   180   179    2
     2    78    77    2
     3   176   174   ar
     4   176   175   ar
     5   174   172   ar
     6   179   178    1
     7    77    76    1
     8    65    63    1
     9    48    50    1
    10    48    47    1
    11    59    60    1
    12    60    63    1
    13    60    61    1
    14   175   173   ar
    15   172   171    1
    16   172   173   ar
    17   192   191    1
    18   171   168    1
    19    43    44    1
    20    63    64    1
    21    69    68    2
    22    47    44    1
    23    47    49    1
    24    66    61   am
    25    66    67    1
    26   191   190    1
    27    61    62    2
    28   178   177    1
    29   178   181    1
    30   190   189    1
    31    76    79    1
    32    76    75    1
    33    74    73    2
    34   177   169   am
    35    70    67    1
    36    81    79    1
    37    79    80    1
    38    44    45    1
    39   181   182    1
    40    68    67    1
    41    68    71   am
    42   182   184    1
    43   182   183    1
    44    75    73   am
    45    73    72    1
    46   168   169    1
    47   168   167    1
    48   169   170    2
    49    46    45    2
    50   189   186    1
    51    45    51   am
    52    71    72    1
    53   185   186    1
    54   167   165   am
    55   166   165    2
    56    82    83    1
    57   186   187    1
    58   165   164    1
    59    51    52    1
    60   158   157    2
    61    83    84    1
    62    83    86    1
    63    85    84    2
    64   164   163    1
    65   157   163   am
    66   157   156    1
    67   187   188    2
    68   187   193   am
    69    52    55    1
    70    52    53    1
    71    89    91   ar
    72    89    87   ar
    73    91    92   ar
    74    55    56    1
    75   156   159    1
    76   156   155    1
    77    93    92    1
    78    86    87    1
    79    92    90   ar
    80    87    88   ar
    81   193   194    1
    82    53    54    2
    83    58    56   am
    84    56    57    2
    85   159   160    1
    86    90    88   ar
    87   196   195    2
    88   194   195    1
    89   194   197    1
    90   198   197    1
    91   198   200    1
    92   198   199    1
    93   160   161   ar
    94   160   162   ar
    95   126   125    1
    96    12    11    1
    97    94    95    1
    98   124   125   ar
    99   124   122   ar
   100   125   123   ar
   101   149   150    2
   102   149   148    1
   103   103   101   ar
   104   103   102   ar
   105   101    99   ar
   106    19    17    1
   107   102   100   ar
   108    11     9   ar
   109    11    10   ar
   110   142   144   ar
   111   142   140   ar
   112     9     7   ar
   113   122   120   ar
   114    18    17    1
   115   144   145   ar
   116   123   121   ar
   117   148   151    1
   118   148   147    1
   119   137   138    2
   120   137   136    1
   121    95    96    1
   122    95    98    1
   123    97    96    2
   124    99   100   ar
   125    99    98    1
   126    42    41    1
   127   139   140    1
   128   139   136    1
   129   151   152    1
   130    17    14    1
   131    10     8   ar
   132   140   141   ar
   133   136   135    1
   134     7     6   ar
   135   120   121   ar
   136   120   119    1
   137    29    30   ar
   138    29    27   ar
   139   145   146    1
   140   145   143   ar
   141    30    28   ar
   142   152   153    2
   143   152   154   am
   144    41    40   ar
   145    41    39   ar
   146    14    13    1
   147    14    15    1
   148   134   132    1
   149     8     6   ar
   150    40    38   ar
   151   141   143   ar
   152     6     5    1
   153    13     3   am
   154   119   116    1
   155   115   116    1
   156    27    25   ar
   157    39    37   ar
   158    28    26   ar
   159    15    16    2
   160     3     2    1
   161     3     4    2
   162   116   117    1
   163   132   131    1
   164    38    36   ar
   165     2     5    1
   166     2     1    1
   167    25    26   ar
   168    25    24    1
   169    37    36   ar
   170   118   117    2
   171    36    35    1
   172   114   112   ar
   173   114   113   ar
   174   112   110   ar
   175   131   133    1
   176   131   128    1
   177    24    21    1
   178   113   111   ar
   179   107   106    2
   180    35    32    1
   181   110   109   ar
   182   127   128    1
   183   128   129    1
   184    20    21    1
   185    21    22    1
   186   111   109   ar
   187   109   108    1
   188   106   105    1
   189   130   129    2
   190    32    31    1
   191    32    33    1
   192    22    23    2
   193   105   108    1
   194   105   104    1
   195    33    34    2
