@<TRIPOS>MOLECULE
tmp/4cgwA00.pdb
 145 136 0 0 0
SMALL
GASTEIGER

@<TRIPOS>ATOM
      1  N         -2.3740   35.5320   38.6460 N.3    20  LYS20      -0.1245
      2  CA        -1.2290   35.2500   37.7940 C.3    20  LYS20       0.1561
      3  C         -0.9490   36.4400   36.8920 C.2    20  LYS20       0.2260
      4  O          0.1670   36.9440   36.8570 O.2    20  LYS20      -0.2867
      5  CB        -1.4720   34.0010   36.9440 C.3    20  LYS20       0.0271
      6  CG        -0.2760   33.5740   36.1000 C.3    20  LYS20       0.0035
      7  CD        -0.6720   32.5240   35.0730 C.3    20  LYS20       0.0206
      8  CE        -1.3980   33.1490   33.8920 C.3    20  LYS20       0.1093
      9  NZ        -0.5110   34.0720   33.1300 N.3    20  LYS20      -0.1314
     10  N          2.1680   38.9970   37.0980 N.3    24  ASN24      -0.1240
     11  CA         2.9510   39.1860   35.8860 C.3    24  ASN24       0.1653
     12  C          3.0730   40.6660   35.5590 C.2    24  ASN24       0.2266
     13  O          4.1250   41.1280   35.1210 O.2    24  ASN24      -0.2867
     14  CB         2.3120   38.4410   34.7140 C.3    24  ASN24       0.1155
     15  CG         2.3540   36.9370   34.8880 C.2    24  ASN24       0.2627
     16  OD1        2.7750   36.4330   35.9300 O.2    24  ASN24      -0.2716
     17  ND2        1.9140   36.2100   33.8680 N.am   24  ASN24      -0.0877
     18  N          5.6250   41.9830   37.7500 N.3    27  PHE27      -0.1227
     19  CA         6.9360   41.4950   37.3410 C.3    27  PHE27       0.1736
     20  C          7.4870   42.3140   36.1800 C.2    27  PHE27       0.2595
     21  O          8.6600   42.6870   36.1710 O.2    27  PHE27      -0.2718
     22  CB         6.8560   40.0180   36.9440 C.3    27  PHE27       0.0547
     23  CG         8.1820   39.4150   36.5750 C.ar   27  PHE27      -0.0202
     24  CD1        8.9860   38.8350   37.5420 C.ar   27  PHE27      -0.0042
     25  CD2        8.6250   39.4270   35.2620 C.ar   27  PHE27      -0.0042
     26  CE1       10.2070   38.2820   37.2070 C.ar   27  PHE27      -0.0003
     27  CE2        9.8450   38.8760   34.9220 C.ar   27  PHE27      -0.0003
     28  CZ        10.6360   38.3040   35.8950 C.ar   27  PHE27      -0.0000
     29  N          6.6290   42.5870   35.2030 N.am   28  LYS28      -0.1980
     30  CA         7.0280   43.3090   34.0000 C.3    28  LYS28       0.1596
     31  C          7.4850   44.7360   34.3000 C.2    28  LYS28       0.2287
     32  O          8.2490   45.3210   33.5330 O.2    28  LYS28      -0.2864
     33  CB         5.8850   43.3160   32.9810 C.3    28  LYS28       0.0298
     34  CG         5.5230   41.9350   32.4500 C.3    28  LYS28       0.0038
     35  CD         4.2000   41.9670   31.6950 C.3    28  LYS28       0.0206
     36  CE         3.4830   40.6260   31.8060 C.3    28  LYS28       0.1093
     37  NZ         2.2660   40.5860   30.9560 N.3    28  LYS28      -0.1314
     38  N          1.1970   35.7870   43.2290 N.3    39  TYR39      -0.1241
     39  CA         1.4990   34.4010   42.8940 C.3    39  TYR39       0.1605
     40  C          1.1250   33.4550   44.0310 C.2    39  TYR39       0.2264
     41  O          0.5930   32.3740   43.7950 O.2    39  TYR39      -0.2867
     42  CB         2.9800   34.2440   42.5430 C.3    39  TYR39       0.0534
     43  CG         3.3840   34.9390   41.2610 C.ar   39  TYR39      -0.0201
     44  CD1        2.4670   35.1380   40.2370 C.ar   39  TYR39      -0.0009
     45  CD2        4.6810   35.3990   41.0760 C.ar   39  TYR39      -0.0009
     46  CE1        2.8320   35.7730   39.0650 C.ar   39  TYR39       0.0417
     47  CE2        5.0550   36.0360   39.9080 C.ar   39  TYR39       0.0417
     48  CZ         4.1270   36.2200   38.9060 C.ar   39  TYR39       0.1957
     49  OH         4.4960   36.8520   37.7410 O.3    39  TYR39      -0.2866
     50  N          2.3040   27.5340   36.1100 N.3    51  LEU51      -0.1245
     51  CA         2.6720   28.9190   35.8360 C.3    51  LEU51       0.1561
     52  C          2.9270   29.7160   37.1120 C.2    51  LEU51       0.2260
     53  O          3.8150   30.5640   37.1500 O.2    51  LEU51      -0.2867
     54  CB         1.6000   29.6060   34.9860 C.3    51  LEU51       0.0270
     55  CG         1.4270   29.0850   33.5570 C.3    51  LEU51       0.0019
     56  CD1        0.3070   29.8230   32.8410 C.3    51  LEU51       0.0001
     57  CD2        2.7270   29.2070   32.7820 C.3    51  LEU51       0.0001
     58  N          6.5880   31.2500   37.6580 N.3    55  ASN55      -0.1240
     59  CA         6.7610   32.6970   37.6780 C.3    55  ASN55       0.1653
     60  C          7.2570   33.2040   39.0280 C.2    55  ASN55       0.2266
     61  O          8.1130   34.0920   39.0890 O.2    55  ASN55      -0.2867
     62  CB         5.4620   33.4020   37.2880 C.3    55  ASN55       0.1155
     63  CG         4.9520   32.9720   35.9260 C.2    55  ASN55       0.2627
     64  OD1        5.6710   32.3410   35.1510 O.2    55  ASN55      -0.2716
     65  ND2        3.7050   33.3150   35.6260 N.am   55  ASN55      -0.0877
     66  N         10.7710   32.6490   39.1800 N.3    58  MET58      -0.1245
     67  CA        11.4910   33.6470   38.3940 C.3    58  MET58       0.1570
     68  C         11.6720   34.9530   39.1720 C.2    58  MET58       0.2261
     69  O         12.7510   35.5530   39.1520 O.2    58  MET58      -0.2867
     70  CB        10.7960   33.9000   37.0540 C.3    58  MET58       0.0387
     71  CG        11.4540   34.9870   36.2210 C.3    58  MET58       0.0595
     72  SD        13.2390   34.7800   36.0430 S.3    58  MET58      -0.1393
     73  CE        13.3230   33.6400   34.6680 C.3    58  MET58       0.0692
     74  N         14.3000   34.4690   41.5790 N.3    61  LEU61      -0.1231
     75  CA        15.5860   34.6070   40.9070 C.3    61  LEU61       0.1693
     76  C         15.9600   36.0770   40.8110 C.2    61  LEU61       0.2591
     77  O         17.1140   36.4510   41.0160 O.2    61  LEU61      -0.2718
     78  CB        15.5380   34.0040   39.5020 C.3    61  LEU61       0.0284
     79  CG        15.5350   32.4820   39.3650 C.3    61  LEU61       0.0019
     80  CD1       15.5180   32.0900   37.8960 C.3    61  LEU61       0.0001
     81  CD2       16.7430   31.8860   40.0640 C.3    61  LEU61       0.0001
     82  N         14.9720   36.9090   40.5000 N.am   62  LYS62      -0.1980
     83  CA        15.2170   38.3360   40.3340 C.3    62  LYS62       0.1596
     84  C         15.5180   39.0430   41.6560 C.2    62  LYS62       0.2287
     85  O         16.0590   40.1500   41.6600 O.2    62  LYS62      -0.2864
     86  CB        14.0520   39.0080   39.6060 C.3    62  LYS62       0.0298
     87  CG        14.4770   39.7590   38.3570 C.3    62  LYS62       0.0038
     88  CD        15.1990   38.8450   37.3810 C.3    62  LYS62       0.0206
     89  CE        15.8350   39.6380   36.2510 C.3    62  LYS62       0.1093
     90  NZ        14.8360   40.4650   35.5200 N.3    62  LYS62      -0.1314
     91  N          7.1420   21.9420   30.6120 N.3    83  TYR83      -0.1241
     92  CA         7.3920   23.3770   30.6140 C.3    83  TYR83       0.1605
     93  C          8.8900   23.6240   30.7190 C.2    83  TYR83       0.2264
     94  O          9.4730   23.5070   31.7990 O.2    83  TYR83      -0.2867
     95  CB         6.6790   24.0490   31.7870 C.3    83  TYR83       0.0534
     96  CG         6.3990   25.5190   31.5750 C.ar   83  TYR83      -0.0201
     97  CD1        6.3570   26.0580   30.2980 C.ar   83  TYR83      -0.0009
     98  CD2        6.1770   26.3700   32.6530 C.ar   83  TYR83      -0.0009
     99  CE1        6.0940   27.4010   30.0980 C.ar   83  TYR83       0.0417
    100  CE2        5.9150   27.7160   32.4630 C.ar   83  TYR83       0.0417
    101  CZ         5.8740   28.2240   31.1850 C.ar   83  TYR83       0.1957
    102  OH         5.6140   29.5620   31.0010 O.3    83  TYR83      -0.2866
    103  N         10.6450   26.2920   30.5660 N.3    85  LYS85      -0.1245
    104  CA        11.0310   27.4650   31.3440 C.3    85  LYS85       0.1561
    105  C         11.3340   27.1220   32.8000 C.2    85  LYS85       0.2260
    106  O         12.2710   27.6630   33.3850 O.2    85  LYS85      -0.2867
    107  CB         9.9590   28.5560   31.2590 C.3    85  LYS85       0.0271
    108  CG         9.8760   29.2310   29.9000 C.3    85  LYS85       0.0035
    109  CD         8.8900   30.3850   29.8980 C.3    85  LYS85       0.0206
    110  CE         8.9150   31.1170   28.5670 C.3    85  LYS85       0.1093
    111  NZ         7.9660   32.2610   28.5440 N.3    85  LYS85      -0.1314
    112  N         14.7580   25.5860   32.8380 N.3    88  ALA88      -0.1231
    113  CA        15.7920   26.5960   32.6360 C.3    88  ALA88       0.1694
    114  C         16.0310   27.4070   33.9050 C.2    88  ALA88       0.2591
    115  O         17.1750   27.6370   34.3060 O.2    88  ALA88      -0.2718
    116  CB        15.4190   27.5140   31.4830 C.3    88  ALA88       0.0304
    117  N         14.9400   27.8340   34.5310 N.am   89  ARG89      -0.1980
    118  CA        15.0120   28.6260   35.7520 C.3    89  ARG89       0.1597
    119  C         15.6040   27.8280   36.9090 C.2    89  ARG89       0.2287
    120  O         16.3790   28.3630   37.7060 O.2    89  ARG89      -0.2864
    121  CB        13.6280   29.1660   36.1150 C.3    89  ARG89       0.0334
    122  CG        13.0760   30.1330   35.0830 C.3    89  ARG89       0.0492
    123  CD        11.5930   30.4040   35.2750 C.3    89  ARG89       0.2205
    124  NE        11.0450   31.1680   34.1570 N.pl3  89  ARG89      -0.0865
    125  CZ         9.7740   31.5440   34.0550 C.cat  89  ARG89       0.5346
    126  NH1        8.9080   31.2300   35.0090 N.pl3  89  ARG89       0.1354
    127  NH2        9.3690   32.2350   32.9990 N.pl3  89  ARG89       0.1354
    128  N         19.2190   27.6660   36.3860 N.3    92  THR92      -0.1218
    129  CA        19.8450   28.9170   36.7920 C.3    92  THR92       0.1862
    130  C         20.0390   28.9420   38.3060 C.2    92  THR92       0.2287
    131  O         21.1410   29.2030   38.8020 O.2    92  THR92      -0.2866
    132  CB        18.9990   30.1310   36.3670 C.3    92  THR92       0.1770
    133  OG1       18.7480   30.0720   34.9570 O.3    92  THR92      -0.2211
    134  CG2       19.7220   31.4280   36.6960 C.3    92  THR92       0.0375
    135  N         19.3790   22.0350   31.9580 N.3   107  PHE107     -0.1241
    136  CA        19.6390   22.8290   30.7630 C.3   107  PHE107      0.1605
    137  C         19.5100   22.0040   29.4800 C.2   107  PHE107      0.2264
    138  O         18.8800   22.4430   28.5150 O.2   107  PHE107     -0.2867
    139  CB        21.0190   23.4890   30.8440 C.3   107  PHE107      0.0534
    140  CG        21.0750   24.6730   31.7700 C.ar  107  PHE107     -0.0203
    141  CD1       19.9820   25.5110   31.9140 C.ar  107  PHE107     -0.0042
    142  CD2       22.2240   24.9490   32.4960 C.ar  107  PHE107     -0.0042
    143  CE1       20.0320   26.6020   32.7640 C.ar  107  PHE107     -0.0003
    144  CE2       22.2790   26.0370   33.3500 C.ar  107  PHE107     -0.0003
    145  CZ        21.1820   26.8650   33.4820 C.ar  107  PHE107     -0.0000
@<TRIPOS>BOND
     1   138   137    2
     2   111   110    1
     3   110   109    1
     4   137   136    1
     5   109   108    1
     6   108   107    1
     7    99    97   ar
     8    99   101   ar
     9    97    96   ar
    10   103   104    1
    11    91    92    1
    12    92    93    1
    13    92    95    1
    14    93    94    2
    15   136   139    1
    16   136   135    1
    17   139   140    1
    18    37    36    1
    19   102   101    1
    20   101   100   ar
    21   107   104    1
    22   104   105    1
    23   116   113    1
    24    96    95    1
    25    96    98   ar
    26    35    36    1
    27    35    34    1
    28   140   141   ar
    29   140   142   ar
    30   141   143   ar
    31    34    33    1
    32   100    98   ar
    33   142   144   ar
    34   113   112    1
    35   113   114    1
    36   143   145   ar
    37    57    55    1
    38   105   106    2
    39    56    55    1
    40    33    30    1
    41   127   125    1
    42     9     8    1
    43   144   145   ar
    44    32    31    2
    45    55    54    1
    46    17    15   am
    47     8     7    1
    48   114   115    2
    49   114   117   am
    50    30    31    1
    51    30    29    1
    52   125   124    2
    53   125   126    1
    54   124   123    1
    55   117   118    1
    56    73    72    1
    57    14    15    1
    58    14    11    1
    59    15    16    2
    60    27    25   ar
    61    27    28   ar
    62   133   132    1
    63    54    51    1
    64     7     6    1
    65   122   123    1
    66   122   121    1
    67    13    12    2
    68    64    63    2
    69    29    20   am
    70    25    23   ar
    71    90    89    1
    72    12    11    1
    73    65    63   am
    74   118   121    1
    75   118   119    1
    76    51    50    1
    77    51    52    1
    78    11    10    1
    79    28    26   ar
    80    63    62    1
    81    72    71    1
    82     6     5    1
    83    21    20    2
    84    20    19    1
    85    71    70    1
    86    89    88    1
    87   132   134    1
    88   132   129    1
    89   128   129    1
    90    23    22    1
    91    23    24   ar
    92   129   130    1
    93     4     3    2
    94     3     2    1
    95   119   120    2
    96    22    19    1
    97     5     2    1
    98    70    67    1
    99    52    53    2
   100    26    24   ar
   101    62    59    1
   102    19    18    1
   103    88    87    1
   104    58    59    1
   105    59    60    1
   106    49    48    1
   107     2     1    1
   108    80    79    1
   109   130   131    2
   110    87    86    1
   111    67    68    1
   112    67    66    1
   113    48    46   ar
   114    48    47   ar
   115    60    61    2
   116    46    44   ar
   117    69    68    2
   118    79    78    1
   119    79    81    1
   120    78    75    1
   121    86    83    1
   122    47    45   ar
   123    44    43   ar
   124    83    82    1
   125    83    84    1
   126    82    76   am
   127    76    75    1
   128    76    77    2
   129    75    74    1
   130    45    43   ar
   131    43    42    1
   132    84    85    2
   133    42    39    1
   134    39    38    1
   135    39    40    1
   136    41    40    2
