@<TRIPOS>MOLECULE
tmp/4cgwB00.pdb
 128 119 0 0 0
SMALL
GASTEIGER

@<TRIPOS>ATOM
      1  N          5.9460   -4.4850   21.7210 N.3    14  LYS14      -0.1245
      2  CA         5.3580   -3.4610   20.8590 C.3    14  LYS14       0.1561
      3  C          4.3400   -4.0630   19.9030 C.2    14  LYS14       0.2260
      4  O          3.2060   -3.5950   19.8220 O.2    14  LYS14      -0.2867
      5  CB         6.4510   -2.7360   20.0550 C.3    14  LYS14       0.0271
      6  CG         5.9430   -1.7150   19.0210 C.3    14  LYS14       0.0035
      7  CD         7.0680   -1.1260   18.1740 C.3    14  LYS14       0.0206
      8  CE         7.4850   -2.0300   17.0370 C.3    14  LYS14       0.1093
      9  NZ         6.4670   -2.0960   15.9470 N.3    14  LYS14      -0.1314
     10  N          0.3080   -3.7270   20.0010 N.3    18  ASN18      -0.1240
     11  CA        -0.3510   -3.3420   18.7620 C.3    18  ASN18       0.1653
     12  C         -1.4740   -4.3090   18.4270 C.2    18  ASN18       0.2266
     13  O         -2.5280   -3.9040   17.9410 O.2    18  ASN18      -0.2867
     14  CB         0.6500   -3.2970   17.6100 C.3    18  ASN18       0.1155
     15  CG         1.6270   -2.1530   17.7350 C.2    18  ASN18       0.2627
     16  OD1        1.6480   -1.4450   18.7420 O.2    18  ASN18      -0.2716
     17  ND2        2.4500   -1.9680   16.7130 N.am   18  ASN18      -0.0877
     18  N         -4.2360   -3.4600   20.6530 N.3    21  PHE21      -0.1227
     19  CA        -4.7840   -2.1740   20.2400 C.3    21  PHE21       0.1736
     20  C         -5.7200   -2.3480   19.0510 C.2    21  PHE21       0.2595
     21  O         -6.7740   -1.7170   18.9780 O.2    21  PHE21      -0.2718
     22  CB        -3.6510   -1.2080   19.8820 C.3    21  PHE21       0.0547
     23  CG        -4.1170    0.1780   19.5360 C.ar   21  PHE21      -0.0202
     24  CD1       -4.2820    1.1330   20.5250 C.ar   21  PHE21      -0.0042
     25  CD2       -4.3780    0.5300   18.2210 C.ar   21  PHE21      -0.0042
     26  CE1       -4.7070    2.4110   20.2110 C.ar   21  PHE21      -0.0003
     27  CE2       -4.8030    1.8060   17.9010 C.ar   21  PHE21      -0.0003
     28  CZ        -4.9680    2.7470   18.8980 C.ar   21  PHE21      -0.0000
     29  N         -5.3250   -3.2120   18.1200 N.am   22  LYS22      -0.1980
     30  CA        -6.1110   -3.4600   16.9180 C.3    22  LYS22       0.1596
     31  C         -7.4170   -4.1850   17.2290 C.2    22  LYS22       0.2287
     32  O         -8.4120   -4.0030   16.5300 O.2    22  LYS22      -0.2864
     33  CB        -5.2970   -4.2550   15.8930 C.3    22  LYS22       0.0298
     34  CG        -4.1160   -3.4880   15.2620 C.3    22  LYS22       0.0038
     35  CD        -4.5810   -2.2060   14.5830 C.3    22  LYS22       0.0206
     36  CE        -3.4210   -1.4540   13.9260 C.3    22  LYS22       0.1093
     37  NZ        -3.9200   -0.2530   13.1910 N.3    22  LYS22      -0.1314
     38  N          3.1250   -2.2290   26.3300 N.3    33  TYR33      -0.1241
     39  CA         3.9920   -1.0850   26.0710 C.3    33  TYR33       0.1605
     40  C          4.8010   -0.7290   27.3140 C.2    33  TYR33       0.2264
     41  O          6.0010   -0.4630   27.2300 O.2    33  TYR33      -0.2867
     42  CB         3.1670    0.1210   25.6190 C.3    33  TYR33       0.0534
     43  CG         2.4190   -0.0950   24.3220 C.ar   33  TYR33      -0.0201
     44  CD1        2.9530   -0.8830   23.3110 C.ar   33  TYR33      -0.0009
     45  CD2        1.1770    0.4870   24.1110 C.ar   33  TYR33      -0.0009
     46  CE1        2.2720   -1.0820   22.1250 C.ar   33  TYR33       0.0417
     47  CE2        0.4880    0.2930   22.9310 C.ar   33  TYR33       0.0417
     48  CZ         1.0390   -0.4920   21.9410 C.ar   33  TYR33       0.1957
     49  OH         0.3550   -0.6860   20.7620 O.3    33  TYR33      -0.2866
     50  N          8.8330    4.9750   20.1300 N.3    45  LEU45      -0.1245
     51  CA         7.7000    4.2630   19.5690 C.3    45  LEU45       0.1561
     52  C          6.7480    3.7580   20.6570 C.2    45  LEU45       0.2260
     53  O          5.5370    3.9620   20.5750 O.2    45  LEU45      -0.2867
     54  CB         8.2050    3.1010   18.7140 C.3    45  LEU45       0.0270
     55  CG         7.4060    2.7010   17.4730 C.3    45  LEU45       0.0019
     56  CD1        6.7500    3.9050   16.8050 C.3    45  LEU45       0.0001
     57  CD2        8.3230    1.9740   16.5010 C.3    45  LEU45       0.0001
     58  N          2.8490    4.9080   21.2610 N.3    49  ASN49      -0.1240
     59  CA         1.7150    3.9960   21.1740 C.3    49  ASN49       0.1653
     60  C          0.9340    3.9150   22.4830 C.2    49  ASN49       0.2266
     61  O         -0.3000    3.8610   22.4810 O.2    49  ASN49      -0.2867
     62  CB         2.1860    2.6060   20.7480 C.3    49  ASN49       0.1155
     63  CG         2.8490    2.6090   19.3850 C.2    49  ASN49       0.2627
     64  OD1        3.1200    3.6670   18.8160 O.2    49  ASN49      -0.2716
     65  ND2        3.1170    1.4220   18.8550 N.am   49  ASN49      -0.0877
     66  N         -1.2290    6.9040   22.6560 N.3    52  MET52      -0.1245
     67  CA        -2.4440    6.7470   21.8570 C.3    52  MET52       0.1570
     68  C         -3.4770    5.8770   22.5760 C.2    52  MET52       0.2261
     69  O         -4.6620    6.2290   22.6570 O.2    52  MET52      -0.2867
     70  CB        -2.1240    6.1650   20.4790 C.3    52  MET52       0.0387
     71  CG        -3.3560    5.8210   19.6590 C.3    52  MET52       0.0595
     72  SD        -4.5110    7.1990   19.5010 S.3    52  MET52      -0.1393
     73  CE        -3.5910    8.2980   18.4300 C.3    52  MET52       0.0692
     74  N         -7.3220    6.6940   23.8750 N.3    56  LYS56      -0.1245
     75  CA        -8.5330    5.9290   23.5850 C.3    56  LYS56       0.1561
     76  C         -9.3950    5.6370   24.8200 C.2    56  LYS56       0.2260
     77  O        -10.5360    5.1950   24.6890 O.2    56  LYS56      -0.2867
     78  CB        -8.1880    4.6310   22.8490 C.3    56  LYS56       0.0271
     79  CG        -7.4330    4.8490   21.5460 C.3    56  LYS56       0.0035
     80  CD        -8.1950    4.2990   20.3490 C.3    56  LYS56       0.0206
     81  CE        -9.5440    4.9780   20.1800 C.3    56  LYS56       0.1093
     82  NZ       -10.2850    4.4460   19.0030 N.3    56  LYS56      -0.1314
     83  N          9.2530   13.1710   15.4290 N.3    77  TYR77      -0.1241
     84  CA         8.1340   12.2390   15.3510 C.3    77  TYR77       0.1605
     85  C          6.8190   13.0110   15.3810 C.2    77  TYR77       0.2264
     86  O          6.3440   13.3990   16.4480 O.2    77  TYR77      -0.2867
     87  CB         8.1860   11.2450   16.5130 C.3    77  TYR77       0.0534
     88  CG         7.3870    9.9790   16.2870 C.ar   77  TYR77      -0.0201
     89  CD1        6.7930    9.7160   15.0590 C.ar   77  TYR77      -0.0009
     90  CD2        7.2250    9.0480   17.3060 C.ar   77  TYR77      -0.0009
     91  CE1        6.0640    8.5600   14.8510 C.ar   77  TYR77       0.0417
     92  CE2        6.4970    7.8910   17.1070 C.ar   77  TYR77       0.0417
     93  CZ         5.9180    7.6520   15.8780 C.ar   77  TYR77       0.1957
     94  OH         5.1920    6.5010   15.6750 O.3    77  TYR77      -0.2866
     95  N          3.7580   12.1380   14.8600 N.3    79  LYS79      -0.1245
     96  CA         2.6410   11.4570   15.5050 C.3    79  LYS79       0.1561
     97  C          2.5290   11.8430   16.9760 C.2    79  LYS79       0.2260
     98  O          1.4340   12.1060   17.4740 O.2    79  LYS79      -0.2867
     99  CB         2.7820    9.9390   15.3660 C.3    79  LYS79       0.0271
    100  CG         2.6630    9.4390   13.9690 C.3    79  LYS79       0.0035
    101  CD         1.2590    9.4570   13.4480 C.3    79  LYS79       0.0206
    102  CE         1.1810    8.9090   12.0010 C.3    79  LYS79       0.1093
    103  NZ         1.6170    9.8610   10.9690 N.3    79  LYS79      -0.1314
    104  N          1.1120   15.2850   17.2480 N.3    82  ALA82      -0.1231
    105  CA        -0.3170   15.2940   16.9560 C.3    82  ALA82       0.1694
    106  C         -1.1220   14.7870   18.1480 C.2    82  ALA82       0.2591
    107  O         -2.1100   15.4030   18.5550 O.2    82  ALA82      -0.2718
    108  CB        -0.6110   14.4580   15.7200 C.3    82  ALA82       0.0304
    109  N         -0.6860   13.6630   18.7070 N.am   83  ARG83      -0.1980
    110  CA        -1.3650   13.0590   19.8460 C.3    83  ARG83       0.1597
    111  C         -1.2880   13.9490   21.0840 C.2    83  ARG83       0.2287
    112  O         -2.2300   14.0060   21.8750 O.2    83  ARG83      -0.2864
    113  CB        -0.7820   11.6750   20.1400 C.3    83  ARG83       0.0334
    114  CG        -0.9450   10.6880   18.9960 C.3    83  ARG83       0.0492
    115  CD        -0.1340    9.4230   19.2210 C.3    83  ARG83       0.2205
    116  NE        -0.2120    8.5200   18.0760 N.pl3  83  ARG83      -0.0865
    117  CZ         0.4830    7.3930   17.9610 C.cat  83  ARG83       0.5346
    118  NH1        1.3160    7.0250   18.9240 N.pl3  83  ARG83       0.1354
    119  NH2        0.3480    6.6350   16.8820 N.pl3  83  ARG83       0.1354
    120  N          4.8820   16.9670    8.5210 N.3   108  GLU108     -0.1245
    121  CA         4.1240   16.4640    7.3840 C.3   108  GLU108      0.1567
    122  C          3.6400   17.6300    6.5320 C.2   108  GLU108      0.2260
    123  O          2.6030   17.5490    5.8730 O.2   108  GLU108     -0.2867
    124  CB         2.9350   15.6330    7.8660 C.3   108  GLU108      0.0388
    125  CG         3.3350   14.4240    8.7420 C.3   108  GLU108      0.1160
    126  CD         2.2440   13.3570    8.9560 C.2   108  GLU108      0.3649
    127  OE1        1.0660   13.5790    8.6550 O.co2 108  GLU108     -0.2457
    128  OE2        2.5840   12.2620    9.4070 O.co2 108  GLU108     -0.2457
@<TRIPOS>BOND
     1   123   122    2
     2   122   121    1
     3   121   124    1
     4   121   120    1
     5   124   125    1
     6   127   126   ar
     7   125   126    1
     8   126   128   ar
     9   103   102    1
    10   102   101    1
    11    37    36    1
    12   101   100    1
    13    36    35    1
    14   100    99    1
    15    35    34    1
    16    91    89   ar
    17    91    93   ar
    18    95    96    1
    19    89    88   ar
    20    34    33    1
    21    84    85    1
    22    84    83    1
    23    84    87    1
    24    99    96    1
    25    85    86    2
    26    96    97    1
    27    94    93    1
    28   108   105    1
    29    93    92   ar
    30    33    30    1
    31     9     8    1
    32    88    87    1
    33    88    90   ar
    34    57    55    1
    35    32    31    2
    36    17    15   am
    37    56    55    1
    38   119   117    1
    39    30    31    1
    40    30    29    1
    41   105   104    1
    42   105   106    1
    43    97    98    2
    44     8     7    1
    45    92    90   ar
    46    55    54    1
    47    14    15    1
    48    14    11    1
    49    15    16    2
    50    27    25   ar
    51    27    28   ar
    52    13    12    2
    53   117   116    2
    54   117   118    1
    55   116   115    1
    56    29    20   am
    57   106   107    2
    58   106   109   am
    59     7     6    1
    60    25    23   ar
    61    12    11    1
    62    73    72    1
    63   109   110    1
    64    54    51    1
    65    11    10    1
    66    64    63    2
    67    65    63   am
    68    28    26   ar
    69    21    20    2
    70   114   115    1
    71   114   113    1
    72    82    81    1
    73     6     5    1
    74    20    19    1
    75    63    62    1
    76    72    71    1
    77    23    22    1
    78    23    24   ar
    79    51    50    1
    80    51    52    1
    81    71    70    1
    82     4     3    2
    83   110   113    1
    84   110   111    1
    85    22    19    1
    86     3     2    1
    87     5     2    1
    88    81    80    1
    89    26    24   ar
    90    19    18    1
    91    80    79    1
    92    70    67    1
    93    53    52    2
    94    62    59    1
    95    49    48    1
    96     2     1    1
    97   111   112    2
    98    59    58    1
    99    59    60    1
   100    79    78    1
   101    67    68    1
   102    67    66    1
   103    48    46   ar
   104    48    47   ar
   105    46    44   ar
   106    61    60    2
   107    68    69    2
   108    78    75    1
   109    47    45   ar
   110    44    43   ar
   111    75    74    1
   112    75    76    1
   113    45    43   ar
   114    43    42    1
   115    77    76    2
   116    42    39    1
   117    39    38    1
   118    39    40    1
   119    41    40    2
