@<TRIPOS>MOLECULE
tmp/4cgzA00.pdb
 156 147 0 0 0
SMALL
GASTEIGER

@<TRIPOS>ATOM
      1  N        -28.5410   47.4140  -27.3320 N.3    23  PHE23      -0.1241
      2  CA       -27.7840   48.2850  -26.4390 C.3    23  PHE23       0.1605
      3  C        -28.7240   49.2300  -25.6790 C.2    23  PHE23       0.2264
      4  O        -28.5310   49.4900  -24.4940 O.2    23  PHE23      -0.2867
      5  CB       -26.7630   49.0750  -27.2530 C.3    23  PHE23       0.0534
      6  CG       -25.9540   50.0560  -26.4600 C.ar   23  PHE23      -0.0203
      7  CD1      -24.8680   49.6370  -25.7200 C.ar   23  PHE23      -0.0042
      8  CD2      -26.2720   51.4010  -26.4660 C.ar   23  PHE23      -0.0042
      9  CE1      -24.1100   50.5430  -25.0000 C.ar   23  PHE23      -0.0003
     10  CE2      -25.5230   52.3080  -25.7490 C.ar   23  PHE23      -0.0003
     11  CZ       -24.4400   51.8780  -25.0150 C.ar   23  PHE23      -0.0000
     12  N        -28.5280   50.7630  -21.6590 N.3    29  LEU29      -0.1245
     13  CA       -27.4310   51.7160  -21.5980 C.3    29  LEU29       0.1561
     14  C        -27.5380   52.7710  -22.6960 C.2    29  LEU29       0.2260
     15  O        -28.2680   52.5880  -23.6720 O.2    29  LEU29      -0.2867
     16  CB       -26.1070   50.9650  -21.7100 C.3    29  LEU29       0.0270
     17  CG       -25.9810   49.7970  -20.7270 C.3    29  LEU29       0.0019
     18  CD1      -24.7310   48.9830  -21.0180 C.3    29  LEU29       0.0001
     19  CD2      -25.9850   50.2880  -19.2890 C.3    29  LEU29       0.0001
     20  N        -24.5190   55.4050  -23.4370 N.3    31  ASN31      -0.1225
     21  CA       -23.2460   55.7890  -24.0420 C.3    31  ASN31       0.1785
     22  C        -22.1320   54.7940  -23.7470 C.2    31  ASN31       0.2597
     23  O        -21.9680   54.3410  -22.6160 O.2    31  ASN31      -0.2718
     24  CB       -22.8320   57.1840  -23.5810 C.3    31  ASN31       0.1169
     25  CG       -23.8510   58.2380  -23.9430 C.2    31  ASN31       0.2627
     26  OD1      -23.7260   58.9060  -24.9700 O.2    31  ASN31      -0.2716
     27  ND2      -24.8730   58.3900  -23.1080 N.am   31  ASN31      -0.0877
     28  N        -21.3650   54.4660  -24.7820 N.am   32  PHE32      -0.1962
     29  CA       -20.2390   53.5490  -24.6560 C.3    32  PHE32       0.1771
     30  C        -19.0600   54.1820  -23.9230 C.2    32  PHE32       0.2619
     31  O        -18.7970   55.3760  -24.0520 O.2    32  PHE32      -0.2715
     32  CB       -19.7720   53.0740  -26.0360 C.3    32  PHE32       0.0574
     33  CG       -20.7800   52.2400  -26.7710 C.ar   32  PHE32      -0.0200
     34  CD1      -21.7420   52.8360  -27.5650 C.ar   32  PHE32      -0.0042
     35  CD2      -20.7680   50.8620  -26.6630 C.ar   32  PHE32      -0.0042
     36  CE1      -22.6670   52.0740  -28.2430 C.ar   32  PHE32      -0.0003
     37  CE2      -21.6930   50.0960  -27.3360 C.ar   32  PHE32      -0.0003
     38  CZ       -22.6420   50.7020  -28.1270 C.ar   32  PHE32      -0.0000
     39  N        -18.3650   53.3840  -23.1280 N.am   33  ARG33      -0.1977
     40  CA       -17.1520   53.8530  -22.4940 C.3    33  ARG33       0.1597
     41  C        -15.9830   53.6040  -23.4330 C.2    33  ARG33       0.2287
     42  O        -16.1620   53.0340  -24.5050 O.2    33  ARG33      -0.2864
     43  CB       -16.9460   53.1300  -21.1690 C.3    33  ARG33       0.0334
     44  CG       -17.9950   53.4670  -20.1250 C.3    33  ARG33       0.0492
     45  CD       -17.8380   52.5630  -18.9290 C.3    33  ARG33       0.2205
     46  NE       -18.8440   52.8050  -17.9060 N.pl3  33  ARG33      -0.0865
     47  CZ       -18.9390   52.0920  -16.7900 C.cat  33  ARG33       0.5346
     48  NH1      -18.0920   51.0940  -16.5640 N.pl3  33  ARG33       0.1354
     49  NH2      -19.8840   52.3670  -15.9020 N.pl3  33  ARG33       0.1354
     50  N        -15.1070   50.4900  -25.8810 N.3    36  GLN36      -0.1245
     51  CA       -16.2450   49.5880  -25.8360 C.3    36  GLN36       0.1566
     52  C        -16.8410   49.3960  -27.2200 C.2    36  GLN36       0.2260
     53  O        -17.0250   48.2660  -27.6680 O.2    36  GLN36      -0.2867
     54  CB       -17.3340   50.0770  -24.8930 C.3    36  GLN36       0.0367
     55  CG       -17.0790   49.8000  -23.4440 C.3    36  GLN36       0.0905
     56  CD       -18.3370   49.9590  -22.6440 C.2    36  GLN36       0.2608
     57  OE1      -19.0840   50.9150  -22.8350 O.2    36  GLN36      -0.2717
     58  NE2      -18.5950   49.0140  -21.7520 N.am   36  GLN36      -0.0878
     59  N        -10.5070   46.9410  -13.5450 N.3    55  THR55      -0.1203
     60  CA       -11.7800   46.5810  -12.9240 C.3    55  THR55       0.1994
     61  C        -12.8100   47.6930  -13.0560 C.2    55  THR55       0.2618
     62  O        -12.5000   48.8570  -12.8290 O.2    55  THR55      -0.2717
     63  CB       -11.5940   46.2520  -11.4300 C.3    55  THR55       0.1784
     64  OG1      -10.7090   45.1340  -11.2850 O.3    55  THR55      -0.2211
     65  CG2      -12.9320   45.9390  -10.7730 C.3    55  THR55       0.0376
     66  N        -14.0150   47.3510  -13.4940 N.am   56  GLY56      -0.1956
     67  CA       -15.0650   48.3470  -13.6020 C.3    56  GLY56       0.1869
     68  C        -14.9720   49.1190  -14.8990 C.2    56  GLY56       0.2309
     69  O        -15.7470   50.0450  -15.1380 O.2    56  GLY56      -0.2863
     70  N        -15.5600   48.0330  -17.9660 N.3    58  GLY58      -0.1210
     71  CA       -16.7180   47.7550  -18.7860 C.3    58  GLY58       0.1956
     72  C        -16.4630   46.5520  -19.6530 C.2    58  GLY58       0.2612
     73  O        -16.9170   46.4910  -20.7850 O.2    58  GLY58      -0.2717
     74  N        -15.7580   45.5760  -19.0950 N.am   59  LYS59      -0.1965
     75  CA       -15.3910   44.3700  -19.8250 C.3    59  LYS59       0.1728
     76  C        -16.5990   43.4840  -20.1210 C.2    59  LYS59       0.2617
     77  O        -16.6120   42.7740  -21.1270 O.2    59  LYS59      -0.2715
     78  CB       -14.3230   43.5680  -19.0690 C.3    59  LYS59       0.0311
     79  CG       -12.9400   44.2130  -19.0820 C.3    59  LYS59       0.0038
     80  CD       -11.8830   43.3110  -18.4520 C.3    59  LYS59       0.0206
     81  CE       -11.9520   43.3370  -16.9530 C.3    59  LYS59       0.1093
     82  NZ       -11.5810   44.6830  -16.4430 N.3    59  LYS59      -0.1314
     83  N        -17.5920   43.4900  -19.2380 N.am   60  SER60      -0.1936
     84  CA       -18.7480   42.6140  -19.4120 C.3    60  SER60       0.2055
     85  C        -19.4660   42.8560  -20.7340 C.2    60  SER60       0.2642
     86  O        -19.8110   41.9140  -21.4380 O.2    60  SER60      -0.2714
     87  CB       -19.7390   42.7950  -18.2610 C.3    60  SER60       0.2130
     88  OG       -19.1090   42.5950  -17.0060 O.3    60  SER60      -0.2179
     89  N        -19.6750   44.1250  -21.0630 N.am   61  LEU61      -0.1977
     90  CA       -20.3660   44.5360  -22.2870 C.3    61  LEU61       0.1596
     91  C        -19.7000   44.0710  -23.5920 C.2    61  LEU61       0.2287
     92  O        -20.3850   43.8150  -24.5800 O.2    61  LEU61      -0.2864
     93  CB       -20.5030   46.0540  -22.2910 C.3    61  LEU61       0.0297
     94  CG       -21.4360   46.6900  -23.3020 C.3    61  LEU61       0.0022
     95  CD1      -22.8400   46.1590  -23.0540 C.3    61  LEU61       0.0001
     96  CD2      -21.3990   48.1970  -23.1520 C.3    61  LEU61       0.0001
     97  N        -22.7740   36.7490  -12.9920 N.3    87  GLN87      -0.1245
     98  CA       -22.9920   37.2830  -14.3220 C.3    87  GLN87       0.1566
     99  C        -24.3070   36.7710  -14.9180 C.2    87  GLN87       0.2260
    100  O        -25.0490   37.5340  -15.5350 O.2    87  GLN87      -0.2867
    101  CB       -21.8150   36.9640  -15.2350 C.3    87  GLN87       0.0367
    102  CG       -20.6420   37.9190  -15.0430 C.3    87  GLN87       0.0905
    103  CD       -21.0080   39.3830  -15.2780 C.2    87  GLN87       0.2608
    104  OE1      -21.9890   39.7030  -15.9510 O.2    87  GLN87      -0.2717
    105  NE2      -20.2010   40.2790  -14.7310 N.am   87  GLN87      -0.0878
    106  N        -27.1960   38.5430  -13.4430 N.3    90  LYS90      -0.1245
    107  CA       -27.3180   39.8800  -14.0070 C.3    90  LYS90       0.1561
    108  C        -28.0210   39.8000  -15.3570 C.2    90  LYS90       0.2260
    109  O        -28.8300   40.6610  -15.7040 O.2    90  LYS90      -0.2867
    110  CB       -25.9430   40.5320  -14.1650 C.3    90  LYS90       0.0271
    111  CG       -25.9770   41.9120  -14.8070 C.3    90  LYS90       0.0035
    112  CD       -24.6970   42.1880  -15.5880 C.3    90  LYS90       0.0206
    113  CE       -24.7720   43.5220  -16.3190 C.3    90  LYS90       0.1093
    114  NZ       -23.4640   43.9160  -16.9220 N.3    90  LYS90      -0.1314
    115  N        -20.3150   43.9880   -6.1960 N.3   320  PRO320     -0.2116
    116  CA       -19.9380   45.1960   -6.9350 C.3   320  PRO320      0.1372
    117  C        -19.9440   46.4770   -6.1160 C.2   320  PRO320      0.2244
    118  O        -19.2880   47.4400   -6.5130 O.2   320  PRO320     -0.2868
    119  CB       -21.0140   45.2760   -8.0150 C.3   320  PRO320      0.0268
    120  CG       -22.2150   44.6390   -7.3700 C.3   320  PRO320      0.0207
    121  CD       -21.6810   43.5380   -6.5120 C.3   320  PRO320      0.0892
    122  N        -16.4860   48.2080   -7.9770 N.3   346  ARG346     -0.1231
    123  CA       -16.6740   47.7490   -9.3470 C.3   346  ARG346      0.1694
    124  C        -17.8810   48.4300   -9.9830 C.2   346  ARG346      0.2592
    125  O        -17.9490   48.5740  -11.2030 O.2   346  ARG346     -0.2718
    126  CB       -16.8490   46.2310   -9.3860 C.3   346  ARG346      0.0321
    127  CG       -16.8810   45.6540  -10.7730 C.3   346  ARG346      0.0489
    128  CD       -17.0760   44.1520  -10.7600 C.3   346  ARG346      0.2205
    129  NE       -17.3140   43.6620  -12.1150 N.pl3 346  ARG346     -0.0865
    130  CZ       -17.3550   42.3800  -12.4630 C.cat 346  ARG346      0.5346
    131  NH1      -17.1650   41.4300  -11.5580 N.pl3 346  ARG346      0.1354
    132  NH2      -17.5790   42.0520  -13.7260 N.pl3 346  ARG346      0.1354
    133  N        -18.8330   48.8520   -9.1540 N.am  347  ASP347     -0.1974
    134  CA       -20.0440   49.5010   -9.6500 C.3   347  ASP347      0.1709
    135  C        -19.7840   50.9440  -10.0670 C.2   347  ASP347      0.2293
    136  O        -20.7030   51.6580  -10.4600 O.2   347  ASP347     -0.2864
    137  CB       -21.1380   49.4820   -8.5940 C.3   347  ASP347      0.1436
    138  CG       -20.7650   50.2810   -7.3840 C.2   347  ASP347      0.3671
    139  OD1      -19.5540   50.4900   -7.1710 O.co2 347  ASP347     -0.2456
    140  OD2      -21.6730   50.7110   -6.6530 O.co2 347  ASP347     -0.2456
    141  N        -28.2800   47.9230   -9.8570 N.3   581  ASN581     -0.1240
    142  CA       -26.9650   48.2370   -9.3270 C.3   581  ASN581      0.1653
    143  C        -27.0340   49.5860   -8.6210 C.2   581  ASN581      0.2266
    144  O        -28.0350   50.2930   -8.7320 O.2   581  ASN581     -0.2867
    145  CB       -25.9000   48.2270  -10.4250 C.3   581  ASN581      0.1155
    146  CG       -26.1950   49.2040  -11.5410 C.2   581  ASN581      0.2627
    147  OD1      -26.5730   50.3500  -11.3040 O.2   581  ASN581     -0.2716
    148  ND2      -25.9930   48.7590  -12.7740 N.am  581  ASN581     -0.0877
    149  N        -29.7200   54.9400  -17.0290 N.3   603  ASP603     -0.1239
    150  CA       -28.8650   53.7590  -17.1650 C.3   603  ASP603      0.1674
    151  C        -29.2730   52.5710  -16.2880 C.2   603  ASP603      0.2266
    152  O        -29.2770   52.6580  -15.0590 O.2   603  ASP603     -0.2867
    153  CB       -27.4200   54.1300  -16.8440 C.3   603  ASP603      0.1410
    154  CG       -26.7600   54.9050  -17.9540 C.2   603  ASP603      0.3668
    155  OD1      -26.9910   54.5750  -19.1370 O.co2 603  ASP603     -0.2456
    156  OD2      -26.0100   55.8510  -17.6440 O.co2 603  ASP603     -0.2456
@<TRIPOS>BOND
     1    36    38   ar
     2    36    34   ar
     3    38    37   ar
     4    53    52    2
     5    34    33   ar
     6    37    35   ar
     7     1     2    1
     8     5     6    1
     9     5     2    1
    10    52    51    1
    11    33    35   ar
    12    33    32    1
    13     8     6   ar
    14     8    10   ar
    15     6     7   ar
    16     2     3    1
    17    32    29    1
    18    50    51    1
    19    51    54    1
    20    10    11   ar
    21     7     9   ar
    22     3     4    2
    23    11     9   ar
    24    26    25    2
    25    54    55    1
    26    28    29    1
    27    28    22   am
    28    29    30    1
    29    92    91    2
    30    42    41    2
    31    31    30    2
    32    21    22    1
    33    21    24    1
    34    21    20    1
    35    25    24    1
    36    25    27   am
    37    30    39   am
    38    22    23    2
    39    15    14    2
    40    91    90    1
    41    55    56    1
    42    41    40    1
    43    94    96    1
    44    94    95    1
    45    94    93    1
    46    39    40    1
    47    57    56    2
    48    14    13    1
    49    56    58   am
    50    40    43    1
    51    93    90    1
    52    90    89    1
    53    16    13    1
    54    16    17    1
    55    12    13    1
    56    86    85    2
    57    43    44    1
    58    77    76    2
    59    89    85   am
    60    18    17    1
    61    73    72    2
    62    85    84    1
    63    17    19    1
    64    44    45    1
    65    76    75    1
    66    76    83   am
    67    75    74    1
    68    75    78    1
    69    72    74   am
    70    72    71    1
    71    84    83    1
    72    84    87    1
    73   155   154   ar
    74    79    78    1
    75    79    80    1
    76    45    46    1
    77    71    70    1
    78    80    81    1
    79    87    88    1
    80   154   156   ar
    81   154   153    1
    82    46    47    2
    83   150   149    1
    84   150   153    1
    85   150   151    1
    86    81    82    1
    87   114   113    1
    88    47    48    1
    89    47    49    1
    90   113   112    1
    91   151   152    2
    92   104   103    2
    93   109   108    2
    94   112   111    1
    95   100    99    2
    96   108   107    1
    97   103   102    1
    98   103   105   am
    99   101   102    1
   100   101    98    1
   101    69    68    2
   102    99    98    1
   103    68    67    1
   104   111   110    1
   105    98    97    1
   106   110   107    1
   107   107   106    1
   108   132   130    1
   109    67    66    1
   110    59    60    1
   111    66    61   am
   112    61    60    1
   113    61    62    2
   114    60    63    1
   115   148   146   am
   116   130   129    2
   117   130   131    1
   118   129   128    1
   119   146   147    2
   120   146   145    1
   121    63    64    1
   122    63    65    1
   123   125   124    2
   124   127   128    1
   125   127   126    1
   126   136   135    2
   127   145   142    1
   128   135   134    1
   129   124   123    1
   130   124   133   am
   131   141   142    1
   132   134   133    1
   133   134   137    1
   134   126   123    1
   135   123   122    1
   136   142   143    1
   137   144   143    2
   138   137   138    1
   139   119   120    1
   140   119   116    1
   141   138   139   ar
   142   138   140   ar
   143   120   121    1
   144   116   115    1
   145   116   117    1
   146   118   117    2
   147   121   115    1
