@<TRIPOS>MOLECULE
tmp/4ch6A00.pdb
 235 225 0 0 0
SMALL
GASTEIGER

@<TRIPOS>ATOM
      1  N         37.3390  136.0060  -13.8700 N.3   113  MET113     -0.1230
      2  CA        38.1970  136.1700  -12.7060 C.3   113  MET113      0.1702
      3  C         37.9140  137.5320  -12.0690 C.2   113  MET113      0.2592
      4  O         37.2850  138.3890  -12.7000 O.2   113  MET113     -0.2718
      5  CB        39.6790  136.0410  -13.0810 C.3   113  MET113      0.0401
      6  CG        40.3660  137.3320  -13.4620 C.3   113  MET113      0.0596
      7  SD        41.4560  137.1540  -14.8680 S.3   113  MET113     -0.1393
      8  CE        40.1860  137.7060  -15.9950 C.3   113  MET113      0.0692
      9  N         38.3500  137.7020  -10.8180 N.am  114  LEU114     -0.1966
     10  CA        38.0600  138.9270  -10.0400 C.3   114  LEU114      0.1728
     11  C         39.1160  140.0360  -10.2190 C.2   114  LEU114      0.2616
     12  O         38.8370  141.2040   -9.9500 O.2   114  LEU114     -0.2715
     13  CB        37.8810  138.5990   -8.5530 C.3   114  LEU114      0.0311
     14  CG        36.7290  137.5980   -8.2570 C.3   114  LEU114      0.0022
     15  CD1       36.5590  137.3640   -6.7590 C.3   114  LEU114      0.0001
     16  CD2       35.4380  138.1090   -8.8760 C.3   114  LEU114      0.0001
     17  N         40.2910  139.6780  -10.7230 N.am  115  ALA115     -0.1977
     18  CA        41.4280  140.6050  -10.7880 C.3   115  ALA115      0.1597
     19  C         41.1560  141.9870  -11.4010 C.2   115  ALA115      0.2287
     20  O         41.5710  142.9970  -10.8320 O.2   115  ALA115     -0.2864
     21  CB        42.6010  139.9180  -11.4740 C.3   115  ALA115      0.0319
     22  N         39.2220  144.2280   -9.0860 N.3   118  LEU118     -0.1231
     23  CA        39.9940  144.4760   -7.8780 C.3   118  LEU118      0.1693
     24  C         41.1840  145.4230   -8.1290 C.2   118  LEU118      0.2592
     25  O         41.5070  146.2370   -7.2840 O.2   118  LEU118     -0.2718
     26  CB        40.4510  143.1740   -7.2210 C.3   118  LEU118      0.0284
     27  CG        39.2790  142.3650   -6.6290 C.3   118  LEU118      0.0019
     28  CD1       39.7600  141.0260   -6.1070 C.3   118  LEU118      0.0001
     29  CD2       38.4850  143.1100   -5.5630 C.3   118  LEU118      0.0001
     30  N         41.8100  145.3050   -9.2830 N.am  119  TYR119     -0.1976
     31  CA        42.8320  146.2490   -9.7030 C.3   119  TYR119      0.1639
     32  C         42.2480  147.6620   -9.6820 C.2   119  TYR119      0.2290
     33  O         42.8380  148.5600   -9.1230 O.2   119  TYR119     -0.2864
     34  CB        43.3040  145.9060  -11.1120 C.3   119  TYR119      0.0560
     35  CG        44.5950  145.1240  -11.2330 C.ar  119  TYR119     -0.0198
     36  CD1       45.7290  145.5030  -10.5540 C.ar  119  TYR119     -0.0009
     37  CD2       44.7010  144.0590  -12.1200 C.ar  119  TYR119     -0.0009
     38  CE1       46.9260  144.8190  -10.7060 C.ar  119  TYR119      0.0417
     39  CE2       45.8890  143.3680  -12.2790 C.ar  119  TYR119      0.0417
     40  CZ        47.0020  143.7440  -11.5720 C.ar  119  TYR119      0.1957
     41  OH        48.2170  143.0700  -11.7390 O.3   119  TYR119     -0.2866
     42  N         41.7400  148.8470   -6.1460 N.3   122  LEU122     -0.1245
     43  CA        42.9920  149.1600   -5.5060 C.3   122  LEU122      0.1561
     44  C         43.4960  150.5520   -5.9150 C.2   122  LEU122      0.2260
     45  O         43.9250  151.3190   -5.0540 O.2   122  LEU122     -0.2867
     46  CB        44.0530  148.1150   -5.8470 C.3   122  LEU122      0.0270
     47  CG        43.9170  146.7360   -5.1830 C.3   122  LEU122      0.0019
     48  CD1       44.9940  145.8640   -5.8030 C.3   122  LEU122      0.0001
     49  CD2       44.0690  146.7790   -3.6690 C.3   122  LEU122      0.0001
     50  N         33.8140  130.4620  -16.8450 N.3   143  ARG143     -0.1245
     51  CA        34.7430  129.9950  -17.8740 C.3   143  ARG143      0.1563
     52  C         34.1560  128.7910  -18.6030 C.2   143  ARG143      0.2260
     53  O         33.7860  127.8280  -17.9590 O.2   143  ARG143     -0.2867
     54  CB        36.0700  129.5530  -17.2470 C.3   143  ARG143      0.0307
     55  CG        36.7690  130.6810  -16.5460 C.3   143  ARG143      0.0489
     56  CD        38.1740  130.3240  -16.0770 C.3   143  ARG143      0.2205
     57  NE        38.6430  131.3240  -15.1140 N.pl3 143  ARG143     -0.0865
     58  CZ        39.7640  131.2310  -14.4070 C.cat 143  ARG143      0.5346
     59  NH1       40.5690  130.1830  -14.5560 N.pl3 143  ARG143      0.1354
     60  NH2       40.0620  132.1840  -13.5280 N.pl3 143  ARG143      0.1354
     61  N         34.5330  125.4370  -19.9690 N.3   145  GLU145     -0.1245
     62  CA        35.5630  124.4580  -19.5660 C.3   145  GLU145      0.1567
     63  C         35.4300  123.1960  -20.4050 C.2   145  GLU145      0.2260
     64  O         34.3400  122.9020  -20.8910 O.2   145  GLU145     -0.2867
     65  CB        35.4710  124.1340  -18.0580 C.3   145  GLU145      0.0388
     66  CG        35.8960  125.2810  -17.1160 C.3   145  GLU145      0.1160
     67  CD        37.4110  125.5890  -17.0810 C.2   145  GLU145      0.3649
     68  OE1       38.2140  124.8030  -17.6220 O.co2 145  GLU145     -0.2457
     69  OE2       37.8230  126.6360  -16.4990 O.co2 145  GLU145     -0.2457
     70  N         36.8890  118.4320  -11.7720 N.3   148  GLU148     -0.1231
     71  CA        37.3910  119.5580  -10.9370 C.3   148  GLU148      0.1699
     72  C         37.0340  120.9760  -11.4570 C.2   148  GLU148      0.2592
     73  O         37.3130  121.9600  -10.7670 O.2   148  GLU148     -0.2718
     74  CB        38.9250  119.4950  -10.7540 C.3   148  GLU148      0.0402
     75  CG        39.5330  118.1110  -10.5460 C.3   148  GLU148      0.1161
     76  CD        38.9460  117.3500   -9.3690 C.2   148  GLU148      0.3649
     77  OE1       38.2670  117.9640   -8.5120 O.co2 148  GLU148     -0.2457
     78  OE2       39.1640  116.1240   -9.3090 O.co2 148  GLU148     -0.2457
     79  N         36.4350  121.0820  -12.6510 N.am  149  HIS149     -0.1962
     80  CA        36.1140  122.3830  -13.2570 C.3   149  HIS149      0.1787
     81  C         34.6000  122.5650  -13.5310 C.2   149  HIS149      0.2620
     82  O         33.9130  121.6610  -13.9660 O.2   149  HIS149     -0.2715
     83  CB        36.9220  122.5610  -14.5520 C.3   149  HIS149      0.0785
     84  CG        38.4100  122.5800  -14.3370 C.ar  149  HIS149      0.0821
     85  ND1       39.1750  121.4330  -14.3230 N.ar  149  HIS149     -0.2267
     86  CD2       39.2700  123.6090  -14.1220 C.ar  149  HIS149      0.1154
     87  CE1       40.4430  121.7540  -14.1130 C.ar  149  HIS149      0.1986
     88  NE2       40.5250  123.0670  -13.9770 N.ar  149  HIS149     -0.2212
     89  N         34.0940  123.7500  -13.2290 N.am  150  LEU150     -0.1977
     90  CA        32.7100  124.1000  -13.4600 C.3   150  LEU150      0.1596
     91  C         32.7140  125.2300  -14.4440 C.2   150  LEU150      0.2287
     92  O         33.6930  125.9600  -14.5170 O.2   150  LEU150     -0.2864
     93  CB        32.1110  124.6150  -12.1530 C.3   150  LEU150      0.0297
     94  CG        32.0070  123.5730  -11.0350 C.3   150  LEU150      0.0022
     95  CD1       31.6630  124.2530   -9.7170 C.3   150  LEU150      0.0001
     96  CD2       30.9770  122.5100  -11.3990 C.3   150  LEU150      0.0001
     97  N         31.3250  129.1590  -11.3970 N.3   153  PHE153     -0.1241
     98  CA        31.9330  128.9310  -10.0880 C.3   153  PHE153      0.1605
     99  C         31.9760  130.2110   -9.2520 C.2   153  PHE153      0.2264
    100  O         31.4480  131.2510   -9.6550 O.2   153  PHE153     -0.2867
    101  CB        33.3380  128.2860  -10.2080 C.3   153  PHE153      0.0534
    102  CG        34.3180  129.0760  -11.0320 C.ar  153  PHE153     -0.0203
    103  CD1       34.2690  129.0090  -12.4240 C.ar  153  PHE153     -0.0042
    104  CD2       35.3120  129.8300  -10.4360 C.ar  153  PHE153     -0.0042
    105  CE1       35.1500  129.7190  -13.2100 C.ar  153  PHE153     -0.0003
    106  CE2       36.2130  130.5350  -11.2260 C.ar  153  PHE153     -0.0003
    107  CZ        36.1300  130.4860  -12.6010 C.ar  153  PHE153     -0.0000
    108  N         34.4620  132.5450   -6.8460 N.3   155  MET155     -0.1245
    109  CA        35.8150  132.8280   -6.3960 C.3   155  MET155      0.1570
    110  C         35.8180  133.7010   -5.1690 C.2   155  MET155      0.2261
    111  O         35.0130  134.6230   -5.0710 O.2   155  MET155     -0.2867
    112  CB        36.5820  133.5720   -7.4710 C.3   155  MET155      0.0387
    113  CG        36.8150  132.7910   -8.7460 C.3   155  MET155      0.0595
    114  SD        37.9520  131.4390   -8.4290 S.3   155  MET155     -0.1393
    115  CE        39.3040  132.3200   -7.6030 C.3   155  MET155      0.0692
    116  N         38.7580  136.2490   -3.9000 N.3   157  ASN157     -0.1225
    117  CA        40.0690  136.8430   -4.1650 C.3   157  ASN157      0.1785
    118  C         40.3040  137.8930   -3.1240 C.2   157  ASN157      0.2597
    119  O         39.4830  138.7750   -2.9580 O.2   157  ASN157     -0.2718
    120  CB        40.1690  137.5140   -5.5250 C.3   157  ASN157      0.1169
    121  CG        40.5610  136.5540   -6.6400 C.2   157  ASN157      0.2627
    122  OD1       41.7020  136.5730   -7.1330 O.2   157  ASN157     -0.2716
    123  ND2       39.6150  135.7400   -7.0760 N.am  157  ASN157     -0.0877
    124  N         41.4470  137.8190   -2.4480 N.am  158  PHE158     -0.1962
    125  CA        41.8450  138.8690   -1.5220 C.3   158  PHE158      0.1771
    126  C         43.1380  139.4820   -2.0050 C.2   158  PHE158      0.2619
    127  O         43.9150  138.8130   -2.7360 O.2   158  PHE158     -0.2715
    128  CB        41.9560  138.3420   -0.1080 C.3   158  PHE158      0.0574
    129  CG        43.0660  137.3350    0.1220 C.ar  158  PHE158     -0.0200
    130  CD1       44.3580  137.7520    0.4210 C.ar  158  PHE158     -0.0042
    131  CD2       42.7930  135.9650    0.1380 C.ar  158  PHE158     -0.0042
    132  CE1       45.3610  136.8270    0.7170 C.ar  158  PHE158     -0.0003
    133  CE2       43.7930  135.0420    0.4120 C.ar  158  PHE158     -0.0003
    134  CZ        45.0840  135.4790    0.6820 C.ar  158  PHE158     -0.0000
    135  N         43.3570  140.7420   -1.5870 N.am  159  CYS159     -0.1968
    136  CA        44.5170  141.5590   -2.0040 C.3   159  CYS159      0.1712
    137  C         44.9740  142.4540   -0.8890 C.2   159  CYS159      0.2296
    138  O         44.1430  143.0350   -0.2050 O.2   159  CYS159     -0.2864
    139  CB        44.1330  142.6120   -3.0280 C.3   159  CYS159      0.0983
    140  SG        43.4010  142.0830   -4.5040 S.3   159  CYS159     -0.0798
    141  N         44.2230  121.7460   -7.0790 N.3   205  GLU205     -0.1231
    142  CA        44.6260  123.1300   -6.8290 C.3   205  GLU205      0.1699
    143  C         43.4810  123.8680   -6.1440 C.2   205  GLU205      0.2592
    144  O         42.3710  123.9650   -6.6850 O.2   205  GLU205     -0.2718
    145  CB        45.0220  123.8570   -8.1240 C.3   205  GLU205      0.0402
    146  CG        45.4230  125.3150   -7.9000 C.3   205  GLU205      0.1161
    147  CD        45.6840  126.0790   -9.1900 C.2   205  GLU205      0.3649
    148  OE1       46.6080  125.6920   -9.9310 O.co2 205  GLU205     -0.2457
    149  OE2       44.9690  127.0680   -9.4710 O.co2 205  GLU205     -0.2457
    150  N         43.7520  124.3820   -4.9480 N.am  206  LEU206     -0.1966
    151  CA        42.7780  125.2130   -4.2360 C.3   206  LEU206      0.1728
    152  C         42.9560  126.6760   -4.6090 C.2   206  LEU206      0.2617
    153  O         41.9910  127.4190   -4.6600 O.2   206  LEU206     -0.2715
    154  CB        42.9520  125.0850   -2.7300 C.3   206  LEU206      0.0311
    155  CG        42.8290  123.6890   -2.1510 C.3   206  LEU206      0.0022
    156  CD1       43.0990  123.7620   -0.6620 C.3   206  LEU206      0.0001
    157  CD2       41.4460  123.1470   -2.4300 C.3   206  LEU206      0.0001
    158  N         44.1960  127.0910   -4.8240 N.am  207  SER207     -0.1936
    159  CA        44.4530  128.4830   -5.1380 C.3   207  SER207      0.2055
    160  C         45.7190  128.6820   -5.9210 C.2   207  SER207      0.2643
    161  O         46.6490  127.8780   -5.8230 O.2   207  SER207     -0.2714
    162  CB        44.5030  129.3200   -3.8430 C.3   207  SER207      0.2130
    163  OG        45.1840  130.5530   -4.0200 O.3   207  SER207     -0.2179
    164  N         45.7090  129.7500   -6.7230 N.am  208  SER208     -0.1949
    165  CA        46.9260  130.4160   -7.2350 C.3   208  SER208      0.1924
    166  C         47.0810  131.7530   -6.4970 C.2   208  SER208      0.2314
    167  O         46.0770  132.4990   -6.2600 O.2   208  SER208     -0.2863
    168  CB        46.8180  130.6920   -8.7110 C.3   208  SER208      0.2116
    169  OG        46.9230  129.4680   -9.4090 O.3   208  SER208     -0.2180
    170  N         49.8030  135.2300   -5.7850 N.3   210  VAL210     -0.1245
    171  CA        50.8320  136.0450   -6.4090 C.3   210  VAL210      0.1561
    172  C         51.4230  137.0200   -5.4010 C.2   210  VAL210      0.2260
    173  O         50.7050  137.6370   -4.6200 O.2   210  VAL210     -0.2867
    174  CB        50.2630  136.8290   -7.6200 C.3   210  VAL210      0.0252
    175  CG1       51.3160  137.7320   -8.2170 C.3   210  VAL210      0.0019
    176  CG2       49.7110  135.8830   -8.6820 C.3   210  VAL210      0.0019
    177  N         52.2310  144.4300   -3.8030 N.3   226  TRP226     -0.1241
    178  CA        50.9590  143.8280   -3.4720 C.3   226  TRP226      0.1605
    179  C         51.1010  142.3160   -3.3670 C.2   226  TRP226      0.2264
    180  O         52.0620  141.7290   -3.8730 O.2   226  TRP226     -0.2867
    181  CB        49.8660  144.2350   -4.4810 C.3   226  TRP226      0.0550
    182  CG        50.0140  143.6820   -5.8480 C.ar  226  TRP226      0.0003
    183  CD1       50.6940  144.2450   -6.8800 C.ar  226  TRP226      0.0946
    184  CD2       49.4580  142.4500   -6.3630 C.ar  226  TRP226      0.0152
    185  NE1       50.6260  143.4420   -7.9850 N.ar  226  TRP226     -0.2442
    186  CE2       49.8540  142.3440   -7.7000 C.ar  226  TRP226      0.0810
    187  CE3       48.6870  141.4320   -5.8130 C.ar  226  TRP226      0.0012
    188  CZ2       49.5110  141.2440   -8.5060 C.ar  226  TRP226      0.0191
    189  CZ3       48.3290  140.3270   -6.6270 C.ar  226  TRP226      0.0001
    190  CH2       48.7300  140.2520   -7.9430 C.ar  226  TRP226      0.0015
    191  N         48.3340  138.6680   -3.2090 N.3   228  GLY228     -0.1210
    192  CA        46.9340  138.2450   -3.3580 C.3   228  GLY228      0.1956
    193  C         46.7850  136.7910   -3.6930 C.2   228  GLY228      0.2612
    194  O         47.7480  136.1330   -4.0980 O.2   228  GLY228     -0.2717
    195  N         45.5700  136.2840   -3.5220 N.am  229  ALA229     -0.1965
    196  CA        45.2520  134.9300   -3.9130 C.3   229  ALA229      0.1728
    197  C         43.7490  134.7760   -4.2260 C.2   229  ALA229      0.2616
    198  O         42.9150  135.5070   -3.6850 O.2   229  ALA229     -0.2715
    199  CB        45.6750  133.9630   -2.8200 C.3   229  ALA229      0.0334
    200  N         43.4460  133.8250   -5.1060 N.am  230  GLY230     -0.1955
    201  CA        42.0900  133.4370   -5.4620 C.3   230  GLY230      0.1869
    202  C         41.8510  131.9830   -5.1540 C.2   230  GLY230      0.2309
    203  O         42.6510  131.1220   -5.5300 O.2   230  GLY230     -0.2863
    204  N         38.6770  128.9590   -5.2770 N.3   232  GLY232     -0.1225
    205  CA        37.3680  128.5150   -5.7090 C.3   232  GLY232      0.1811
    206  C         36.5610  127.9590   -4.5600 C.2   232  GLY232      0.2280
    207  O         36.9560  126.9820   -3.9440 O.2   232  GLY232     -0.2866
    208  N         33.7270  126.2860   -4.5620 N.3   234  GLU234     -0.1231
    209  CA        33.2450  124.9230   -4.8490 C.3   234  GLU234      0.1699
    210  C         34.3320  123.8820   -4.5940 C.2   234  GLU234      0.2592
    211  O         34.0590  122.8140   -4.0500 O.2   234  GLU234     -0.2718
    212  CB        32.6560  124.8290   -6.2690 C.3   234  GLU234      0.0402
    213  CG        31.3990  125.6850   -6.4740 C.3   234  GLU234      0.1161
    214  CD        31.6680  127.1430   -6.8610 C.2   234  GLU234      0.3649
    215  OE1       32.8750  127.5590   -6.9180 O.co2 234  GLU234     -0.2457
    216  OE2       30.6710  127.8950   -7.0830 O.co2 234  GLU234     -0.2457
    217  N         35.5860  124.2010   -4.9240 N.am  235  ARG235     -0.1980
    218  CA        36.7230  123.3240   -4.5400 C.3   235  ARG235      0.1597
    219  C         36.9120  123.1610   -3.0540 C.2   235  ARG235      0.2287
    220  O         37.1320  122.0360   -2.5780 O.2   235  ARG235     -0.2864
    221  CB        38.0470  123.8000   -5.1680 C.3   235  ARG235      0.0334
    222  CG        38.0010  123.5400   -6.6360 C.3   235  ARG235      0.0492
    223  CD        39.3110  123.6990   -7.3030 C.3   235  ARG235      0.2205
    224  NE        39.1660  123.4030   -8.7140 N.pl3 235  ARG235     -0.0865
    225  CZ        40.1190  123.5650   -9.6100 C.cat 235  ARG235      0.5346
    226  NH1       41.3250  123.9680   -9.2360 N.pl3 235  ARG235      0.1354
    227  NH2       39.8710  123.2860  -10.8780 N.pl3 235  ARG235      0.1354
    228  N         32.8300  117.6290   -8.0630 N.3   246  ILE246     -0.1245
    229  CA        32.6400  119.0500   -7.7700 C.3   246  ILE246      0.1561
    230  C         31.2530  119.6250   -8.1130 C.2   246  ILE246      0.2260
    231  O         30.8200  120.6060   -7.5050 O.2   246  ILE246     -0.2867
    232  CB        33.7160  119.9160   -8.4530 C.3   246  ILE246      0.0252
    233  CG1       33.7110  121.3140   -7.8370 C.3   246  ILE246      0.0019
    234  CG2       33.5270  119.9430   -9.9700 C.3   246  ILE246      0.0019
    235  CD1       35.0180  122.0300   -8.0230 C.3   246  ILE246      0.0001
@<TRIPOS>BOND
     1    64    63    2
     2    63    62    1
     3    61    62    1
     4    62    65    1
     5    52    53    2
     6    52    51    1
     7    65    66    1
     8    51    54    1
     9    51    50    1
    10    68    67   ar
    11    54    55    1
    12    66    67    1
    13    67    69   ar
    14    55    56    1
    15    56    57    1
    16     8     7    1
    17    57    58    2
    18     7     6    1
    19    59    58    1
    20    83    84    1
    21    83    80    1
    22    92    91    2
    23    91    90    1
    24    58    60    1
    25    84    85   ar
    26    84    86   ar
    27    85    87   ar
    28    86    88   ar
    29    87    88   ar
    30    82    81    2
    31     1     2    1
    32    81    80    1
    33    81    89   am
    34     6     5    1
    35    90    89    1
    36    90    93    1
    37    80    79    1
    38   105   107   ar
    39   105   103   ar
    40     5     2    1
    41     2     3    1
    42     4     3    2
    43    79    72   am
    44   107   106   ar
    45   103   102   ar
    46    39    37   ar
    47    39    40   ar
    48    93    94    1
    49    37    35   ar
    50     3     9   am
    51    70    71    1
    52    41    40    1
    53    40    38   ar
    54    21    18    1
    55    72    71    1
    56    72    73    2
    57    19    20    2
    58    19    18    1
    59    96    94    1
    60    97    98    1
    61    35    34    1
    62    35    36   ar
    63   106   104   ar
    64    34    31    1
    65    94    95    1
    66   102   104   ar
    67   102   101    1
    68    71    74    1
    69   227   225    1
    70     9    10    1
    71    18    17    1
    72    74    75    1
    73    17    11   am
    74    38    36   ar
    75    75    76    1
    76    11    10    1
    77    11    12    2
    78   101    98    1
    79    98    99    1
    80    10    13    1
    81   234   232    1
    82   148   147   ar
    83    31    32    1
    84    31    30    1
    85    32    33    2
    86   100    99    2
    87   225   226    1
    88   225   224    2
    89   149   147   ar
    90   169   168    1
    91    76    78   ar
    92    76    77   ar
    93    30    24   am
    94   147   146    1
    95    22    23    1
    96    16    14    1
    97   113   114    1
    98   113   112    1
    99   224   223    1
   100   168   165    1
   101   176   174    1
   102    13    14    1
   103   188   190   ar
   104   188   186   ar
   105   232   233    1
   106   232   229    1
   107   114   115    1
   108    14    15    1
   109   175   174    1
   110    24    23    1
   111    24    25    2
   112   145   146    1
   113   145   142    1
   114   230   229    1
   115   230   231    2
   116   228   229    1
   117   235   233    1
   118   185   186   ar
   119   185   183   ar
   120   190   189   ar
   121    23    26    1
   122   186   184   ar
   123   174   171    1
   124   112   109    1
   125   223   222    1
   126   165   164    1
   127   165   166    1
   128    26    27    1
   129   122   121    2
   130   216   214   ar
   131   141   142    1
   132   123   121   am
   133   215   214   ar
   134   183   182   ar
   135   214   213    1
   136   108   109    1
   137   142   143    1
   138   164   160   am
   139   144   143    2
   140   121   120    1
   141   222   221    1
   142    27    28    1
   143    27    29    1
   144   189   187   ar
   145   166   167    2
   146   213   212    1
   147   171   170    1
   148   171   172    1
   149   109   110    1
   150   184   182   ar
   151   184   187   ar
   152   212   209    1
   153    42    43    1
   154   143   150   am
   155   160   161    2
   156   160   159    1
   157    44    43    1
   158    44    45    2
   159   182   181    1
   160    46    43    1
   161    46    47    1
   162    48    47    1
   163   205   204    1
   164   205   206    1
   165   203   202    2
   166   120   117    1
   167   201   202    1
   168   201   200    1
   169   172   173    2
   170    47    49    1
   171   110   111    2
   172   221   218    1
   173   159   158    1
   174   159   162    1
   175   200   197   am
   176   150   151    1
   177   217   210   am
   178   217   218    1
   179   209   210    1
   180   209   208    1
   181   158   152   am
   182   153   152    2
   183   152   151    1
   184   210   211    2
   185   206   207    2
   186   218   219    1
   187   140   139    1
   188   181   178    1
   189   151   154    1
   190   197   196    1
   191   197   198    2
   192   117   116    1
   193   117   118    1
   194   194   193    2
   195   163   162    1
   196   196   195    1
   197   196   199    1
   198   180   179    2
   199   177   178    1
   200   193   195   am
   201   193   192    1
   202   178   179    1
   203   192   191    1
   204   118   119    2
   205   118   124   am
   206   219   220    2
   207   139   136    1
   208   127   126    2
   209   154   155    1
   210   124   125    1
   211   157   155    1
   212   155   156    1
   213   126   135   am
   214   126   125    1
   215   136   135    1
   216   136   137    1
   217   125   128    1
   218   137   138    2
   219   128   129    1
   220   129   131   ar
   221   129   130   ar
   222   131   133   ar
   223   133   134   ar
   224   130   132   ar
   225   134   132   ar
