@<TRIPOS>MOLECULE
tmp/4ch8H00.pdb
 121 115 0 0 0
SMALL
GASTEIGER

@<TRIPOS>ATOM
      1  N        -17.4990   -5.0560  144.5310 N.3    87  HIS87      -0.1241
      2  CA       -16.3360   -4.1750  144.6600 C.3    87  HIS87       0.1621
      3  C        -16.2630   -3.5820  146.0720 C.2    87  HIS87       0.2264
      4  O        -17.2150   -3.0360  146.5230 O.2    87  HIS87      -0.2867
      5  CB       -16.3410   -3.0570  143.6100 C.3    87  HIS87       0.0745
      6  CG       -14.9820   -2.4830  143.3880 C.ar   87  HIS87       0.0817
      7  ND1      -14.3170   -1.7390  144.3510 N.ar   87  HIS87      -0.2268
      8  CD2      -14.1670   -2.5100  142.3140 C.ar   87  HIS87       0.1154
      9  CE1      -13.1490   -1.3490  143.8750 C.ar   87  HIS87       0.1986
     10  NE2      -13.0330   -1.8110  142.6430 N.ar   87  HIS87      -0.2212
     11  N        -14.9920   -0.9650  147.2270 N.3    89  ARG89      -0.1245
     12  CA       -15.1600    0.5250  147.2710 C.3    89  ARG89       0.1563
     13  C        -16.3500    1.0040  146.4710 C.2    89  ARG89       0.2260
     14  O        -16.4390    2.1360  146.0410 O.2    89  ARG89      -0.2867
     15  CB       -13.8580    1.2290  146.8380 C.3    89  ARG89       0.0307
     16  CG       -12.6560    0.8730  147.7680 C.3    89  ARG89       0.0489
     17  CD       -11.4030    1.7080  147.6090 C.3    89  ARG89       0.2205
     18  NE       -10.9000    2.0440  148.9520 N.pl3  89  ARG89      -0.0865
     19  CZ       -11.2240    3.1330  149.6670 C.cat  89  ARG89       0.5346
     20  NH1      -12.0550    4.0530  149.1930 N.pl3  89  ARG89       0.1354
     21  NH2      -10.6980    3.3060  150.8710 N.pl3  89  ARG89       0.1354
     22  N        -18.1860    2.7800  141.2050 N.3    98  ARG98      -0.1245
     23  CA       -17.7610    1.3830  141.1380 C.3    98  ARG98       0.1563
     24  C        -18.9360    0.4310  141.2830 C.2    98  ARG98       0.2260
     25  O        -18.9090   -0.4570  142.1010 O.2    98  ARG98      -0.2867
     26  CB       -16.6810    1.0620  142.1340 C.3    98  ARG98       0.0307
     27  CG       -15.5580    2.1240  142.1120 C.3    98  ARG98       0.0489
     28  CD       -14.4940    1.7550  143.1070 C.3    98  ARG98       0.2205
     29  NE       -13.4610    2.7690  143.1060 N.pl3  98  ARG98      -0.0865
     30  CZ       -13.4400    3.8340  143.8810 C.cat  98  ARG98       0.5346
     31  NH1      -14.4060    4.0650  144.7560 N.pl3  98  ARG98       0.1354
     32  NH2      -12.4360    4.6830  143.7480 N.pl3  98  ARG98       0.1354
     33  N         -8.5030   -4.4310  126.5080 N.3   122  ASP122     -0.1225
     34  CA        -7.0870   -4.1210  126.7760 C.3   122  ASP122      0.1805
     35  C         -6.9480   -2.5760  126.6570 C.2   122  ASP122      0.2597
     36  O         -7.8860   -1.8850  126.2440 O.2   122  ASP122     -0.2718
     37  CB        -6.2040   -4.8000  125.7320 C.3   122  ASP122      0.1424
     38  CG        -6.6130   -4.3950  124.3030 C.2   122  ASP122      0.3668
     39  OD1       -7.5940   -4.9680  123.7650 O.co2 122  ASP122     -0.2456
     40  OD2       -5.9820   -3.4660  123.7640 O.co2 122  ASP122     -0.2456
     41  N         -5.8130   -2.0480  127.0700 N.am  123  ARG123     -0.1979
     42  CA        -5.6070   -0.5760  127.1310 C.3   123  ARG123      0.1597
     43  C         -5.7930    0.1630  125.8000 C.2   123  ARG123      0.2287
     44  O         -6.4640    1.2270  125.7230 O.2   123  ARG123     -0.2864
     45  CB        -4.2030   -0.2830  127.6550 C.3   123  ARG123      0.0334
     46  CG        -3.9980    1.2030  127.8930 C.3   123  ARG123      0.0492
     47  CD        -2.6500    1.5530  128.4300 C.3   123  ARG123      0.2205
     48  NE        -2.6880    1.6510  129.8830 N.pl3 123  ARG123     -0.0865
     49  CZ        -2.3240    0.6810  130.7240 C.cat 123  ARG123      0.5346
     50  NH1       -1.8520   -0.4920  130.2780 N.pl3 123  ARG123      0.1354
     51  NH2       -2.4200    0.8980  132.0400 N.pl3 123  ARG123      0.1354
     52  N         -8.5450    2.9120  124.8410 N.3   127  ALA127     -0.1245
     53  CA        -8.1350    4.2740  124.4430 C.3   127  ALA127      0.1562
     54  C         -8.6340    4.6240  123.0570 C.2   127  ALA127      0.2260
     55  O         -9.0640    5.7690  122.8010 O.2   127  ALA127     -0.2867
     56  CB        -6.6140    4.4020  124.5160 C.3   127  ALA127      0.0290
     57  N        -14.7960    6.6360  137.1490 N.3   184  ASN184     -0.1240
     58  CA       -15.2570    5.2330  137.0240 C.3   184  ASN184      0.1653
     59  C        -16.6090    5.0600  136.3290 C.2   184  ASN184      0.2266
     60  O        -17.1930    3.9710  136.3660 O.2   184  ASN184     -0.2867
     61  CB       -15.2510    4.4950  138.3660 C.3   184  ASN184      0.1155
     62  CG       -13.8840    4.5120  139.0420 C.2   184  ASN184      0.2627
     63  OD1      -12.8580    4.3540  138.4040 O.2   184  ASN184     -0.2716
     64  ND2      -13.8780    4.8380  140.3230 N.am  184  ASN184     -0.0877
     65  N        -13.0280   -0.9080  131.8670 N.3   244  PHE244     -0.1227
     66  CA       -11.6060   -0.8770  131.7710 C.3   244  PHE244      0.1736
     67  C        -10.9960   -0.3250  133.0780 C.2   244  PHE244      0.2595
     68  O        -10.0130   -0.8620  133.5650 O.2   244  PHE244     -0.2718
     69  CB       -11.1250   -0.0620  130.5930 C.3   244  PHE244      0.0547
     70  CG        -9.6310    0.0960  130.5470 C.ar  244  PHE244     -0.0202
     71  CD1       -8.8380   -0.9740  130.1490 C.ar  244  PHE244     -0.0042
     72  CD2       -9.0280    1.2230  131.0550 C.ar  244  PHE244     -0.0042
     73  CE1       -7.4660   -0.8720  130.0880 C.ar  244  PHE244     -0.0003
     74  CE2       -7.6400    1.3320  131.0530 C.ar  244  PHE244     -0.0003
     75  CZ        -6.8550    0.2880  130.5690 C.ar  244  PHE244     -0.0000
     76  N        -11.5430    0.7750  133.6150 N.am  245  ARG245     -0.1966
     77  CA       -10.9720    1.3860  134.8330 C.3   245  ARG245      0.1729
     78  C        -10.8830    0.3920  135.9920 C.2   245  ARG245      0.2616
     79  O        -10.0380    0.5470  136.8610 O.2   245  ARG245     -0.2715
     80  CB       -11.8450    2.5700  135.2630 C.3   245  ARG245      0.0348
     81  CG       -11.7400    3.7990  134.3650 C.3   245  ARG245      0.0492
     82  CD       -10.8100    4.8470  134.9340 C.3   245  ARG245      0.2205
     83  NE       -11.0240    5.1720  136.3380 N.pl3 245  ARG245     -0.0865
     84  CZ       -10.1650    5.8870  137.0770 C.cat 245  ARG245      0.5346
     85  NH1       -9.0160    6.2690  136.5550 N.pl3 245  ARG245      0.1354
     86  NH2      -10.4300    6.1690  138.3520 N.pl3 245  ARG245      0.1354
     87  N        -11.8760   -0.5070  136.0510 N.am  246  LEU246     -0.1963
     88  CA       -12.0250   -1.4440  137.1520 C.3   246  LEU246      0.1728
     89  C        -11.4960   -2.8380  136.8390 C.2   246  LEU246      0.2616
     90  O        -11.6740   -3.7440  137.6320 O.2   246  LEU246     -0.2715
     91  CB       -13.4970   -1.5110  137.5560 C.3   246  LEU246      0.0311
     92  CG       -14.0590   -0.1300  137.8650 C.3   246  LEU246      0.0022
     93  CD1      -15.5130   -0.1610  138.2080 C.3   246  LEU246      0.0001
     94  CD2      -13.2870    0.5110  138.9630 C.3   246  LEU246      0.0001
     95  N        -10.8160   -2.9820  135.7060 N.am  247  LYS247     -0.1963
     96  CA       -10.3490   -4.2900  135.2400 C.3   247  LYS247      0.1728
     97  C         -9.3090   -4.9680  136.1110 C.2   247  LYS247      0.2616
     98  O         -9.2930   -6.2610  136.1870 O.2   247  LYS247     -0.2715
     99  CB        -9.8700   -4.2270  133.8060 C.3   247  LYS247      0.0311
    100  CG        -9.6000   -5.5900  133.1810 C.3   247  LYS247      0.0038
    101  CD        -9.1180   -5.4640  131.7470 C.3   247  LYS247      0.0206
    102  CE        -7.7840   -4.7720  131.6880 C.3   247  LYS247      0.1093
    103  NZ        -7.1580   -4.9920  130.3710 N.3   247  LYS247     -0.1314
    104  N         -8.4930   -4.1930  136.8140 N.am  248  LYS248     -0.1977
    105  CA        -7.5110   -4.8110  137.7360 C.3   248  LYS248      0.1596
    106  C         -8.2100   -5.4880  138.8770 C.2   248  LYS248      0.2287
    107  O         -7.7630   -6.5620  139.3690 O.2   248  LYS248     -0.2864
    108  CB        -6.4890   -3.8050  138.2830 C.3   248  LYS248      0.0298
    109  CG        -5.6630   -3.1160  137.1960 C.3   248  LYS248      0.0038
    110  CD        -4.1300   -3.2130  137.3650 C.3   248  LYS248      0.0206
    111  CE        -3.5250   -3.6890  136.0490 C.3   248  LYS248      0.1093
    112  NZ        -2.0370   -3.7250  136.0180 N.3   248  LYS248     -0.1314
    113  N         -9.6710   -8.7500  137.4960 N.3   251  GLN251     -0.1245
    114  CA        -8.6050   -9.7800  137.3380 C.3   251  GLN251      0.1566
    115  C         -8.0940  -10.3520  138.6840 C.2   251  GLN251      0.2260
    116  O         -7.8630  -11.5370  138.7910 O.2   251  GLN251     -0.2867
    117  CB        -7.4530   -9.2200  136.5040 C.3   251  GLN251      0.0367
    118  CG        -7.8830   -8.8900  135.0520 C.3   251  GLN251      0.0905
    119  CD        -6.8370   -8.2320  134.1460 C.2   251  GLN251      0.2608
    120  OE1       -6.8680   -8.4200  132.9440 O.2   251  GLN251     -0.2717
    121  NE2       -5.9380   -7.4990  134.6910 N.am  251  GLN251     -0.0878
@<TRIPOS>BOND
     1    55    54    2
     2    54    53    1
     3    40    38   ar
     4    39    38   ar
     5    38    37    1
     6    53    56    1
     7    53    52    1
     8    44    43    2
     9    37    34    1
    10    43    42    1
    11    36    35    2
    12    33    34    1
    13    35    34    1
    14    35    41   am
    15    41    42    1
    16    42    45    1
    17    45    46    1
    18    46    47    1
    19    47    48    1
    20    48    49    2
    21    73    71   ar
    22    73    75   ar
    23    71    70   ar
    24    50    49    1
    25   103   102    1
    26    70    69    1
    27    70    72   ar
    28    75    74   ar
    29    69    66    1
    30    49    51    1
    31    74    72   ar
    32   102   101    1
    33   101   100    1
    34    66    65    1
    35    66    67    1
    36   120   119    2
    37    67    68    2
    38    67    76   am
    39   100    99    1
    40    76    77    1
    41    99    96    1
    42   119   121   am
    43   119   118    1
    44    81    82    1
    45    81    80    1
    46    77    80    1
    47    77    78    1
    48    82    83    1
    49   118   117    1
    50    96    95    1
    51    96    97    1
    52    95    89   am
    53    78    87   am
    54    78    79    2
    55   112   111    1
    56   111   110    1
    57    87    88    1
    58    97    98    2
    59    97   104   am
    60    59    60    2
    61    59    58    1
    62    83    84    2
    63   117   114    1
    64    85    84    1
    65   104   105    1
    66    89    88    1
    67    89    90    2
    68    58    57    1
    69    58    61    1
    70    84    86    1
    71    88    91    1
    72   109   110    1
    73   109   108    1
    74   114   113    1
    75   114   115    1
    76    91    92    1
    77   105   108    1
    78   105   106    1
    79    92    93    1
    80    92    94    1
    81    61    62    1
    82    63    62    2
    83   115   116    2
    84   106   107    2
    85    62    64   am
    86    23    22    1
    87    23    24    1
    88    23    26    1
    89    24    25    2
    90    27    26    1
    91    27    28    1
    92     8    10   ar
    93     8     6   ar
    94    10     9   ar
    95    29    28    1
    96    29    30    2
    97     6     5    1
    98     6     7   ar
    99     5     2    1
   100    32    30    1
   101     9     7   ar
   102    30    31    1
   103     1     2    1
   104     2     3    1
   105    14    13    2
   106     3     4    2
   107    13    12    1
   108    15    12    1
   109    15    16    1
   110    11    12    1
   111    17    16    1
   112    17    18    1
   113    18    19    2
   114    20    19    1
   115    19    21    1
