@<TRIPOS>MOLECULE
tmp/4chbA01.pdb
 112 106 0 0 0
SMALL
GASTEIGER

@<TRIPOS>ATOM
      1  N          3.4780  -27.9110  -27.7510 N.3   190  ASN190     -0.1225
      2  CA         3.9250  -26.9550  -28.7710 C.3   190  ASN190      0.1785
      3  C          2.7770  -26.1510  -29.3780 C.2   190  ASN190      0.2597
      4  O          2.6690  -26.0360  -30.6030 O.2   190  ASN190     -0.2718
      5  CB         4.6940  -27.6680  -29.8880 C.3   190  ASN190      0.1169
      6  CG         5.8740  -28.4620  -29.3670 C.2   190  ASN190      0.2627
      7  OD1        6.2220  -29.5100  -29.9160 O.2   190  ASN190     -0.2716
      8  ND2        6.4910  -27.9720  -28.2950 N.am  190  ASN190     -0.0877
      9  N          1.9260  -25.6140  -28.5100 N.am  191  ASN191     -0.1960
     10  CA         0.8170  -24.7480  -28.9050 C.3   191  ASN191      0.1819
     11  C         -0.2350  -25.4460  -29.7550 C.2   191  ASN191      0.2621
     12  O         -1.0080  -24.7910  -30.4580 O.2   191  ASN191     -0.2715
     13  CB         1.3470  -23.5290  -29.6520 C.3   191  ASN191      0.1195
     14  CG         2.1570  -22.6250  -28.7620 C.2   191  ASN191      0.2630
     15  OD1        1.7830  -22.3770  -27.6170 O.2   191  ASN191     -0.2716
     16  ND2        3.2860  -22.1460  -29.2680 N.am  191  ASN191     -0.0877
     17  N         -0.2590  -26.7730  -29.6850 N.am  192  LEU192     -0.1977
     18  CA        -1.3200  -27.5600  -30.2910 C.3   192  LEU192      0.1596
     19  C         -2.1110  -28.2850  -29.2090 C.2   192  LEU192      0.2287
     20  O         -1.5300  -28.7950  -28.2460 O.2   192  LEU192     -0.2864
     21  CB        -0.7580  -28.5850  -31.2730 C.3   192  LEU192      0.0297
     22  CG        -0.1640  -28.0180  -32.5690 C.3   192  LEU192      0.0022
     23  CD1        0.3330  -29.1530  -33.4500 C.3   192  LEU192      0.0001
     24  CD2       -1.1990  -27.1780  -33.3040 C.3   192  LEU192      0.0001
     25  N         -4.3010  -31.4900  -28.2650 N.3   194  TYR194     -0.1241
     26  CA        -4.4620  -32.8700  -28.7180 C.3   194  TYR194      0.1605
     27  C         -5.7120  -33.5150  -28.1550 C.2   194  TYR194      0.2264
     28  O         -5.9700  -33.4230  -26.9520 O.2   194  TYR194     -0.2867
     29  CB        -3.2470  -33.7130  -28.3080 C.3   194  TYR194      0.0534
     30  CG        -2.0100  -33.4860  -29.1510 C.ar  194  TYR194     -0.0201
     31  CD1       -1.2640  -32.3150  -29.0460 C.ar  194  TYR194     -0.0009
     32  CD2       -1.5760  -34.4620  -30.0390 C.ar  194  TYR194     -0.0009
     33  CE1       -0.1350  -32.1130  -29.8170 C.ar  194  TYR194      0.0417
     34  CE2       -0.4490  -34.2720  -30.8080 C.ar  194  TYR194      0.0417
     35  CZ         0.2680  -33.0980  -30.6960 C.ar  194  TYR194      0.1957
     36  OH         1.3950  -32.8950  -31.4650 O.3   194  TYR194     -0.2866
     37  N         -5.3280  -33.0400  -33.7370 N.3   210  VAL210     -0.1245
     38  CA        -4.7060  -31.8580  -33.1560 C.3   210  VAL210      0.1561
     39  C         -5.3490  -30.5670  -33.6570 C.2   210  VAL210      0.2260
     40  O         -5.6370  -30.4150  -34.8520 O.2   210  VAL210     -0.2867
     41  CB        -3.1870  -31.8260  -33.4590 C.3   210  VAL210      0.0252
     42  CG1       -2.9240  -31.7200  -34.9610 C.3   210  VAL210      0.0019
     43  CG2       -2.5150  -30.6980  -32.7120 C.3   210  VAL210      0.0019
     44  N         -5.2400  -26.3220  -33.8980 N.3   212  ASP212     -0.1239
     45  CA        -4.4400  -25.0960  -33.8960 C.3   212  ASP212      0.1674
     46  C         -5.3610  -23.9000  -33.7090 C.2   212  ASP212      0.2266
     47  O         -6.1370  -23.5780  -34.6070 O.2   212  ASP212     -0.2867
     48  CB        -3.6580  -24.9590  -35.2180 C.3   212  ASP212      0.1410
     49  CG        -2.7070  -23.7680  -35.2290 C.2   212  ASP212      0.3668
     50  OD1       -2.7710  -22.9220  -34.3110 O.co2 212  ASP212     -0.2456
     51  OD2       -1.8900  -23.6730  -36.1690 O.co2 212  ASP212     -0.2456
     52  N         -4.7960  -20.8340  -33.8640 N.3   214  THR214     -0.1218
     53  CA        -4.5380  -19.7250  -34.7710 C.3   214  THR214      0.1862
     54  C         -5.2330  -19.9190  -36.1120 C.2   214  THR214      0.2287
     55  O         -5.4820  -18.9500  -36.8250 O.2   214  THR214     -0.2866
     56  CB        -3.0270  -19.5170  -34.9910 C.3   214  THR214      0.1770
     57  OG1       -2.4690  -20.6480  -35.6700 O.3   214  THR214     -0.2211
     58  CG2       -2.3280  -19.3340  -33.6640 C.3   214  THR214      0.0375
     59  N         -6.7520  -31.4260  -37.5000 N.3   219  ARG219     -0.1231
     60  CA        -6.2750  -32.4300  -38.4460 C.3   219  ARG219      0.1694
     61  C         -5.8220  -33.6360  -37.6510 C.2   219  ARG219      0.2592
     62  O         -5.5850  -33.5460  -36.4450 O.2   219  ARG219     -0.2718
     63  CB        -5.1510  -31.8930  -39.3370 C.3   219  ARG219      0.0321
     64  CG        -3.9290  -31.4010  -38.5830 C.3   219  ARG219      0.0489
     65  CD        -2.9350  -30.6990  -39.5250 C.3   219  ARG219      0.2205
     66  NE        -1.8800  -30.0770  -38.7300 N.pl3 219  ARG219     -0.0865
     67  CZ        -0.8050  -30.7310  -38.2960 C.cat 219  ARG219      0.5346
     68  NH1       -0.6190  -32.0080  -38.6210 N.pl3 219  ARG219      0.1354
     69  NH2        0.0910  -30.1040  -37.5450 N.pl3 219  ARG219      0.1354
     70  N         -5.7390  -34.7760  -38.3200 N.am  220  GLN220     -0.1966
     71  CA        -5.3720  -36.0200  -37.6630 C.3   220  GLN220      0.1733
     72  C         -3.8630  -36.2040  -37.6860 C.2   220  GLN220      0.2616
     73  O         -3.1860  -35.7470  -38.6170 O.2   220  GLN220     -0.2715
     74  CB        -6.0640  -37.1660  -38.3640 C.3   220  GLN220      0.0408
     75  CG        -6.5630  -38.2450  -37.5030 C.3   220  GLN220      0.0908
     76  CD        -7.4690  -39.1560  -38.2790 C.2   220  GLN220      0.2608
     77  OE1       -8.2250  -38.7030  -39.1470 O.2   220  GLN220     -0.2717
     78  NE2       -7.4030  -40.4360  -37.9860 N.am  220  GLN220     -0.0878
     79  N         -3.3350  -36.8570  -36.6580 N.am  221  VAL221     -0.1977
     80  CA        -1.9340  -37.2720  -36.6620 C.3   221  VAL221      0.1596
     81  C         -1.8710  -38.8000  -36.6270 C.2   221  VAL221      0.2287
     82  O         -2.8740  -39.4720  -36.8790 O.2   221  VAL221     -0.2864
     83  CB        -1.1480  -36.6500  -35.4900 C.3   221  VAL221      0.0276
     84  CG1       -1.2340  -35.1200  -35.5740 C.3   221  VAL221      0.0022
     85  CG2       -1.6780  -37.1370  -34.1330 C.3   221  VAL221      0.0022
     86  N          3.9810  -39.7380  -27.8610 N.3   258  TYR258     -0.1241
     87  CA         3.9490  -39.2200  -29.2120 C.3   258  TYR258      0.1605
     88  C          5.0660  -38.2160  -29.4010 C.2   258  TYR258      0.2264
     89  O          5.2590  -37.3310  -28.5780 O.2   258  TYR258     -0.2867
     90  CB         2.5900  -38.5680  -29.4970 C.3   258  TYR258      0.0534
     91  CG         2.4970  -38.0140  -30.9020 C.ar  258  TYR258     -0.0201
     92  CD1        2.4820  -38.8590  -31.9970 C.ar  258  TYR258     -0.0009
     93  CD2        2.4380  -36.6460  -31.1240 C.ar  258  TYR258     -0.0009
     94  CE1        2.4020  -38.3510  -33.2880 C.ar  258  TYR258      0.0417
     95  CE2        2.3570  -36.1300  -32.4100 C.ar  258  TYR258      0.0417
     96  CZ         2.3460  -36.9810  -33.4740 C.ar  258  TYR258      0.1957
     97  OH         2.2690  -36.4610  -34.7410 O.3   258  TYR258     -0.2866
     98  N          6.0420  -35.3670  -31.9780 N.3   260  PRO260     -0.2116
     99  CA         5.4570  -34.6410  -33.1140 C.3   260  PRO260      0.1372
    100  C          6.4500  -34.3780  -34.2340 C.2   260  PRO260      0.2244
    101  O          6.0240  -33.9970  -35.3310 O.2   260  PRO260     -0.2868
    102  CB         4.9970  -33.3180  -32.4950 C.3   260  PRO260      0.0268
    103  CG         5.8840  -33.1350  -31.3060 C.3   260  PRO260      0.0207
    104  CD         6.1610  -34.5190  -30.7790 C.3   260  PRO260      0.0892
    105  N          6.2060  -37.9900  -35.8670 N.3   263  ASP263     -0.1239
    106  CA         4.8200  -38.4250  -36.0570 C.3   263  ASP263      0.1674
    107  C          4.6970  -39.9180  -35.7700 C.2   263  ASP263      0.2266
    108  O          4.0830  -40.6650  -36.5320 O.2   263  ASP263     -0.2867
    109  CB         4.3440  -38.1010  -37.4810 C.3   263  ASP263      0.1410
    110  CG         2.8550  -38.3280  -37.6830 C.2   263  ASP263      0.3668
    111  OD1        2.0590  -38.1630  -36.7330 O.co2 263  ASP263     -0.2456
    112  OD2        2.4710  -38.6630  -38.8260 O.co2 263  ASP263     -0.2456
@<TRIPOS>BOND
     1    65    66    1
     2    65    64    1
     3    63    64    1
     4    63    60    1
     5    77    76    2
     6   112   110   ar
     7    66    67    2
     8    68    67    1
     9    73    72    2
    10    60    61    1
    11    60    59    1
    12    74    71    1
    13    74    75    1
    14    70    71    1
    15    70    61   am
    16    67    69    1
    17    76    78   am
    18    76    75    1
    19    72    71    1
    20    72    79   am
    21   110   109    1
    22   110   111   ar
    23    61    62    2
    24   109   106    1
    25    82    81    2
    26    55    54    2
    27    80    79    1
    28    80    81    1
    29    80    83    1
    30   108   107    2
    31    51    49   ar
    32    54    53    1
    33   106   105    1
    34   106   107    1
    35    57    56    1
    36    84    83    1
    37    83    85    1
    38   101   100    2
    39    49    48    1
    40    49    50   ar
    41    48    45    1
    42    56    53    1
    43    56    58    1
    44    42    41    1
    45    40    39    2
    46    53    52    1
    47    97    96    1
    48    47    46    2
    49   100    99    1
    50    44    45    1
    51    45    46    1
    52    37    38    1
    53    39    38    1
    54    96    94   ar
    55    96    95   ar
    56    41    38    1
    57    41    43    1
    58    23    22    1
    59    24    22    1
    60    94    92   ar
    61    99   102    1
    62    99    98    1
    63    22    21    1
    64   102   103    1
    65    95    93   ar
    66    92    91   ar
    67    98   104    1
    68    36    35    1
    69   103   104    1
    70    21    18    1
    71    93    91   ar
    72    91    90    1
    73    34    35   ar
    74    34    32   ar
    75    35    33   ar
    76     4     3    2
    77    12    11    2
    78    18    17    1
    79    18    19    1
    80    32    30   ar
    81     7     6    2
    82     5     6    1
    83     5     2    1
    84    33    31   ar
    85    11    17   am
    86    11    10    1
    87    13    10    1
    88    13    14    1
    89    90    87    1
    90    88    87    1
    91    88    89    2
    92     3     2    1
    93     3     9   am
    94     6     8   am
    95    16    14   am
    96    87    86    1
    97    19    20    2
    98    30    31   ar
    99    30    29    1
   100    10     9    1
   101     2     1    1
   102    14    15    2
   103    26    29    1
   104    26    25    1
   105    26    27    1
   106    27    28    2
