@<TRIPOS>MOLECULE
tmp/4chiA00.pdb
 184 176 0 0 0
SMALL
GASTEIGER

@<TRIPOS>ATOM
      1  N         25.6990   34.9110   29.4570 N.3    57  TYR57      -0.1241
      2  CA        24.6530   35.8570   29.0940 C.3    57  TYR57       0.1605
      3  C         24.9590   36.4560   27.7640 C.2    57  TYR57       0.2264
      4  O         26.0770   36.3030   27.2260 O.2    57  TYR57      -0.2867
      5  CB        24.4440   36.9190   30.1700 C.3    57  TYR57       0.0534
      6  CG        25.4050   38.0980   30.1470 C.ar   57  TYR57      -0.0201
      7  CD1       26.7930   37.9450   30.3620 C.ar   57  TYR57      -0.0009
      8  CD2       24.9630   39.3630   29.8990 C.ar   57  TYR57      -0.0009
      9  CE1       27.6290   39.0280   30.3900 C.ar   57  TYR57       0.0417
     10  CE2       25.8200   40.4570   29.8960 C.ar   57  TYR57       0.0417
     11  CZ        27.1580   40.2940   30.1690 C.ar   57  TYR57       0.1957
     12  OH        27.9900   41.3900   30.2450 O.3    57  TYR57      -0.2866
     13  N         23.6610   40.2860   25.3430 N.3    59  VAL59      -0.1245
     14  CA        22.8980   41.5400   25.3080 C.3    59  VAL59       0.1561
     15  C         22.7330   41.9680   23.8550 C.2    59  VAL59       0.2260
     16  O         23.7000   41.9980   23.0870 O.2    59  VAL59      -0.2867
     17  CB        23.5800   42.6520   26.1210 C.3    59  VAL59       0.0252
     18  CG1       22.9290   44.0020   25.8780 C.3    59  VAL59       0.0019
     19  CG2       23.5970   42.3160   27.5850 C.3    59  VAL59       0.0019
     20  N         23.8340   37.5050   17.9570 N.3    73  HIS73      -0.1241
     21  CA        23.8790   37.3690   19.4020 C.3    73  HIS73       0.1621
     22  C         23.3890   36.0180   19.8740 C.2    73  HIS73       0.2264
     23  O         23.9560   35.4390   20.8200 O.2    73  HIS73      -0.2867
     24  CB        23.0780   38.4920   20.0560 C.3    73  HIS73       0.0745
     25  CG        23.7920   39.8120   20.0020 C.ar   73  HIS73       0.0817
     26  ND1       24.7410   40.1820   20.9320 N.ar   73  HIS73      -0.2268
     27  CD2       23.7320   40.8320   19.1190 C.ar   73  HIS73       0.1154
     28  CE1       25.2280   41.3710   20.6000 C.ar   73  HIS73       0.1986
     29  NE2       24.6410   41.7730   19.5050 N.ar   73  HIS73      -0.2212
     30  N         26.0550   33.5370   19.3000 N.3    76  ARG76      -0.1245
     31  CA        27.1000   33.6810   20.2940 C.3    76  ARG76       0.1563
     32  C         26.6960   33.0450   21.6060 C.2    76  ARG76       0.2260
     33  O         27.5190   32.3370   22.2260 O.2    76  ARG76      -0.2867
     34  CB        27.5480   35.1430   20.4490 C.3    76  ARG76       0.0307
     35  CG        28.7930   35.2650   21.3120 C.3    76  ARG76       0.0489
     36  CD        29.3760   36.6630   21.3550 C.3    76  ARG76       0.2205
     37  NE        28.4590   37.6220   21.9810 N.pl3  76  ARG76      -0.0865
     38  CZ        28.6980   38.9240   22.0380 C.cat  76  ARG76       0.5346
     39  NH1       29.7770   39.4480   21.4500 N.pl3  76  ARG76       0.1354
     40  NH2       27.8460   39.7340   22.6570 N.pl3  76  ARG76       0.1354
     41  N         43.2540   42.0800   33.3940 N.3   167  ARG167     -0.1245
     42  CA        42.1470   41.2560   32.9650 C.3   167  ARG167      0.1563
     43  C         42.3700   39.8230   33.4000 C.2   167  ARG167      0.2260
     44  O         43.4740   39.2780   33.2850 O.2   167  ARG167     -0.2867
     45  CB        42.0140   41.3530   31.4380 C.3   167  ARG167      0.0307
     46  CG        40.7700   40.7370   30.8340 C.3   167  ARG167      0.0489
     47  CD        39.5170   41.5590   31.0260 C.3   167  ARG167      0.2205
     48  NE        38.3220   40.9000   30.4430 N.pl3 167  ARG167     -0.0865
     49  CZ        37.5820   39.9830   31.0840 C.cat 167  ARG167      0.5346
     50  NH1       37.8540   39.6180   32.3090 N.pl3 167  ARG167      0.1354
     51  NH2       36.5980   39.3910   30.4330 N.pl3 167  ARG167      0.1354
     52  N         30.8540   35.2710   27.1510 N.3   178  LYS178     -0.1182
     53  CA        30.3690   36.4950   27.8330 C.3   178  LYS178      0.1909
     54  C         29.8020   36.0890   29.2030 C.2   178  LYS178      0.2634
     55  O         28.9140   35.2520   29.2870 O.2   178  LYS178     -0.2714
     56  CB        29.3110   37.2540   26.9390 C.2   178  LYS178     -0.0028
     57  CG        29.0680   38.7550   27.2810 C.2   178  LYS178     -0.0272
     58  CD        28.1320   39.5370   26.3160 C.3   178  LYS178      0.0462
     59  CE        27.8360   41.0320   26.6880 C.3   178  LYS178      0.1140
     60  NZ        29.0540   41.7340   26.8790 N.3   178  LYS178     -0.1310
     61  N         30.3190   36.7020   30.2610 N.am  179  ASN179     -0.1972
     62  CA        30.0440   36.2450   31.6300 C.3   179  ASN179      0.1688
     63  C         29.9250   37.4300   32.5780 C.2   179  ASN179      0.2292
     64  O         30.3220   38.5440   32.2600 O.2   179  ASN179     -0.2864
     65  CB        31.1540   35.2700   32.0760 C.3   179  ASN179      0.1181
     66  CG        32.4650   35.9660   32.3190 C.2   179  ASN179      0.2629
     67  OD1       32.6760   36.5030   33.3870 O.2   179  ASN179     -0.2716
     68  ND2       33.3420   35.9940   31.2880 N.am  179  ASN179     -0.0877
     69  N         32.5830   39.6950   37.0210 N.3   182  TRP182     -0.1241
     70  CA        33.1980   40.9870   36.7310 C.3   182  TRP182      0.1605
     71  C         34.1790   41.4540   37.7840 C.2   182  TRP182      0.2264
     72  O         34.4680   42.6580   37.8680 O.2   182  TRP182     -0.2867
     73  CB        32.0980   42.0430   36.4890 C.3   182  TRP182      0.0550
     74  CG        31.6070   42.1530   35.1050 C.ar  182  TRP182      0.0003
     75  CD1       31.3930   41.1760   34.2020 C.ar  182  TRP182      0.0946
     76  CD2       31.2950   43.3860   34.4450 C.ar  182  TRP182      0.0152
     77  NE1       30.9530   41.7150   33.0160 N.ar  182  TRP182     -0.2442
     78  CE2       30.8790   43.0760   33.1380 C.ar  182  TRP182      0.0810
     79  CE3       31.3170   44.7220   34.8450 C.ar  182  TRP182      0.0012
     80  CZ2       30.5310   44.0320   32.2210 C.ar  182  TRP182      0.0191
     81  CZ3       30.9450   45.6830   33.9260 C.ar  182  TRP182      0.0001
     82  CH2       30.5700   45.3390   32.6290 C.ar  182  TRP182      0.0015
     83  N         36.7850   43.7320   36.2370 N.3   185  LEU185     -0.1245
     84  CA        36.1720   44.8720   35.5760 C.3   185  LEU185      0.1561
     85  C         35.5740   45.8840   36.5900 C.2   185  LEU185      0.2260
     86  O         35.7140   47.0980   36.4260 O.2   185  LEU185     -0.2867
     87  CB        35.0880   44.3720   34.6060 C.3   185  LEU185      0.0270
     88  CG        35.6100   43.4300   33.5000 C.3   185  LEU185      0.0019
     89  CD1       34.4830   43.0280   32.5660 C.3   185  LEU185      0.0001
     90  CD2       36.7960   43.9770   32.7460 C.3   185  LEU185      0.0001
     91  N         40.4960   44.6360   27.0550 N.3   211  GLU211     -0.1231
     92  CA        39.1940   45.2780   26.9220 C.3   211  GLU211      0.1699
     93  C         38.9380   46.0280   28.2100 C.2   211  GLU211      0.2592
     94  O         39.7810   46.0710   29.1140 O.2   211  GLU211     -0.2718
     95  CB        38.1080   44.2410   26.5700 C.3   211  GLU211      0.0402
     96  CG        37.9460   43.1610   27.6270 C.3   211  GLU211      0.1161
     97  CD        37.0320   42.0430   27.2150 C.2   211  GLU211      0.3649
     98  OE1       36.3350   42.1400   26.1780 O.co2 211  GLU211     -0.2457
     99  OE2       36.9930   41.0140   27.9310 O.co2 211  GLU211     -0.2457
    100  N         37.7870   46.6750   28.2770 N.am  212  GLY212     -0.1957
    101  CA        37.3510   47.3650   29.4640 C.3   212  GLY212      0.1869
    102  C         36.1480   46.7500   30.1110 C.2   212  GLY212      0.2309
    103  O         35.7400   45.6370   29.7990 O.2   212  GLY212     -0.2863
    104  N         32.9520   46.2260   30.0330 N.3   214  GLY214     -0.1210
    105  CA        31.7840   46.1410   29.1670 C.3   214  GLY214      0.1956
    106  C         31.9550   46.6880   27.7710 C.2   214  GLY214      0.2612
    107  O         30.9610   47.0850   27.1540 O.2   214  GLY214     -0.2717
    108  N         33.1970   46.7650   27.2740 N.am  215  PHE215     -0.1962
    109  CA        33.4280   47.2920   25.9230 C.3   215  PHE215      0.1771
    110  C         34.7550   46.7800   25.4050 C.2   215  PHE215      0.2619
    111  O         35.6690   46.4690   26.1900 O.2   215  PHE215     -0.2715
    112  CB        33.3990   48.8380   25.9370 C.3   215  PHE215      0.0574
    113  CG        34.3710   49.4700   26.9240 C.ar  215  PHE215     -0.0200
    114  CD1       35.6920   49.6420   26.6050 C.ar  215  PHE215     -0.0042
    115  CD2       33.9280   49.8640   28.1640 C.ar  215  PHE215     -0.0042
    116  CE1       36.5680   50.1810   27.5190 C.ar  215  PHE215     -0.0003
    117  CE2       34.7970   50.4280   29.0900 C.ar  215  PHE215     -0.0003
    118  CZ        36.1410   50.5770   28.7700 C.ar  215  PHE215     -0.0000
    119  N         34.8680   46.7390   24.0780 N.am  216  ASN216     -0.1972
    120  CA        36.1580   46.5160   23.4290 C.3   216  ASN216      0.1688
    121  C         36.8470   47.8700   23.1870 C.2   216  ASN216      0.2292
    122  O         36.2020   48.9260   23.1810 O.2   216  ASN216     -0.2864
    123  CB        35.9970   45.7860   22.0980 C.3   216  ASN216      0.1181
    124  CG        35.5200   44.3350   22.2590 C.2   216  ASN216      0.2629
    125  OD1       34.4240   43.9730   21.8230 O.2   216  ASN216     -0.2716
    126  ND2       36.3580   43.4770   22.8180 N.am  216  ASN216     -0.0877
    127  N         36.2960   39.6460   24.7020 N.3   233  LEU233     -0.1245
    128  CA        35.0890   39.1970   24.0300 C.3   233  LEU233      0.1561
    129  C         35.1790   39.5260   22.5400 C.2   233  LEU233      0.2260
    130  O         35.6300   40.6220   22.1800 O.2   233  LEU233     -0.2867
    131  CB        33.8560   39.8780   24.6170 C.3   233  LEU233      0.0270
    132  CG        32.5180   39.3010   24.2220 C.3   233  LEU233      0.0019
    133  CD1       32.2900   37.9380   24.8680 C.3   233  LEU233      0.0001
    134  CD2       31.4010   40.2720   24.5320 C.3   233  LEU233      0.0001
    135  N         33.3580   41.0380   20.3450 N.3   235  GLY235     -0.1210
    136  CA        32.1640   41.8610   20.3720 C.3   235  GLY235      0.1956
    137  C         31.4550   41.9140   19.0430 C.2   235  GLY235      0.2612
    138  O         32.0720   41.9240   17.9730 O.2   235  GLY235     -0.2717
    139  N         30.1130   41.9850   19.1110 N.am  236  ILE236     -0.1965
    140  CA        29.3570   42.1760   17.8730 C.3   236  ILE236      0.1727
    141  C         29.3750   43.6450   17.4240 C.2   236  ILE236      0.2617
    142  O         29.2720   43.9320   16.2240 O.2   236  ILE236     -0.2715
    143  CB        27.9850   41.4540   17.9950 C.3   236  ILE236      0.0290
    144  CG1       28.2130   39.9320   17.9300 C.3   236  ILE236      0.0022
    145  CG2       26.9890   41.9430   16.9300 C.3   236  ILE236      0.0023
    146  CD1       27.0840   39.0800   18.5060 C.3   236  ILE236      0.0001
    147  N         29.5930   44.5840   18.3610 N.am  237  THR237     -0.1937
    148  CA        29.8500   45.9490   17.9340 C.3   237  THR237      0.2028
    149  C         31.2020   45.9970   17.2170 C.2   237  THR237      0.2642
    150  O         31.3080   46.5890   16.1330 O.2   237  THR237     -0.2714
    151  CB        29.7820   46.9540   19.1140 C.3   237  THR237      0.1808
    152  OG1       28.6760   46.6600   19.9370 O.3   237  THR237     -0.2208
    153  CG2       29.6750   48.3600   18.5950 C.3   237  THR237      0.0379
    154  N         32.2140   45.3250   17.7690 N.am  238  ARG238     -0.1977
    155  CA        33.5070   45.2270   17.0960 C.3   238  ARG238      0.1597
    156  C         33.3850   44.5880   15.7120 C.2   238  ARG238      0.2287
    157  O         34.0280   45.0330   14.7450 O.2   238  ARG238     -0.2864
    158  CB        34.4650   44.4320   17.9890 C.3   238  ARG238      0.0334
    159  CG        35.9020   44.4150   17.4830 C.3   238  ARG238      0.0492
    160  CD        36.8080   43.5700   18.3280 C.3   238  ARG238      0.2205
    161  NE        36.5950   42.1460   18.0360 N.pl3 238  ARG238     -0.0865
    162  CZ        37.4100   41.1750   18.3920 C.cat 238  ARG238      0.5346
    163  NH1       38.4120   41.4250   19.2160 N.pl3 238  ARG238      0.1354
    164  NH2       37.1840   39.9520   17.9900 N.pl3 238  ARG238      0.1354
    165  N         33.8330   50.2870   21.9850 N.3   271  CYS271     -0.1221
    166  CA        32.6140   49.8310   21.3010 C.3   271  CYS271      0.1808
    167  C         31.9170   48.7420   22.1030 C.2   271  CYS271      0.2602
    168  O         32.5470   47.8580   22.6960 O.2   271  CYS271     -0.2717
    169  CB        32.9310   49.4170   19.8500 C.3   271  CYS271      0.0970
    170  SG        34.1020   48.0600   19.6400 S.3   271  CYS271     -0.0800
    171  N         30.5720   48.8370   22.0960 N.am  272  THR272     -0.1939
    172  CA        29.7470   47.8440   22.8000 C.3   272  THR272      0.2028
    173  C         28.2860   48.0400   22.4150 C.2   272  THR272      0.2642
    174  O         27.8850   49.1100   21.9400 O.2   272  THR272     -0.2714
    175  CB        29.9510   47.8650   24.3580 C.3   272  THR272      0.1808
    176  OG1       29.6100   46.6060   24.9260 O.3   272  THR272     -0.2208
    177  CG2       29.1950   48.9960   25.0550 C.3   272  THR272      0.0379
    178  N         27.4720   47.0130   22.6870 N.am  273  THR273     -0.1950
    179  CA        26.0560   47.1220   22.3840 C.3   273  THR273      0.1897
    180  C         25.3640   48.2070   23.1950 C.2   273  THR273      0.2313
    181  O         24.4740   48.9080   22.6590 O.2   273  THR273     -0.2863
    182  CB        25.3890   45.7430   22.5500 C.3   273  THR273      0.1794
    183  OG1       25.9780   44.8080   21.6620 O.3   273  THR273     -0.2208
    184  CG2       23.8750   45.7740   22.3170 C.3   273  THR273      0.0378
@<TRIPOS>BOND
     1   157   156    2
     2   156   155    1
     3   150   149    2
     4   142   141    2
     5   145   143    1
     6   155   154    1
     7   155   158    1
     8   149   154   am
     9   149   148    1
    10   141   140    1
    11   141   147   am
    12   159   158    1
    13   159   160    1
    14   140   143    1
    15   140   139    1
    16   144   143    1
    17   144   146    1
    18   148   147    1
    19   148   151    1
    20    20    21    1
    21   138   137    2
    22   164   162    1
    23   161   160    1
    24   161   162    2
    25   162   163    1
    26   153   151    1
    27   137   139   am
    28   137   136    1
    29   151   152    1
    30    27    29   ar
    31    27    25   ar
    32    30    31    1
    33    21    22    1
    34    21    24    1
    35    29    28   ar
    36   170   169    1
    37   169   166    1
    38    22    23    2
    39    25    24    1
    40    25    26   ar
    41    31    34    1
    42    31    32    1
    43   135   136    1
    44    34    35    1
    45    28    26   ar
    46   166   165    1
    47   166   167    1
    48    35    36    1
    49    36    37    1
    50    39    38    1
    51    32    33    2
    52   183   182    1
    53   125   124    2
    54   174   173    2
    55    37    38    2
    56    38    40    1
    57   171   167   am
    58   171   172    1
    59   123   124    1
    60   123   120    1
    61   167   168    2
    62   130   129    2
    63   124   126   am
    64   184   182    1
    65   179   182    1
    66   179   178    1
    67   179   180    1
    68   173   178   am
    69   173   172    1
    70   129   128    1
    71   181   180    2
    72   172   175    1
    73    16    15    2
    74   122   121    2
    75   121   120    1
    76   120   119    1
    77    15    14    1
    78   128   131    1
    79   128   127    1
    80   119   110   am
    81   132   134    1
    82   132   131    1
    83   132   133    1
    84   175   176    1
    85   175   177    1
    86    14    13    1
    87    14    17    1
    88   110   109    1
    89   110   111    2
    90    18    17    1
    91   109   112    1
    92   109   108    1
    93   112   113    1
    94    17    19    1
    95    98    97   ar
    96    58    59    1
    97    58    57    1
    98    95    92    1
    99    95    96    1
   100   114   113   ar
   101   114   116   ar
   102    59    60    1
   103    92    91    1
   104    92    93    1
   105   113   115   ar
   106    56    57    2
   107    56    53    1
   108    52    53    1
   109   107   106    2
   110    97    96    1
   111    97    99   ar
   112     4     3    2
   113   108   106   am
   114   116   118   ar
   115     3     2    1
   116   106   105    1
   117    53    54    1
   118   115   117   ar
   119    93   100   am
   120    93    94    2
   121   100   101    1
   122   118   117   ar
   123     2     1    1
   124     2     5    1
   125   105   104    1
   126    54    55    2
   127    54    61   am
   128   101   102    1
   129   103   102    2
   130    10     8   ar
   131    10    11   ar
   132     8     6   ar
   133     6     5    1
   134     6     7   ar
   135    11    12    1
   136    11     9   ar
   137    61    62    1
   138     7     9   ar
   139    51    49    1
   140    48    47    1
   141    48    49    2
   142    46    47    1
   143    46    45    1
   144    49    50    1
   145    68    66   am
   146    45    42    1
   147    62    65    1
   148    62    63    1
   149    65    66    1
   150    80    82   ar
   151    80    78   ar
   152    64    63    2
   153    66    67    2
   154    89    88    1
   155    82    81   ar
   156    90    88    1
   157    42    41    1
   158    42    43    1
   159    77    78   ar
   160    77    75   ar
   161    78    76   ar
   162    44    43    2
   163    88    87    1
   164    81    79   ar
   165    75    74   ar
   166    76    79   ar
   167    76    74   ar
   168    87    84    1
   169    74    73    1
   170    84    83    1
   171    84    85    1
   172    86    85    2
   173    73    70    1
   174    70    69    1
   175    70    71    1
   176    71    72    2
