@<TRIPOS>MOLECULE
tmp/4chyA00.pdb
 89 86 0 0 0
SMALL
GASTEIGER

@<TRIPOS>ATOM
      1  N        -10.7280   24.1630   -3.6440 N.3    27  TYR27      -0.1241
      2  CA       -11.8150   24.4790   -2.7040 C.3    27  TYR27       0.1605
      3  C        -11.8940   25.9820   -2.4910 C.2    27  TYR27       0.2264
      4  O        -10.8630   26.6470   -2.3890 O.2    27  TYR27      -0.2867
      5  CB       -11.5740   23.7640   -1.3750 C.3    27  TYR27       0.0534
      6  CG       -12.5060   24.1020   -0.2270 C.ar   27  TYR27      -0.0201
      7  CD1      -12.2680   25.2160    0.5840 C.ar   27  TYR27      -0.0009
      8  CD2      -13.5790   23.2700    0.1010 C.ar   27  TYR27      -0.0009
      9  CE1      -13.0840   25.5090    1.6580 C.ar   27  TYR27       0.0417
     10  CE2      -14.4020   23.5530    1.1850 C.ar   27  TYR27       0.0417
     11  CZ       -14.1490   24.6700    1.9570 C.ar   27  TYR27       0.1957
     12  OH       -14.9440   24.9530    3.0330 O.3    27  TYR27      -0.2866
     13  N        -10.1070   27.1770    8.5680 N.3    52  TRP52      -0.1241
     14  CA        -9.1280   26.3140    7.9030 C.3    52  TRP52       0.1605
     15  C         -7.7230   26.7690    8.3000 C.2    52  TRP52       0.2264
     16  O         -7.5340   27.9250    8.6510 O.2    52  TRP52      -0.2867
     17  CB        -9.2690   26.4030    6.3800 C.3    52  TRP52       0.0550
     18  CG       -10.5150   25.7770    5.8400 C.ar   52  TRP52       0.0003
     19  CD1      -11.6540   26.4210    5.4560 C.ar   52  TRP52       0.0946
     20  CD2      -10.7550   24.3800    5.6270 C.ar   52  TRP52       0.0152
     21  NE1      -12.5870   25.5190    5.0220 N.ar   52  TRP52      -0.2442
     22  CE2      -12.0630   24.2570    5.1110 C.ar   52  TRP52       0.0810
     23  CE3       -9.9950   23.2230    5.8220 C.ar   52  TRP52       0.0012
     24  CZ2      -12.6300   23.0240    4.7890 C.ar   52  TRP52       0.0191
     25  CZ3      -10.5610   21.9950    5.5000 C.ar   52  TRP52       0.0001
     26  CH2      -11.8650   21.9080    4.9870 C.ar   52  TRP52       0.0015
     27  N        -17.7910   23.2770   -4.6540 N.3   128  ASN128     -0.1225
     28  CA       -17.0130   22.4460   -3.7360 C.3   128  ASN128      0.1785
     29  C        -17.4280   20.9760   -3.7390 C.2   128  ASN128      0.2597
     30  O        -16.6550   20.1240   -3.3190 O.2   128  ASN128     -0.2718
     31  CB       -17.0770   22.9930   -2.3080 C.3   128  ASN128      0.1169
     32  CG       -16.2720   24.2750   -2.1320 C.2   128  ASN128      0.2627
     33  OD1      -15.3450   24.5590   -2.9000 O.2   128  ASN128     -0.2716
     34  ND2      -16.6020   25.0390   -1.0970 N.am  128  ASN128     -0.0877
     35  N        -18.6510   20.7040   -4.1910 N.am  129  HIS129     -0.1975
     36  CA       -19.1980   19.3430   -4.2490 C.3   129  HIS129      0.1656
     37  C        -19.0030   18.6760   -5.6160 C.2   129  HIS129      0.2291
     38  O        -19.1280   17.4560   -5.7250 O.2   129  HIS129     -0.2864
     39  CB       -20.6940   19.3550   -3.9430 C.3   129  HIS129      0.0771
     40  CG       -21.0190   19.4950   -2.4930 C.ar  129  HIS129      0.0820
     41  ND1      -21.1100   20.7160   -1.8640 N.ar  129  HIS129     -0.2267
     42  CD2      -21.3100   18.5640   -1.5550 C.ar  129  HIS129      0.1154
     43  CE1      -21.4220   20.5300   -0.5950 C.ar  129  HIS129      0.1986
     44  NE2      -21.5480   19.2330   -0.3810 N.ar  129  HIS129     -0.2212
     45  N        -17.9320   16.7560   -8.7190 N.3   131  ARG131     -0.1245
     46  CA       -16.9720   15.6800   -8.9590 C.3   131  ARG131      0.1563
     47  C        -16.2550   15.9090  -10.2930 C.2   131  ARG131      0.2260
     48  O        -16.8980   16.1730  -11.3110 O.2   131  ARG131     -0.2867
     49  CB       -17.6720   14.3180   -8.9460 C.3   131  ARG131      0.0307
     50  CG       -18.9340   14.2560   -8.1030 C.3   131  ARG131      0.0489
     51  CD       -19.1120   12.9460   -7.3310 C.3   131  ARG131      0.2205
     52  NE       -19.0900   13.1780   -5.8890 N.pl3 131  ARG131     -0.0865
     53  CZ       -18.2380   12.6500   -5.0070 C.cat 131  ARG131      0.5346
     54  NH1      -17.2780   11.8020   -5.3690 N.pl3 131  ARG131      0.1354
     55  NH2      -18.3600   12.9720   -3.7260 N.pl3 131  ARG131      0.1354
     56  N        -14.0680   15.4860   -5.4280 N.3   134  SER134     -0.1217
     57  CA       -14.5370   16.8730   -5.3130 C.3   134  SER134      0.1889
     58  C        -13.4800   17.7290   -4.6280 C.2   134  SER134      0.2288
     59  O        -12.5840   17.2130   -3.9580 O.2   134  SER134     -0.2866
     60  CB       -15.8390   16.9480   -4.5200 C.3   134  SER134      0.2089
     61  OG       -15.6030   16.6990   -3.1450 O.3   134  SER134     -0.2183
     62  N        -13.9380   19.6200   -2.0700 N.3   136  GLY136     -0.1210
     63  CA       -14.1210   19.3550   -0.6430 C.3   136  GLY136      0.1956
     64  C        -13.3620   18.1320   -0.1620 C.2   136  GLY136      0.2611
     65  O        -12.7490   18.1470    0.9030 O.2   136  GLY136     -0.2717
     66  N        -13.4110   17.0640   -0.9520 N.am  137  GLU137     -0.1979
     67  CA       -12.6690   15.8460   -0.6450 C.3   137  GLU137      0.1602
     68  C        -11.1630   16.0950   -0.6810 C.2   137  GLU137      0.2287
     69  O        -10.4330   15.6390    0.2010 O.2   137  GLU137     -0.2864
     70  CB       -13.0390   14.7400   -1.6360 C.3   137  GLU137      0.0415
     71  CG       -12.6120   13.3490   -1.1990 C.3   137  GLU137      0.1163
     72  CD       -13.1690   12.2500   -2.0890 C.2   137  GLU137      0.3649
     73  OE1      -14.0650   12.5320   -2.9180 O.co2 137  GLU137     -0.2457
     74  OE2      -12.6940   11.1000   -1.9700 O.co2 137  GLU137     -0.2457
     75  N         -9.3520   18.9720   -0.3340 N.3   139  ILE139     -0.1231
     76  CA        -8.7990   19.8160    0.7360 C.3   139  ILE139      0.1692
     77  C         -8.6760   19.0410    2.0550 C.2   139  ILE139      0.2591
     78  O         -7.6630   19.1420    2.7470 O.2   139  ILE139     -0.2718
     79  CB        -9.5640   21.1630    0.9210 C.3   139  ILE139      0.0266
     80  CG1       -8.8040   22.0610    1.8990 C.3   139  ILE139      0.0019
     81  CG2      -11.0020   20.9480    1.3800 C.3   139  ILE139      0.0020
     82  CD1       -9.3510   23.4680    2.0270 C.3   139  ILE139      0.0001
     83  N         -9.6870   18.2480    2.3890 N.am  140  VAL140     -0.1980
     84  CA        -9.6500   17.4510    3.6130 C.3   140  VAL140      0.1595
     85  C         -8.4970   16.4360    3.5620 C.2   140  VAL140      0.2287
     86  O         -7.7240   16.3220    4.5140 O.2   140  VAL140     -0.2864
     87  CB       -10.9940   16.7370    3.8630 C.3   140  VAL140      0.0276
     88  CG1      -10.8710   15.7180    4.9860 C.3   140  VAL140      0.0022
     89  CG2      -12.0730   17.7550    4.2080 C.3   140  VAL140      0.0022
@<TRIPOS>BOND
     1    48    47    2
     2    47    46    1
     3    46    49    1
     4    46    45    1
     5    49    50    1
     6    50    51    1
     7    51    52    1
     8    52    53    2
     9    38    37    2
    10    37    36    1
    11    56    57    1
    12    54    53    1
    13    57    58    1
    14    57    60    1
    15    53    55    1
    16    27    28    1
    17    58    59    2
    18    60    61    1
    19    36    35    1
    20    36    39    1
    21    35    29   am
    22    39    40    1
    23    29    28    1
    24    29    30    2
    25    28    31    1
    26     1     2    1
    27    73    72   ar
    28    33    32    2
    29     2     3    1
    30     2     5    1
    31    40    41   ar
    32    40    42   ar
    33     3     4    2
    34    31    32    1
    35    32    34   am
    36    72    74   ar
    37    72    71    1
    38    62    63    1
    39    41    43   ar
    40    70    71    1
    41    70    67    1
    42    42    44   ar
    43     5     6    1
    44    66    67    1
    45    66    64   am
    46    68    67    1
    47    68    69    2
    48    63    64    1
    49    43    44   ar
    50    75    76    1
    51     6     8   ar
    52     6     7   ar
    53    64    65    2
    54     8    10   ar
    55     7     9   ar
    56    76    79    1
    57    76    77    1
    58    79    81    1
    59    79    80    1
    60    10    11   ar
    61     9    11   ar
    62    80    82    1
    63    11    12    1
    64    77    83   am
    65    77    78    2
    66    83    84    1
    67    85    84    1
    68    85    86    2
    69    84    87    1
    70    87    89    1
    71    87    88    1
    72    24    26   ar
    73    24    22   ar
    74    26    25   ar
    75    21    22   ar
    76    21    19   ar
    77    22    20   ar
    78    19    18   ar
    79    25    23   ar
    80    20    23   ar
    81    20    18   ar
    82    18    17    1
    83    17    14    1
    84    14    15    1
    85    14    13    1
    86    15    16    2
