@<TRIPOS>MOLECULE
tmp/4chyA03.pdb
 85 84 0 0 0
SMALL
GASTEIGER

@<TRIPOS>ATOM
      1  N         -0.2860   22.5890    1.7760 N.2     2  PRO2       -0.2571
      2  CA        -1.6060   22.5380    2.4040 C.3     2  PRO2        0.2026
      3  C         -2.1300   23.8640    2.9650 C.2     2  PRO2        0.2684
      4  O         -3.3410   24.0280    3.0650 O.2     2  PRO2       -0.2709
      5  CB        -1.4420   21.5280    3.5460 C.2     2  PRO2        0.0085
      6  CG        -0.0530   21.0160    3.4940 C.2     2  PRO2        0.0180
      7  CD         0.6840   21.6470    2.3690 C.2     2  PRO2        0.0938
      8  N         -1.2410   24.7830    3.3390 N.am    3  GLY3       -0.1950
      9  CA        -1.6530   26.0430    3.9720 C.3     3  GLY3        0.1869
     10  C         -1.7640   27.2610    3.0650 C.2     3  GLY3        0.2309
     11  O         -1.9520   28.3700    3.5570 O.2     3  GLY3       -0.2863
     12  N         -9.3860   31.9950    8.2840 N.3    49  ALA49      -0.1231
     13  CA        -8.3130   31.4120    9.1010 C.3    49  ALA49       0.1694
     14  C         -8.8230   30.7680   10.3970 C.2    49  ALA49       0.2593
     15  O         -8.1370   29.9360   10.9910 O.2    49  ALA49      -0.2718
     16  CB        -7.2570   32.4610    9.4140 C.3    49  ALA49       0.0304
     17  N        -10.0220   31.1550   10.8290 N.am   50  GLY50      -0.1942
     18  CA       -10.6730   30.5120   11.9640 C.3    50  GLY50       0.2014
     19  C        -11.2470   29.1600   11.6010 C.2    50  GLY50       0.2639
     20  O        -11.4820   28.3250   12.4660 O.2    50  GLY50      -0.2714
     21  N        -11.4400   28.9380   10.3070 N.am   51  ARG51      -0.1963
     22  CA       -12.1320   27.7660    9.7990 C.3    51  ARG51       0.1729
     23  C        -11.2220   26.7250    9.1430 C.2    51  ARG51       0.2616
     24  O        -11.5510   25.5330    9.1450 O.2    51  ARG51      -0.2715
     25  CB       -13.2260   28.2210    8.8180 C.3    51  ARG51       0.0348
     26  CG       -14.3700   28.9230    9.5390 C.3    51  ARG51       0.0492
     27  CD       -15.2100   29.8400    8.6660 C.3    51  ARG51       0.2205
     28  NE       -16.3530   30.3760    9.4150 N.pl3  51  ARG51      -0.0865
     29  CZ       -16.2890   31.3040   10.3750 C.cat  51  ARG51       0.5346
     30  NH1      -15.1260   31.8240   10.7570 N.pl3  51  ARG51       0.1354
     31  NH2      -17.4070   31.7110   10.9750 N.pl3  51  ARG51       0.1354
     32  N        -10.1070   27.1770    8.5680 N.am   52  TRP52      -0.1960
     33  CA        -9.1280   26.3140    7.9030 C.3    52  TRP52       0.1756
     34  C         -7.7230   26.7690    8.3000 C.2    52  TRP52       0.2461
     35  O         -7.5340   27.9250    8.6510 O.2    52  TRP52      -0.2730
     36  CB        -9.2690   26.4030    6.3800 C.3    52  TRP52       0.0590
     37  CG       -10.5150   25.7770    5.8400 C.ar   52  TRP52       0.0006
     38  CD1      -11.6540   26.4210    5.4560 C.ar   52  TRP52       0.0946
     39  CD2      -10.7550   24.3800    5.6270 C.ar   52  TRP52       0.0152
     40  NE1      -12.5870   25.5190    5.0220 N.ar   52  TRP52      -0.2442
     41  CE2      -12.0630   24.2570    5.1110 C.ar   52  TRP52       0.0810
     42  CE3       -9.9950   23.2230    5.8220 C.ar   52  TRP52       0.0012
     43  CZ2      -12.6300   23.0240    4.7890 C.ar   52  TRP52       0.0191
     44  CZ3      -10.5610   21.9950    5.5000 C.ar   52  TRP52       0.0001
     45  CH2      -11.8650   21.9080    4.9870 C.ar   52  TRP52       0.0015
     46  N         -6.7280   25.8680    8.2150 N.am   53  PRO53      -0.2727
     47  CA        -5.3690   26.2400    8.6290 C.3    53  PRO53       0.1402
     48  C         -4.6430   27.0690    7.5710 C.2    53  PRO53       0.2269
     49  O         -3.8740   26.5240    6.7760 O.2    53  PRO53      -0.2865
     50  CB        -4.6890   24.8800    8.8370 C.3    53  PRO53       0.0296
     51  CG        -5.3900   23.9630    7.9060 C.3    53  PRO53       0.0237
     52  CD        -6.7990   24.4750    7.7380 C.3    53  PRO53       0.0939
     53  N         -1.9380   29.3420    6.2780 N.3    55  LYS55      -0.1245
     54  CA        -0.5510   29.6880    6.5840 C.3    55  LYS55       0.1561
     55  C         -0.0750   30.8600    5.7340 C.2    55  LYS55       0.2260
     56  O          0.6220   31.7530    6.2150 O.2    55  LYS55      -0.2867
     57  CB         0.3380   28.4660    6.3360 C.3    55  LYS55       0.0271
     58  CG         1.8210   28.6650    6.6070 C.3    55  LYS55       0.0035
     59  CD         2.6410   27.5970    5.8980 C.3    55  LYS55       0.0206
     60  CE         4.0990   27.6470    6.3090 C.3    55  LYS55       0.1093
     61  NZ         4.9890   27.2230    5.1950 N.3    55  LYS55      -0.1314
     62  N         -5.0310   18.2530    3.8390 N.3   143  ILE143     -0.1245
     63  CA        -4.7480   18.7370    5.1920 C.3   143  ILE143      0.1561
     64  C         -4.5520   17.5730    6.1720 C.2   143  ILE143      0.2260
     65  O         -3.6710   17.6320    7.0280 O.2   143  ILE143     -0.2867
     66  CB        -5.8280   19.7300    5.6790 C.3   143  ILE143      0.0252
     67  CG1       -5.7750   20.9950    4.8180 C.3   143  ILE143      0.0019
     68  CG2       -5.6190   20.1000    7.1420 C.3   143  ILE143      0.0019
     69  CD1       -6.9630   21.9120    4.9850 C.3   143  ILE143      0.0001
     70  N         -1.1370   16.1070    5.7550 N.3   146  ASP146     -0.1225
     71  CA        -0.1680   17.0080    6.3790 C.3   146  ASP146      0.1805
     72  C         -0.1240   16.8380    7.8990 C.2   146  ASP146      0.2597
     73  O          0.9600   16.8310    8.4920 O.2   146  ASP146     -0.2718
     74  CB        -0.4860   18.4670    6.0440 C.3   146  ASP146      0.1424
     75  CG         0.6230   19.4140    6.4690 C.2   146  ASP146      0.3668
     76  OD1        1.7530   19.2850    5.9520 O.co2 146  ASP146     -0.2456
     77  OD2        0.3680   20.2870    7.3210 O.co2 146  ASP146     -0.2456
     78  N         -1.2970   16.7070    8.5190 N.am  147  ILE147     -0.1980
     79  CA        -1.3930   16.5200    9.9730 C.3   147  ILE147      0.1595
     80  C         -0.6560   15.2500   10.3900 C.2   147  ILE147      0.2287
     81  O          0.1730   15.2830   11.2980 O.2   147  ILE147     -0.2864
     82  CB        -2.8600   16.4590   10.4580 C.3   147  ILE147      0.0276
     83  CG1       -3.5340   17.8260   10.2880 C.3   147  ILE147      0.0022
     84  CG2       -2.9350   16.0520   11.9270 C.3   147  ILE147      0.0022
     85  CD1       -5.0470   17.7680   10.2940 C.3   147  ILE147      0.0001
@<TRIPOS>BOND
     1     1     7    2
     2     1     2    1
     3     7     6    1
     4     2     3    1
     5     2     5    1
     6     3     4    2
     7     3     8   am
     8    10    11    2
     9    10     9    1
    10     8     9    1
    11     6     5    2
    12    62    63    1
    13    43    45   ar
    14    43    41   ar
    15    67    69    1
    16    67    66    1
    17    45    44   ar
    18    40    41   ar
    19    40    38   ar
    20    41    39   ar
    21    63    66    1
    22    63    64    1
    23    61    60    1
    24    38    37   ar
    25    44    42   ar
    26    39    42   ar
    27    39    37   ar
    28    66    68    1
    29    55    56    2
    30    55    54    1
    31    70    71    1
    32    37    36    1
    33    59    60    1
    34    59    58    1
    35    76    75   ar
    36    74    71    1
    37    74    75    1
    38    64    65    2
    39    53    54    1
    40    57    54    1
    41    57    58    1
    42    71    72    1
    43    36    33    1
    44    75    77   ar
    45    49    48    2
    46    48    47    1
    47    52    51    1
    48    52    46    1
    49    72    73    2
    50    72    78   am
    51    33    34    1
    52    33    32    1
    53    51    50    1
    54    46    34   am
    55    46    47    1
    56    12    13    1
    57    34    35    2
    58    78    79    1
    59    32    23   am
    60    47    50    1
    61    27    28    1
    62    27    26    1
    63    25    26    1
    64    25    22    1
    65    13    16    1
    66    13    14    1
    67    23    24    2
    68    23    22    1
    69    28    29    2
    70    22    21    1
    71    79    80    1
    72    79    82    1
    73    83    85    1
    74    83    82    1
    75    21    19   am
    76    29    30    1
    77    29    31    1
    78    80    81    2
    79    14    17   am
    80    14    15    2
    81    82    84    1
    82    17    18    1
    83    19    18    1
    84    19    20    2
