@<TRIPOS>MOLECULE
tmp/4chzA00.pdb
 105 97 0 0 0
SMALL
GASTEIGER

@<TRIPOS>ATOM
      1  N         -4.0950   12.9700   -1.4420 N.3    22  VAL22      -0.1245
      2  CA        -5.3410   13.4320   -2.0410 C.3    22  VAL22       0.1561
      3  C         -6.5330   12.8240   -1.3260 C.2    22  VAL22       0.2260
      4  O         -6.5970   11.6070   -1.1530 O.2    22  VAL22      -0.2867
      5  CB        -5.4330   12.9850   -3.5140 C.3    22  VAL22       0.0252
      6  CG1       -6.6520   13.5900   -4.1940 C.3    22  VAL22       0.0019
      7  CG2       -4.1610   13.3380   -4.2490 C.3    22  VAL22       0.0019
      8  N         -9.8080   11.5360   -1.8520 N.3    24  VAL24      -0.1231
      9  CA       -10.2910   11.0240   -3.1330 C.3    24  VAL24       0.1692
     10  C        -11.6480   11.6070   -3.5410 C.2    24  VAL24       0.2592
     11  O        -11.8440   11.9830   -4.6980 O.2    24  VAL24      -0.2718
     12  CB       -10.3690    9.4790   -3.1150 C.3    24  VAL24       0.0266
     13  CG1      -10.8770    8.9430   -4.4490 C.3    24  VAL24       0.0020
     14  CG2       -9.0050    8.8740   -2.7880 C.3    24  VAL24       0.0020
     15  N        -12.5660   11.6930   -2.5870 N.am   25  ALA25      -0.1966
     16  CA       -13.9310   12.1690   -2.8560 C.3    25  ALA25       0.1728
     17  C        -14.0350   13.6640   -3.2070 C.2    25  ALA25       0.2617
     18  O        -14.9600   14.0620   -3.9240 O.2    25  ALA25      -0.2715
     19  CB       -14.8400   11.8450   -1.6830 C.3    25  ALA25       0.0334
     20  N        -13.1010   14.4820   -2.7130 N.am   26  SER26      -0.1936
     21  CA       -13.1430   15.9410   -2.9060 C.3    26  SER26       0.2055
     22  C        -12.0980   16.5090   -3.8720 C.2    26  SER26       0.2643
     23  O        -12.3210   17.5580   -4.4860 O.2    26  SER26      -0.2714
     24  CB       -12.9640   16.6430   -1.5610 C.3    26  SER26       0.2130
     25  OG       -11.6700   16.3900   -1.0300 O.3    26  SER26      -0.2179
     26  N        -10.9510   15.8480   -3.9760 N.am   27  GLY27      -0.1954
     27  CA        -9.8090   16.3810   -4.7100 C.3    27  GLY27       0.1869
     28  C         -8.9240   17.2990   -3.8780 C.2    27  GLY27       0.2309
     29  O         -7.9500   17.8640   -4.3950 O.2    27  GLY27      -0.2863
     30  N         -6.0560   18.4410   -1.3790 N.3    29  ILE29      -0.1245
     31  CA        -4.7060   17.9060   -1.1860 C.3    29  ILE29       0.1561
     32  C         -3.9200   18.5630   -0.0540 C.2    29  ILE29       0.2260
     33  O         -4.1700   19.7080    0.3300 O.2    29  ILE29      -0.2867
     34  CB        -3.8560   17.9800   -2.4770 C.3    29  ILE29       0.0252
     35  CG1       -3.4920   19.4310   -2.8430 C.3    29  ILE29       0.0019
     36  CG2       -4.5610   17.2690   -3.6220 C.3    29  ILE29       0.0019
     37  CD1       -2.4870   19.5450   -3.9780 C.3    29  ILE29       0.0001
     38  N         -6.3740   10.1300  -13.4030 N.3    95  VAL95      -0.1245
     39  CA        -6.7070   11.2030  -12.4640 C.3    95  VAL95       0.1561
     40  C         -5.4590   11.6940  -11.7190 C.2    95  VAL95       0.2260
     41  O         -5.2480   12.9020  -11.6070 O.2    95  VAL95      -0.2867
     42  CB        -7.8110   10.7710  -11.4710 C.3    95  VAL95       0.0252
     43  CG1       -7.9180   11.7420  -10.3020 C.3    95  VAL95       0.0019
     44  CG2       -9.1520   10.6700  -12.1890 C.3    95  VAL95       0.0019
     45  N         -3.0600   13.4570  -14.3110 N.3    98  SER98      -0.1202
     46  CA        -3.6120   14.7880  -14.5570 C.3    98  SER98       0.2020
     47  C         -3.3540   15.7360  -13.3840 C.2    98  SER98       0.2618
     48  O         -3.0360   16.9080  -13.5850 O.2    98  SER98      -0.2717
     49  CB        -5.1220   14.6960  -14.8390 C.3    98  SER98       0.2103
     50  OG        -5.3590   14.1410  -16.1210 O.3    98  SER98      -0.2182
     51  N         -3.4900   15.2240  -12.1650 N.am   99  MET99      -0.1979
     52  CA        -3.2240   16.0220  -10.9680 C.3    99  MET99       0.1605
     53  C         -1.7700   16.4810  -10.9030 C.2    99  MET99       0.2287
     54  O         -1.5000   17.6480  -10.6310 O.2    99  MET99      -0.2864
     55  CB        -3.5550   15.2330   -9.7020 C.3    99  MET99       0.0413
     56  CG        -3.2200   15.9860   -8.4260 C.3    99  MET99       0.0598
     57  SD        -3.6590   15.0650   -6.9520 S.3    99  MET99      -0.1393
     58  CE        -2.2080   14.0250   -6.8410 C.3    99  MET99       0.0692
     59  N         -1.1150   19.1390  -13.4870 N.3   102  GLU102     -0.1231
     60  CA        -1.7150   20.3950  -13.0570 C.3   102  GLU102      0.1699
     61  C         -0.9240   21.0400  -11.9130 C.2   102  GLU102      0.2592
     62  O         -0.7000   22.2540  -11.9510 O.2   102  GLU102     -0.2718
     63  CB        -3.1750   20.1890  -12.6470 C.3   102  GLU102      0.0402
     64  CG        -3.9170   21.4790  -12.3400 C.3   102  GLU102      0.1161
     65  CD        -4.0050   22.3990  -13.5430 C.2   102  GLU102      0.3649
     66  OE1       -4.1030   21.8910  -14.6830 O.co2 102  GLU102     -0.2457
     67  OE2       -3.9760   23.6310  -13.3500 O.co2 102  GLU102     -0.2457
     68  N         -0.5010   20.2500  -10.9130 N.am  103  LEU103     -0.1980
     69  CA         0.2900   20.7970   -9.8080 C.3   103  LEU103      0.1596
     70  C          1.5990   21.4020  -10.3150 C.2   103  LEU103      0.2287
     71  O          1.9790   22.4910   -9.8980 O.2   103  LEU103     -0.2864
     72  CB         0.5600   19.7280   -8.7500 C.3   103  LEU103      0.0297
     73  CG        -0.5760   19.4330   -7.7710 C.3   103  LEU103      0.0022
     74  CD1       -0.1360   18.3800   -6.7660 C.3   103  LEU103      0.0001
     75  CD2       -1.0440   20.6940   -7.0490 C.3   103  LEU103      0.0001
     76  N         -4.7310   25.2250   -5.6980 N.3   128  HIS128     -0.1241
     77  CA        -5.5360   24.0500   -6.0250 C.3   128  HIS128      0.1621
     78  C         -6.7710   23.9000   -5.1340 C.2   128  HIS128      0.2264
     79  O         -7.8740   23.6590   -5.6260 O.2   128  HIS128     -0.2867
     80  CB        -4.7370   22.7510   -5.9350 C.3   128  HIS128      0.0745
     81  CG        -5.6100   21.5470   -6.0510 C.ar  128  HIS128      0.0817
     82  ND1       -6.1300   21.1300   -7.2580 N.ar  128  HIS128     -0.2268
     83  CD2       -6.1570   20.7450   -5.1070 C.ar  128  HIS128      0.1154
     84  CE1       -6.9250   20.0950   -7.0540 C.ar  128  HIS128      0.1986
     85  NE2       -6.9520   19.8370   -5.7590 N.ar  128  HIS128     -0.2212
     86  N        -14.6330   24.9220   -9.3390 N.3   133  LYS133     -0.1245
     87  CA       -14.8630   24.0880  -10.5380 C.3   133  LYS133      0.1561
     88  C        -16.3600   23.9080  -10.7950 C.2   133  LYS133      0.2260
     89  O        -17.0290   23.1120  -10.1330 O.2   133  LYS133     -0.2867
     90  CB       -14.1690   22.7030  -10.4270 C.3   133  LYS133      0.0271
     91  CG       -12.8730   22.5690  -11.2330 C.3   133  LYS133      0.0035
     92  CD       -11.7530   21.7720  -10.5570 C.3   133  LYS133      0.0206
     93  CE       -12.1710   20.3240  -10.2530 C.3   133  LYS133      0.1093
     94  NZ       -12.3580   19.4520  -11.4530 N.3   133  LYS133     -0.1314
     95  N        -15.6270   21.1810   -0.5920 N.3   140  ARG140     -0.1245
     96  CA       -16.1530   19.8220   -0.7470 C.3   140  ARG140      0.1563
     97  C        -15.7150   18.9030    0.3930 C.2   140  ARG140      0.2260
     98  O        -16.5310   18.1450    0.9250 O.2   140  ARG140     -0.2867
     99  CB       -15.7470   19.2260   -2.1020 C.3   140  ARG140      0.0307
    100  CG       -16.3900   19.9190   -3.2980 C.3   140  ARG140      0.0489
    101  CD       -16.2000   19.1470   -4.5990 C.3   140  ARG140      0.2205
    102  NE       -14.8060   19.0870   -5.0550 N.pl3 140  ARG140     -0.0865
    103  CZ       -14.2170   19.9570   -5.8810 C.cat 140  ARG140      0.5346
    104  NH1      -14.8780   21.0080   -6.3670 N.pl3 140  ARG140      0.1354
    105  NH2      -12.9450   19.7720   -6.2270 N.pl3 140  ARG140      0.1354
@<TRIPOS>BOND
     1    50    49    1
     2    49    46    1
     3    66    65   ar
     4    46    45    1
     5    46    47    1
     6    48    47    2
     7    65    67   ar
     8    65    64    1
     9    59    60    1
    10    38    39    1
    11    47    51   am
    12    60    63    1
    13    60    61    1
    14    63    64    1
    15    39    40    1
    16    39    42    1
    17    44    42    1
    18    51    52    1
    19    62    61    2
    20    61    68   am
    21    40    41    2
    22    42    43    1
    23    94    93    1
    24    91    92    1
    25    91    90    1
    26    52    53    1
    27    52    55    1
    28    68    69    1
    29    53    54    2
    30    88    87    1
    31    88    89    2
    32    92    93    1
    33    87    90    1
    34    87    86    1
    35    70    71    2
    36    70    69    1
    37    69    72    1
    38    55    56    1
    39    72    73    1
    40    56    57    1
    41    73    75    1
    42    73    74    1
    43    82    84   ar
    44    82    81   ar
    45    84    85   ar
    46    57    58    1
    47   104   103    1
    48   105   103    1
    49    81    80    1
    50    81    83   ar
    51    77    80    1
    52    77    76    1
    53    77    78    1
    54   103   102    2
    55    85    83   ar
    56    79    78    2
    57   102   101    1
    58    27    26    1
    59    27    28    1
    60    11    10    2
    61   101   100    1
    62    23    22    2
    63    13    12    1
    64    29    28    2
    65     7     5    1
    66     6     5    1
    67    37    35    1
    68    26    22   am
    69    18    17    2
    70    22    21    1
    71    36    34    1
    72    10     9    1
    73    10    15   am
    74     5     2    1
    75   100    99    1
    76    17    16    1
    77    17    20   am
    78     9    12    1
    79     9     8    1
    80    12    14    1
    81    21    20    1
    82    21    24    1
    83    16    15    1
    84    16    19    1
    85    35    34    1
    86    34    31    1
    87    99    96    1
    88     2     1    1
    89     2     3    1
    90    24    25    1
    91    30    31    1
    92     3     4    2
    93    31    32    1
    94    96    95    1
    95    96    97    1
    96    32    33    2
    97    97    98    2
