@<TRIPOS>MOLECULE
tmp/4ci5B00.pdb
 231 217 0 0 0
SMALL
GASTEIGER

@<TRIPOS>ATOM
      1  N         29.4020  -37.1330   34.4700 N.3    20  PHE20      -0.1228
      2  CA        29.6080  -36.1810   35.5480 C.3    20  PHE20       0.1721
      3  C         29.6750  -36.8290   36.9360 C.2    20  PHE20       0.2437
      4  O         28.9570  -37.7890   37.2200 O.2    20  PHE20      -0.2733
      5  CB        28.5880  -35.0560   35.4190 C.3    20  PHE20       0.0547
      6  CG        28.7340  -34.2990   34.1300 C.ar   20  PHE20      -0.0202
      7  CD1       29.8360  -33.4710   33.9380 C.ar   20  PHE20      -0.0042
      8  CD2       27.8150  -34.4440   33.0990 C.ar   20  PHE20      -0.0042
      9  CE1       30.0110  -32.7710   32.7470 C.ar   20  PHE20      -0.0003
     10  CE2       27.9710  -33.7440   31.9040 C.ar   20  PHE20      -0.0003
     11  CZ        29.0740  -32.9080   31.7260 C.ar   20  PHE20      -0.0000
     12  N         30.6090  -36.3430   37.7760 N.am   21  PRO21      -0.2718
     13  CA        30.9350  -37.0210   39.0340 C.3    21  PRO21       0.1535
     14  C         29.8590  -36.8770   40.0940 C.2    21  PRO21       0.2598
     15  O         29.7400  -37.7280   40.9720 O.2    21  PRO21      -0.2715
     16  CB        32.2070  -36.2930   39.5230 C.3    21  PRO21       0.0310
     17  CG        32.4320  -35.1320   38.5870 C.3    21  PRO21       0.0237
     18  CD        31.2640  -35.0270   37.6610 C.3    21  PRO21       0.0939
     19  N         29.0840  -35.8070   39.9970 N.am   22  LEU22      -0.1978
     20  CA        28.1290  -35.4600   41.0360 C.3    22  LEU22       0.1596
     21  C         26.8180  -34.9940   40.4180 C.2    22  LEU22       0.2287
     22  O         26.7790  -33.9360   39.7920 O.2    22  LEU22      -0.2864
     23  CB        28.7420  -34.3740   41.9310 C.3    22  LEU22       0.0297
     24  CG        28.0580  -33.8040   43.1700 C.3    22  LEU22       0.0022
     25  CD1       27.6760  -34.9200   44.1180 C.3    22  LEU22       0.0001
     26  CD2       29.0300  -32.8690   43.8640 C.3    22  LEU22       0.0001
     27  N         39.6410  -21.6440   54.8600 N.3    44  LEU44      -0.1231
     28  CA        40.2860  -21.9780   53.5910 C.3    44  LEU44       0.1693
     29  C         41.6170  -22.6820   53.8490 C.2    44  LEU44       0.2591
     30  O         41.9440  -23.6780   53.1960 O.2    44  LEU44      -0.2718
     31  CB        40.5180  -20.7280   52.7460 C.3    44  LEU44       0.0284
     32  CG        41.3170  -20.9570   51.4560 C.3    44  LEU44       0.0019
     33  CD1       40.5030  -21.7610   50.4570 C.3    44  LEU44       0.0001
     34  CD2       41.7460  -19.6340   50.8440 C.3    44  LEU44       0.0001
     35  N         42.3920  -22.1400   54.7860 N.am   45  MET45      -0.1979
     36  CA        43.6780  -22.7210   55.1550 C.3    45  MET45       0.1605
     37  C         43.5140  -24.1400   55.7030 C.2    45  MET45       0.2287
     38  O         44.2620  -25.0450   55.3300 O.2    45  MET45      -0.2864
     39  CB        44.3980  -21.8320   56.1780 C.3    45  MET45       0.0413
     40  CG        44.8470  -20.4810   55.6350 C.3    45  MET45       0.0598
     41  SD        45.7550  -20.5710   54.0860 S.3    45  MET45      -0.1393
     42  CE        44.9850  -19.2110   53.2200 C.3    45  MET45       0.0692
     43  N         42.4090  -26.5520   52.7980 N.3    48  GLU48      -0.1245
     44  CA        43.5500  -26.9930   52.0130 C.3    48  GLU48       0.1567
     45  C         44.2050  -28.2280   52.6410 C.2    48  GLU48       0.2260
     46  O         44.7310  -29.0880   51.9300 O.2    48  GLU48      -0.2867
     47  CB        44.5610  -25.8530   51.8630 C.3    48  GLU48       0.0388
     48  CG        45.6100  -26.1000   50.7950 C.3    48  GLU48       0.1160
     49  CD        46.6530  -25.0070   50.7370 C.2    48  GLU48       0.3649
     50  OE1       46.3890  -23.9030   51.2570 O.co2  48  GLU48      -0.2457
     51  OE2       47.7390  -25.2580   50.1750 O.co2  48  GLU48      -0.2457
     52  N         43.5230  -30.7990   47.1800 N.3    53  PHE53      -0.1241
     53  CA        43.4250  -29.9440   45.9970 C.3    53  PHE53       0.1605
     54  C         44.5730  -30.2090   45.0200 C.2    53  PHE53       0.2264
     55  O         45.7060  -30.4630   45.4340 O.2    53  PHE53      -0.2867
     56  CB        43.3750  -28.4730   46.3980 C.3    53  PHE53       0.0534
     57  CG        42.0960  -28.0860   47.0850 C.ar   53  PHE53      -0.0203
     58  CD1       40.9450  -27.8390   46.3440 C.ar   53  PHE53      -0.0042
     59  CD2       42.0450  -27.9640   48.4660 C.ar   53  PHE53      -0.0042
     60  CE1       39.7580  -27.4820   46.9760 C.ar   53  PHE53      -0.0003
     61  CE2       40.8640  -27.6010   49.1080 C.ar   53  PHE53      -0.0003
     62  CZ        39.7200  -27.3630   48.3610 C.ar   53  PHE53      -0.0000
     63  N         45.4970  -28.1680   42.3280 N.3    55  HIS55      -0.1226
     64  CA        45.8880  -27.0140   41.5180 C.3    55  HIS55       0.1752
     65  C         46.9310  -26.1080   42.1660 C.2    55  HIS55       0.2595
     66  O         47.2800  -25.0680   41.6100 O.2    55  HIS55      -0.2718
     67  CB        44.6540  -26.1800   41.1910 C.3    55  HIS55       0.0759
     68  CG        44.0120  -25.5750   42.3950 C.ar   55  HIS55       0.0818
     69  ND1       43.1500  -26.2750   43.2080 N.ar   55  HIS55      -0.2268
     70  CD2       44.1190  -24.3340   42.9350 C.ar   55  HIS55       0.1154
     71  CE1       42.7400  -25.4900   44.1920 C.ar   55  HIS55       0.1986
     72  NE2       43.3200  -24.3130   44.0510 N.ar   55  HIS55      -0.2212
     73  N         47.4200  -26.5070   43.3360 N.am   56  ILE56      -0.1980
     74  CA        48.4180  -25.7260   44.0560 C.3    56  ILE56       0.1595
     75  C         49.7620  -25.7450   43.3340 C.2    56  ILE56       0.2287
     76  O         50.4970  -26.7310   43.3950 O.2    56  ILE56      -0.2864
     77  CB        48.6110  -26.2450   45.4930 C.3    56  ILE56       0.0276
     78  CG1       47.2750  -26.2620   46.2380 C.3    56  ILE56       0.0022
     79  CG2       49.6300  -25.3930   46.2350 C.3    56  ILE56       0.0022
     80  CD1       46.4410  -25.0180   46.0250 C.3    56  ILE56       0.0001
     81  N         45.5390  -15.2200   47.7310 N.3    60  VAL60      -0.1245
     82  CA        44.3910  -16.1100   47.8640 C.3    60  VAL60       0.1561
     83  C         43.3950  -16.0180   46.7060 C.2    60  VAL60       0.2260
     84  O         42.9170  -17.0410   46.2100 O.2    60  VAL60      -0.2867
     85  CB        43.6940  -15.8990   49.2180 C.3    60  VAL60       0.0252
     86  CG1       42.2630  -16.4100   49.1850 C.3    60  VAL60       0.0019
     87  CG2       44.4760  -16.6230   50.2860 C.3    60  VAL60       0.0019
     88  N         44.6420  -18.0960   43.7860 N.3    63  ARG63      -0.1231
     89  CA        44.5340  -19.5430   43.9780 C.3    63  ARG63       0.1694
     90  C         43.1000  -20.0470   43.8640 C.2    63  ARG63       0.2591
     91  O         42.8580  -21.1200   43.3050 O.2    63  ARG63      -0.2718
     92  CB        45.1750  -20.0050   45.2890 C.3    63  ARG63       0.0321
     93  CG        46.6700  -19.7380   45.3610 C.3    63  ARG63       0.0489
     94  CD        47.3550  -20.7150   46.3060 C.3    63  ARG63       0.2205
     95  NE        48.8150  -20.6160   46.2510 N.pl3  63  ARG63      -0.0865
     96  CZ        49.5730  -21.1820   45.3130 C.cat  63  ARG63       0.5346
     97  NH1       49.0120  -21.8780   44.3300 N.pl3  63  ARG63       0.1354
     98  NH2       50.8930  -21.0440   45.3510 N.pl3  63  ARG63       0.1354
     99  N         42.1510  -19.2760   44.3900 N.am   64  ILE64      -0.1980
    100  CA        40.7450  -19.6480   44.2820 C.3    64  ILE64       0.1595
    101  C         40.3290  -19.6260   42.8170 C.2    64  ILE64       0.2287
    102  O         39.6820  -20.5630   42.3260 O.2    64  ILE64      -0.2864
    103  CB        39.8450  -18.7110   45.1260 C.3    64  ILE64       0.0276
    104  CG1       40.1570  -18.8910   46.6170 C.3    64  ILE64       0.0022
    105  CG2       38.3710  -18.9610   44.8400 C.3    64  ILE64       0.0022
    106  CD1       39.4710  -17.8820   47.5220 C.3    64  ILE64       0.0001
    107  N         41.7750  -22.5500   41.0960 N.3    67  GLY67      -0.1210
    108  CA        41.0290  -23.7360   41.4960 C.3    67  GLY67       0.1956
    109  C         39.7960  -23.9110   40.6340 C.2    67  GLY67       0.2612
    110  O         39.4330  -25.0310   40.2240 O.2    67  GLY67      -0.2717
    111  N         39.1450  -22.7910   40.3420 N.am   68  CYS68      -0.1970
    112  CA        37.9670  -22.8010   39.4850 C.3    68  CYS68       0.1712
    113  C         38.3540  -23.1720   38.0620 C.2    68  CYS68       0.2296
    114  O         37.6440  -23.9230   37.3890 O.2    68  CYS68      -0.2864
    115  CB        37.2830  -21.4380   39.4940 C.3    68  CYS68       0.0983
    116  SG        36.5190  -21.0230   41.0670 S.3    68  CYS68      -0.0798
    117  N         39.0080  -27.0350   37.7580 N.3    71  ARG71      -0.1231
    118  CA        37.7780  -27.8150   37.6470 C.3    71  ARG71       0.1694
    119  C         37.0890  -27.6060   36.2970 C.2    71  ARG71       0.2592
    120  O         36.5720  -28.5570   35.6950 O.2    71  ARG71      -0.2718
    121  CB        36.8270  -27.4800   38.8040 C.3    71  ARG71       0.0321
    122  CG        35.5020  -28.2390   38.7480 C.3    71  ARG71       0.0489
    123  CD        35.6740  -29.7330   38.5800 C.3    71  ARG71       0.2205
    124  NE        34.4390  -30.3340   38.0710 N.pl3  71  ARG71      -0.0865
    125  CZ        34.3760  -31.5050   37.4430 C.cat  71  ARG71       0.5346
    126  NH1       35.4850  -32.2070   37.2260 N.pl3  71  ARG71       0.1354
    127  NH2       33.2070  -31.9570   37.0000 N.pl3  71  ARG71       0.1354
    128  N         37.0850  -26.3690   35.8160 N.am   72  SER72      -0.1952
    129  CA        36.4530  -26.0790   34.5360 C.3    72  SER72       0.1924
    130  C         37.1710  -26.8060   33.3910 C.2    72  SER72       0.2314
    131  O         36.5170  -27.2980   32.4710 O.2    72  SER72      -0.2863
    132  CB        36.3850  -24.5700   34.2880 C.3    72  SER72       0.2116
    133  OG        35.4420  -23.9750   35.1740 O.3    72  SER72      -0.2180
    134  N         35.9440  -30.1730   33.5110 N.3    75  ALA75      -0.1245
    135  CA        34.5570  -30.1750   33.0370 C.3    75  ALA75       0.1562
    136  C         34.4830  -30.1510   31.5170 C.2    75  ALA75       0.2260
    137  O         33.6300  -30.8050   30.9230 O.2    75  ALA75      -0.2867
    138  CB        33.7570  -29.0060   33.6340 C.3    75  ALA75       0.0290
    139  N         32.2680  -32.6130   29.4310 N.3    79  ILE79      -0.1245
    140  CA        31.2200  -32.1190   28.5370 C.3    79  ILE79       0.1561
    141  C         31.4690  -32.6230   27.1190 C.2    79  ILE79       0.2260
    142  O         30.5300  -32.9440   26.3880 O.2    79  ILE79      -0.2867
    143  CB        31.1360  -30.5730   28.5640 C.3    79  ILE79       0.0252
    144  CG1       30.6550  -30.0930   29.9400 C.3    79  ILE79       0.0019
    145  CG2       30.1830  -30.0520   27.5040 C.3    79  ILE79       0.0019
    146  CD1       30.9730  -28.6210   30.2110 C.3    79  ILE79       0.0001
    147  N         28.7980  -25.1160   31.5670 N.3   109  ILE109     -0.1245
    148  CA        29.3650  -25.0320   32.9090 C.3   109  ILE109      0.1561
    149  C         28.4830  -24.1910   33.8500 C.2   109  ILE109      0.2260
    150  O         28.2530  -24.5800   34.9960 O.2   109  ILE109     -0.2867
    151  CB        30.8130  -24.4940   32.9010 C.3   109  ILE109      0.0252
    152  CG1       31.7450  -25.5130   32.2400 C.3   109  ILE109      0.0019
    153  CG2       31.2900  -24.2000   34.3270 C.3   109  ILE109      0.0019
    154  CD1       33.1460  -24.9880   32.0020 C.3   109  ILE109      0.0001
    155  N         25.3000  -26.0600   34.7550 N.3   112  MET112     -0.1230
    156  CA        25.5710  -27.1360   35.6990 C.3   112  MET112      0.1702
    157  C         26.0110  -26.6300   37.0630 C.2   112  MET112      0.2592
    158  O         25.7920  -27.3050   38.0690 O.2   112  MET112     -0.2718
    159  CB        26.5640  -28.1530   35.1330 C.3   112  MET112      0.0401
    160  CG        26.0610  -28.7650   33.8480 C.3   112  MET112      0.0596
    161  SD        27.1010  -30.0640   33.1950 S.3   112  MET112     -0.1393
    162  CE        27.0880  -31.1900   34.5910 C.3   112  MET112      0.0692
    163  N         26.6330  -25.4550   37.1050 N.am  113  LEU113     -0.1980
    164  CA        26.9750  -24.8600   38.3950 C.3   113  LEU113      0.1596
    165  C         25.7510  -24.7000   39.2830 C.2   113  LEU113      0.2287
    166  O         25.8380  -24.8580   40.5020 O.2   113  LEU113     -0.2864
    167  CB        27.6440  -23.4960   38.2140 C.3   113  LEU113      0.0297
    168  CG        29.1680  -23.4670   38.1230 C.3   113  LEU113      0.0022
    169  CD1       29.6290  -22.0330   37.9150 C.3   113  LEU113      0.0001
    170  CD2       29.7790  -24.0420   39.3940 C.3   113  LEU113      0.0001
    171  N         24.9980  -27.3290   41.7190 N.3   116  LEU116     -0.1245
    172  CA        25.9100  -27.3840   42.8550 C.3   116  LEU116      0.1561
    173  C         25.7410  -26.1940   43.8040 C.2   116  LEU116      0.2260
    174  O         26.4430  -26.1030   44.8180 O.2   116  LEU116     -0.2867
    175  CB        27.3540  -27.4160   42.3550 C.3   116  LEU116      0.0270
    176  CG        27.6760  -28.5550   41.3920 C.3   116  LEU116      0.0019
    177  CD1       29.1480  -28.5030   40.9310 C.3   116  LEU116      0.0001
    178  CD2       27.3550  -29.8850   42.0410 C.3   116  LEU116      0.0001
    179  N         28.5740  -22.8030   47.1100 N.3   122  VAL122     -0.1231
    180  CA        28.7290  -23.7580   46.0150 C.3   122  VAL122      0.1692
    181  C         29.5320  -24.9770   46.4580 C.2   122  VAL122      0.2592
    182  O         30.5090  -24.8540   47.2110 O.2   122  VAL122     -0.2718
    183  CB        29.4010  -23.0690   44.7850 C.3   122  VAL122      0.0266
    184  CG1       30.7550  -22.4810   45.1550 C.3   122  VAL122      0.0020
    185  CG2       29.5290  -24.0280   43.5990 C.3   122  VAL122      0.0020
    186  N         29.0930  -26.1630   46.0330 N.am  123  LEU123     -0.1966
    187  CA        29.8460  -27.3850   46.3070 C.3   123  LEU123      0.1728
    188  C         31.0860  -27.4330   45.4240 C.2   123  LEU123      0.2616
    189  O         31.0120  -27.1720   44.2200 O.2   123  LEU123     -0.2715
    190  CB        28.9910  -28.6290   46.0460 C.3   123  LEU123      0.0311
    191  CG        27.8560  -28.9280   47.0180 C.3   123  LEU123      0.0022
    192  CD1       27.0790  -30.1670   46.5740 C.3   123  LEU123      0.0001
    193  CD2       28.4180  -29.1240   48.4170 C.3   123  LEU123      0.0001
    194  N         32.2240  -27.7890   46.0140 N.am  124  ILE124     -0.1963
    195  CA        33.4710  -27.9070   45.2540 C.3   124  ILE124      0.1727
    196  C         34.1530  -29.2270   45.5830 C.2   124  ILE124      0.2616
    197  O         33.7720  -29.9070   46.5460 O.2   124  ILE124     -0.2715
    198  CB        34.4440  -26.7480   45.5570 C.3   124  ILE124      0.0290
    199  CG1       34.9910  -26.8590   46.9810 C.3   124  ILE124      0.0022
    200  CG2       33.7580  -25.3970   45.3230 C.3   124  ILE124      0.0023
    201  CD1       36.0150  -25.7900   47.3360 C.3   124  ILE124      0.0001
    202  N         35.1500  -29.5850   44.7740 N.am  125  SER125     -0.1950
    203  CA        35.9210  -30.8120   44.9650 C.3   125  SER125      0.1924
    204  C         35.0060  -32.0300   45.0890 C.2   125  SER125      0.2314
    205  O         35.1110  -32.8040   46.0440 O.2   125  SER125     -0.2863
    206  CB        36.8460  -30.6970   46.1830 C.3   125  SER125      0.2116
    207  OG        37.8660  -31.6810   46.1460 O.3   125  SER125     -0.2180
    208  N         32.0860  -23.7440   49.4730 N.3   131  MET131     -0.1245
    209  CA        32.6500  -22.4150   49.6510 C.3   131  MET131      0.1570
    210  C         31.5250  -21.3980   49.6370 C.2   131  MET131      0.2261
    211  O         30.7000  -21.3860   48.7150 O.2   131  MET131     -0.2867
    212  CB        33.6950  -22.1230   48.5630 C.3   131  MET131      0.0387
    213  CG        34.3780  -20.7700   48.7270 C.3   131  MET131      0.0595
    214  SD        35.7680  -20.5320   47.5930 S.3   131  MET131     -0.1393
    215  CE        36.9260  -21.7550   48.2260 C.3   131  MET131      0.0692
    216  N         33.4230  -15.7120   48.6940 N.3   136  LEU136     -0.1245
    217  CA        33.8480  -15.4680   47.3200 C.3   136  LEU136      0.1561
    218  C         33.6200  -13.9990   46.9580 C.2   136  LEU136      0.2260
    219  O         34.4410  -13.3670   46.2930 O.2   136  LEU136     -0.2867
    220  CB        33.0780  -16.3820   46.3640 C.3   136  LEU136      0.0270
    221  CG        33.5190  -17.8430   46.3160 C.3   136  LEU136      0.0019
    222  CD1       32.4060  -18.7200   45.7520 C.3   136  LEU136      0.0001
    223  CD2       34.7520  -17.9420   45.4240 C.3   136  LEU136      0.0001
    224  N         32.3830  -15.0380   40.7370 N.3   147  MET147     -0.1245
    225  CA        31.4200  -16.1300   40.9210 C.3   147  MET147      0.1570
    226  C         30.0000  -15.6050   41.1070 C.2   147  MET147      0.2261
    227  O         29.0240  -16.3010   40.8180 O.2   147  MET147     -0.2867
    228  CB        31.8030  -17.0560   42.0800 C.3   147  MET147      0.0387
    229  CG        33.0060  -17.9320   41.8240 C.3   147  MET147      0.0595
    230  SD        32.7580  -19.0370   40.4190 S.3   147  MET147     -0.1393
    231  CE        31.6060  -20.2150   41.1200 C.3   147  MET147      0.0692
@<TRIPOS>BOND
     1   142   141    2
     2   141   140    1
     3   145   143    1
     4   140   143    1
     5   140   139    1
     6   143   144    1
     7   144   146    1
     8   137   136    2
     9   136   135    1
    10   147   148    1
    11    11    10   ar
    12    11     9   ar
    13    10     8   ar
    14   154   152    1
    15   152   151    1
    16   131   130    2
    17     9     7   ar
    18   151   148    1
    19   151   153    1
    20   148   149    1
    21   135   134    1
    22   135   138    1
    23     8     6   ar
    24   161   160    1
    25   161   162    1
    26   130   129    1
    27   160   159    1
    28   149   150    2
    29     7     6   ar
    30     6     5    1
    31   132   129    1
    32   132   133    1
    33     1     2    1
    34   129   128    1
    35   155   156    1
    36   159   156    1
    37     5     2    1
    38     2     3    1
    39   120   119    2
    40   156   157    1
    41   128   119   am
    42   119   118    1
    43     3     4    2
    44     3    12   am
    45   127   125    1
    46   157   163   am
    47   157   158    2
    48   163   164    1
    49   126   125    1
    50   114   113    2
    51   125   124    2
    52   118   117    1
    53   118   121    1
    54    18    12    1
    55    18    17    1
    56    12    13    1
    57   169   168    1
    58   113   112    1
    59   124   123    1
    60   168   167    1
    61   168   170    1
    62   167   164    1
    63   164   165    1
    64   123   122    1
    65    17    16    1
    66   122   121    1
    67    13    16    1
    68    13    14    1
    69   165   166    2
    70   112   115    1
    71   112   111    1
    72   115   116    1
    73    22    21    2
    74    19    14   am
    75    19    20    1
    76    14    15    2
    77   110   109    2
    78   111   109   am
    79    21    20    1
    80   230   231    1
    81   230   229    1
    82   109   108    1
    83   224   225    1
    84   227   226    2
    85   225   226    1
    86   225   228    1
    87   177   176    1
    88    20    23    1
    89   107   108    1
    90    67    64    1
    91    67    68    1
    92   176   178    1
    93   176   175    1
    94    64    65    1
    95    64    63    1
    96    66    65    2
    97   171   172    1
    98   229   228    1
    99    23    24    1
   100    65    73   am
   101   102   101    2
   102   175   172    1
   103    68    70   ar
   104    68    69   ar
   105   101   100    1
   106   172   173    1
   107    70    72   ar
   108    24    26    1
   109    24    25    1
   110    69    71   ar
   111    91    90    2
   112    75    76    2
   113    75    74    1
   114    73    74    1
   115   185   183    1
   116    88    89    1
   117   173   174    2
   118    90    89    1
   119    90    99   am
   120    89    92    1
   121    72    71   ar
   122    74    77    1
   123   189   188    2
   124   100    99    1
   125   100   103    1
   126    97    96    1
   127   202   203    1
   128   202   196   am
   129   183   184    1
   130   183   180    1
   131   105   103    1
   132   203   204    1
   133   203   206    1
   134    54    55    2
   135    54    53    1
   136   204   205    2
   137   103   104    1
   138   195   198    1
   139   195   196    1
   140   195   194    1
   141    92    93    1
   142    96    98    1
   143    96    95    2
   144   200   198    1
   145    93    94    1
   146   188   194   am
   147   188   187    1
   148   223   221    1
   149    77    79    1
   150    77    78    1
   151   198   199    1
   152   196   197    2
   153   222   221    1
   154    53    56    1
   155    53    52    1
   156   180   181    1
   157   180   179    1
   158    80    78    1
   159   186   187    1
   160   186   181   am
   161   190   187    1
   162   190   191    1
   163   207   206    1
   164    84    83    2
   165    95    94    1
   166   219   218    2
   167   221   220    1
   168    58    60   ar
   169    58    57   ar
   170   220   217    1
   171    56    57    1
   172   181   182    2
   173   192   191    1
   174   104   106    1
   175    83    82    1
   176   218   217    1
   177    60    62   ar
   178   199   201    1
   179   191   193    1
   180    57    59   ar
   181   217   216    1
   182   214   215    1
   183   214   213    1
   184    81    82    1
   185    82    85    1
   186    62    61   ar
   187    59    61   ar
   188   212   213    1
   189   212   209    1
   190   211   210    2
   191    86    85    1
   192    85    87    1
   193   208   209    1
   194   210   209    1
   195    51    49   ar
   196    33    32    1
   197    49    48    1
   198    49    50   ar
   199    48    47    1
   200    34    32    1
   201    32    31    1
   202    47    44    1
   203    46    45    2
   204    44    45    1
   205    44    43    1
   206    31    28    1
   207    30    29    2
   208    42    41    1
   209    28    29    1
   210    28    27    1
   211    29    35   am
   212    41    40    1
   213    35    36    1
   214    36    37    1
   215    36    39    1
   216    38    37    2
   217    40    39    1
