@<TRIPOS>MOLECULE
tmp/4ci5A00.pdb
 204 194 0 0 0
SMALL
GASTEIGER

@<TRIPOS>ATOM
      1  N          1.3760    1.0380   15.3310 N.3    21  PHE21      -0.1241
      2  CA         2.5320    1.2490   14.4360 C.3    21  PHE21       0.1605
      3  C          2.0660    1.4880   13.0080 C.2    21  PHE21       0.2264
      4  O          1.6500    0.5460   12.3270 O.2    21  PHE21      -0.2867
      5  CB         3.5010    0.0590   14.5100 C.3    21  PHE21       0.0534
      6  CG         3.9510   -0.2600   15.9140 C.ar   21  PHE21      -0.0203
      7  CD1        4.7570    0.6310   16.6150 C.ar   21  PHE21      -0.0042
      8  CD2        3.5830   -1.4540   16.5290 C.ar   21  PHE21      -0.0042
      9  CE1        5.1800    0.3320   17.9240 C.ar   21  PHE21      -0.0003
     10  CE2        3.9940   -1.7550   17.8390 C.ar   21  PHE21      -0.0003
     11  CZ         4.7800   -0.8590   18.5330 C.ar   21  PHE21      -0.0000
     12  N         21.6860   12.5340   11.9460 N.3    65  PHE65      -0.1241
     13  CA        21.5270   12.1270   13.3420 C.3    65  PHE65       0.1605
     14  C         20.3440   12.8240   14.0240 C.2    65  PHE65       0.2264
     15  O         19.5710   12.1870   14.7480 O.2    65  PHE65      -0.2867
     16  CB        22.8190   12.3630   14.1430 C.3    65  PHE65       0.0534
     17  CG        22.7210   11.9360   15.5840 C.ar   65  PHE65      -0.0203
     18  CD1       22.8630   10.5980   15.9400 C.ar   65  PHE65      -0.0042
     19  CD2       22.4990   12.8770   16.5880 C.ar   65  PHE65      -0.0042
     20  CE1       22.7590   10.1960   17.2740 C.ar   65  PHE65      -0.0003
     21  CE2       22.4020   12.4890   17.9230 C.ar   65  PHE65      -0.0003
     22  CZ        22.5260   11.1400   18.2670 C.ar   65  PHE65      -0.0000
     23  N         17.2770   11.2800   12.9870 N.3    68  CYS68      -0.1221
     24  CA        17.1760   10.0010   13.6860 C.3    68  CYS68       0.1808
     25  C         16.5640   10.1650   15.0690 C.2    68  CYS68       0.2601
     26  O         15.7910    9.3140   15.5160 O.2    68  CYS68      -0.2717
     27  CB        18.5480    9.3400   13.8340 C.3    68  CYS68       0.0970
     28  SG        19.1330    8.4620   12.3850 S.3    68  CYS68      -0.0800
     29  N         16.9210   11.2510   15.7490 N.am   69  GLN69      -0.1979
     30  CA        16.3830   11.5070   17.0820 C.3    69  GLN69       0.1601
     31  C         14.8830   11.6670   17.0120 C.2    69  GLN69       0.2287
     32  O         14.1560   11.1270   17.8420 O.2    69  GLN69      -0.2864
     33  CB        16.9720   12.7590   17.7430 C.3    69  GLN69       0.0394
     34  CG        18.4740   12.7400   18.0810 C.3    69  GLN69       0.0908
     35  CD        18.7820   13.5240   19.3580 C.2    69  GLN69       0.2608
     36  OE1       18.2200   13.2440   20.4210 O.2    69  GLN69      -0.2717
     37  NE2       19.6740   14.5090   19.2580 N.am   69  GLN69      -0.0878
     38  N         12.7570   10.5230   14.7070 N.3    71  ARG71      -0.1231
     39  CA        12.1090    9.2430   14.4180 C.3    71  ARG71       0.1694
     40  C         12.0970    8.3700   15.6650 C.2    71  ARG71       0.2592
     41  O         11.1260    7.6730   15.9480 O.2    71  ARG71      -0.2718
     42  CB        12.8150    8.5050   13.2740 C.3    71  ARG71       0.0321
     43  CG        12.6320    9.1370   11.9130 C.3    71  ARG71       0.0489
     44  CD        11.2820    9.8280   11.8150 C.3    71  ARG71       0.2205
     45  NE        10.8850   10.0850   10.4350 N.pl3  71  ARG71      -0.0865
     46  CZ         9.6570   10.4400   10.0730 C.cat  71  ARG71       0.5346
     47  NH1        8.7160   10.5950   10.9960 N.pl3  71  ARG71       0.1354
     48  NH2        9.3720   10.6570    8.7960 N.pl3  71  ARG71       0.1354
     49  N         13.2000    8.4000   16.4040 N.am   72  SER72      -0.1952
     50  CA        13.3200    7.6140   17.6200 C.3    72  SER72       0.1924
     51  C         12.3340    8.0640   18.6930 C.2    72  SER72       0.2314
     52  O         11.7140    7.2370   19.3800 O.2    72  SER72      -0.2863
     53  CB        14.7560    7.6790   18.1440 C.3    72  SER72       0.2116
     54  OG        14.8630    7.0300   19.3950 O.3    72  SER72      -0.2180
     55  N          9.0980    6.7680   17.7330 N.3    75  ALA75      -0.1245
     56  CA         9.0810    5.3320   17.9980 C.3    75  ALA75       0.1562
     57  C          8.7560    5.0520   19.4530 C.2    75  ALA75       0.2260
     58  O          7.9420    4.1820   19.7630 O.2    75  ALA75      -0.2867
     59  CB        10.4120    4.7010   17.6320 C.3    75  ALA75       0.0290
     60  N          5.0950    5.5400   20.0380 N.3    78  GLU78      -0.1231
     61  CA         4.3130    4.4180   19.5160 C.3    78  GLU78       0.1699
     62  C          4.4530    3.1740   20.3810 C.2    78  GLU78       0.2592
     63  O          3.4710    2.4700   20.6520 O.2    78  GLU78      -0.2718
     64  CB         4.7180    4.0940   18.0670 C.3    78  GLU78       0.0402
     65  CG         4.3780    5.2150   17.0660 C.3    78  GLU78       0.1161
     66  CD         4.9160    4.9420   15.6690 C.2    78  GLU78       0.3649
     67  OE1        5.3020    3.7860   15.3840 O.co2  78  GLU78      -0.2457
     68  OE2        4.9320    5.8750   14.8460 O.co2  78  GLU78      -0.2457
     69  N          5.6810    2.8960   20.7990 N.am   79  ILE79      -0.1980
     70  CA         5.9620    1.7260   21.6280 C.3    79  ILE79       0.1595
     71  C          5.3280    1.8340   23.0160 C.2    79  ILE79       0.2287
     72  O          4.8420    0.8360   23.5590 O.2    79  ILE79      -0.2864
     73  CB         7.4810    1.4720   21.7380 C.3    79  ILE79       0.0276
     74  CG1        8.0420    1.0630   20.3800 C.3    79  ILE79       0.0022
     75  CG2        7.7530    0.3590   22.7220 C.3    79  ILE79       0.0022
     76  CD1        9.5920    1.2940   20.2700 C.3    79  ILE79       0.0001
     77  N         14.3970    0.7130   23.2000 N.3   106  HIS106     -0.1241
     78  CA        15.4010    0.6020   22.1380 C.3   106  HIS106      0.1621
     79  C         15.5660   -0.8190   21.6160 C.2   106  HIS106      0.2264
     80  O         15.8240   -1.0060   20.4290 O.2   106  HIS106     -0.2867
     81  CB        16.7370    1.2320   22.5260 C.3   106  HIS106      0.0745
     82  CG        16.7050    2.7310   22.4910 C.ar  106  HIS106      0.0817
     83  ND1       16.2690    3.4930   23.5550 N.ar  106  HIS106     -0.2268
     84  CD2       16.9770    3.6020   21.4880 C.ar  106  HIS106      0.1154
     85  CE1       16.3190    4.7760   23.2230 C.ar  106  HIS106      0.1986
     86  NE2       16.7430    4.8690   21.9770 N.ar  106  HIS106     -0.2212
     87  N         12.9910   -0.8960   19.1810 N.3   109  ILE109     -0.1231
     88  CA        13.3430   -0.1140   17.9980 C.3   109  ILE109      0.1692
     89  C         14.2240   -0.9120   17.0370 C.2   109  ILE109      0.2592
     90  O         13.9390   -0.9560   15.8340 O.2   109  ILE109     -0.2718
     91  CB        14.0270    1.2340   18.3550 C.3   109  ILE109      0.0266
     92  CG1       12.9970    2.1760   19.0010 C.3   109  ILE109      0.0019
     93  CG2       14.6570    1.8710   17.0940 C.3   109  ILE109      0.0020
     94  CD1       13.5760    3.4230   19.6280 C.3   109  ILE109      0.0001
     95  N         15.2730   -1.5540   17.5560 N.am  110  TYR110     -0.1976
     96  CA        16.2150   -2.2810   16.6910 C.3   110  TYR110      0.1639
     97  C         15.5620   -3.5330   16.0940 C.2   110  TYR110      0.2290
     98  O         15.8890   -3.9410   14.9770 O.2   110  TYR110     -0.2864
     99  CB        17.5040   -2.6320   17.4540 C.3   110  TYR110      0.0560
    100  CG        18.1670   -1.4290   18.0920 C.ar  110  TYR110     -0.0198
    101  CD1       18.1870   -0.1990   17.4490 C.ar  110  TYR110     -0.0009
    102  CD2       18.6850   -1.5030   19.3780 C.ar  110  TYR110     -0.0009
    103  CE1       18.7570    0.9130   18.0470 C.ar  110  TYR110      0.0417
    104  CE2       19.2480   -0.3980   19.9910 C.ar  110  TYR110      0.0417
    105  CZ        19.2870    0.8040   19.3190 C.ar  110  TYR110      0.1957
    106  OH        19.8440    1.9050   19.9320 O.3   110  TYR110     -0.2866
    107  N         12.2080   -3.8150   15.3220 N.3   112  MET112     -0.1230
    108  CA        11.3130   -3.3570   14.2650 C.3   112  MET112      0.1702
    109  C         12.0690   -2.6720   13.1430 C.2   112  MET112      0.2592
    110  O         11.6110   -2.6600   12.0040 O.2   112  MET112     -0.2718
    111  CB        10.1970   -2.4830   14.8390 C.3   112  MET112      0.0401
    112  CG         9.4260   -3.2540   15.8830 C.3   112  MET112      0.0596
    113  SD         8.0440   -2.3540   16.5930 S.3   112  MET112     -0.1393
    114  CE         6.9980   -1.9920   15.1480 C.3   112  MET112      0.0692
    115  N         13.2350   -2.1040   13.4620 N.am  113  LEU113     -0.1980
    116  CA        14.0980   -1.5220   12.4350 C.3   113  LEU113      0.1596
    117  C         14.4700   -2.5570   11.3710 C.2   113  LEU113      0.2287
    118  O         14.6160   -2.2200   10.1890 O.2   113  LEU113     -0.2864
    119  CB        15.3740   -0.9370   13.0590 C.3   113  LEU113      0.0297
    120  CG        16.4380   -0.3900   12.1050 C.3   113  LEU113      0.0022
    121  CD1       15.8400    0.6900   11.2350 C.3   113  LEU113      0.0001
    122  CD2       17.6030    0.1730   12.9220 C.3   113  LEU113      0.0001
    123  N         12.4960   -2.6930    8.2690 N.3   116  LEU116     -0.1245
    124  CA        12.6820   -1.6200    7.3030 C.3   116  LEU116      0.1561
    125  C         13.9670   -1.7980    6.5050 C.2   116  LEU116      0.2260
    126  O         14.2610   -0.9820    5.6240 O.2   116  LEU116     -0.2867
    127  CB        12.7620   -0.2740    8.0220 C.3   116  LEU116      0.0270
    128  CG        11.6130    0.1390    8.9340 C.3   116  LEU116      0.0019
    129  CD1       11.9270    1.5010    9.5770 C.3   116  LEU116      0.0001
    130  CD2       10.3260    0.1870    8.1280 C.3   116  LEU116      0.0001
    131  N         27.1550    3.9940   13.4930 N.3   146  PHE146     -0.1227
    132  CA        25.8830    3.7440   14.1610 C.3   146  PHE146      0.1736
    133  C         25.0890    2.6070   13.5590 C.2   146  PHE146      0.2595
    134  O         24.5220    1.7940   14.2850 O.2   146  PHE146     -0.2718
    135  CB        24.9980    4.9930   14.1810 C.3   146  PHE146      0.0547
    136  CG        25.1570    5.8210   15.4180 C.ar  146  PHE146     -0.0202
    137  CD1       24.6340    5.3870   16.6300 C.ar  146  PHE146     -0.0042
    138  CD2       25.8190    7.0340   15.3680 C.ar  146  PHE146     -0.0042
    139  CE1       24.7810    6.1470   17.7790 C.ar  146  PHE146     -0.0003
    140  CE2       25.9740    7.7980   16.5030 C.ar  146  PHE146     -0.0003
    141  CZ        25.4470    7.3580   17.7170 C.ar  146  PHE146     -0.0000
    142  N         25.0230    2.5610   12.2330 N.am  147  MET147     -0.1979
    143  CA        24.0500    1.6890   11.5940 C.3   147  MET147      0.1605
    144  C         24.5400    0.2800   11.2920 C.2   147  MET147      0.2287
    145  O         23.7490   -0.6540   11.2630 O.2   147  MET147     -0.2864
    146  CB        23.5180    2.3420   10.3190 C.3   147  MET147      0.0413
    147  CG        22.7070    3.5850   10.5800 C.3   147  MET147      0.0598
    148  SD        21.2790    3.2350   11.6360 S.3   147  MET147     -0.1393
    149  CE        20.2460    2.3800   10.4680 C.3   147  MET147      0.0692
    150  N         23.3820   -2.6300   13.3470 N.3   150  LYS150     -0.1245
    151  CA        21.9420   -2.8170   13.1800 C.3   150  LYS150      0.1561
    152  C         21.6300   -3.5490   11.8860 C.2   150  LYS150      0.2260
    153  O         20.7230   -4.3940   11.8470 O.2   150  LYS150     -0.2867
    154  CB        21.2030   -1.4810   13.2540 C.3   150  LYS150      0.0271
    155  CG        21.0550   -0.9350   14.6680 C.3   150  LYS150      0.0035
    156  CD        22.2940   -0.1870   15.1030 C.3   150  LYS150      0.0206
    157  CE        22.0440    0.5990   16.3820 C.3   150  LYS150      0.1093
    158  NZ        23.3080    1.2820   16.7870 N.3   150  LYS150     -0.1314
    159  N         25.8450    0.8920   21.0960 N.3   232  HIS232     -0.1241
    160  CA        25.1890    2.1550   20.7620 C.3   232  HIS232      0.1621
    161  C         25.4220    3.2110   21.8410 C.2   232  HIS232      0.2264
    162  O         25.7310    4.3760   21.5460 O.2   232  HIS232     -0.2867
    163  CB        23.6850    1.8830   20.6160 C.3   232  HIS232      0.0745
    164  CG        22.9050    3.0150   20.0360 C.ar  232  HIS232      0.0817
    165  ND1       22.8580    3.2780   18.6850 N.ar  232  HIS232     -0.2268
    166  CD2       22.1260    3.9490   20.6320 C.ar  232  HIS232      0.1154
    167  CE1       22.0810    4.3280   18.4740 C.ar  232  HIS232      0.1986
    168  NE2       21.6240    4.7510   19.6390 N.ar  232  HIS232     -0.2212
    169  N         27.0330    7.0310   21.7160 N.3   236  LEU236     -0.1245
    170  CA        26.3300    8.2150   22.1910 C.3   236  LEU236      0.1561
    171  C         27.2020    8.9870   23.1730 C.2   236  LEU236      0.2260
    172  O         27.1650   10.2120   23.2050 O.2   236  LEU236     -0.2867
    173  CB        24.9930    7.8520   22.8370 C.3   236  LEU236      0.0270
    174  CG        23.9190    7.3510   21.8660 C.3   236  LEU236      0.0019
    175  CD1       22.6530    7.0190   22.6280 C.3   236  LEU236      0.0001
    176  CD2       23.6460    8.3820   20.7790 C.3   236  LEU236      0.0001
    177  N         20.6920   14.9920   23.5730 N.3   248  LEU248     -0.1245
    178  CA        19.6400   14.0720   23.1860 C.3   248  LEU248      0.1561
    179  C         18.3190   14.7530   23.5360 C.2   248  LEU248      0.2260
    180  O         18.2660   15.5680   24.4520 O.2   248  LEU248     -0.2867
    181  CB        19.7730   12.7460   23.9350 C.3   248  LEU248      0.0270
    182  CG        21.0430   11.9690   23.6060 C.3   248  LEU248      0.0019
    183  CD1       21.0100   10.5860   24.2390 C.3   248  LEU248      0.0001
    184  CD2       21.1850   11.8650   22.0980 C.3   248  LEU248      0.0001
    185  N         14.6100   10.9820   25.1890 N.3   252  LEU252     -0.1245
    186  CA        15.7170   10.0490   24.9940 C.3   252  LEU252      0.1561
    187  C         16.7500   10.1990   26.1220 C.2   252  LEU252      0.2260
    188  O         17.3180    9.2110   26.6110 O.2   252  LEU252     -0.2867
    189  CB        16.3530   10.2590   23.6160 C.3   252  LEU252      0.0270
    190  CG        15.4020   10.0020   22.4410 C.3   252  LEU252      0.0019
    191  CD1       16.0630   10.3870   21.1060 C.3   252  LEU252      0.0001
    192  CD2       14.8870    8.5580   22.4240 C.3   252  LEU252      0.0001
    193  N         18.1440    7.1730   28.6410 N.3   256  TYR256     -0.1241
    194  CA        19.5550    6.8270   28.8330 C.3   256  TYR256      0.1605
    195  C         20.1550    7.2230   30.1840 C.2   256  TYR256      0.2264
    196  O         21.2000    6.7020   30.5640 O.2   256  TYR256     -0.2867
    197  CB        20.4060    7.3910   27.6860 C.3   256  TYR256      0.0534
    198  CG        20.2160    6.6850   26.3560 C.ar  256  TYR256     -0.0201
    199  CD1       20.6870    5.3920   26.1750 C.ar  256  TYR256     -0.0009
    200  CD2       19.5940    7.3120   25.2850 C.ar  256  TYR256     -0.0009
    201  CE1       20.5390    4.7360   24.9690 C.ar  256  TYR256      0.0417
    202  CE2       19.4310    6.6570   24.0680 C.ar  256  TYR256      0.0417
    203  CZ        19.9120    5.3720   23.9200 C.ar  256  TYR256      0.1957
    204  OH        19.7720    4.6990   22.7240 O.3   256  TYR256     -0.2866
@<TRIPOS>BOND
     1   126   125    2
     2   125   124    1
     3   124   127    1
     4   124   123    1
     5   127   128    1
     6   130   128    1
     7    48    46    1
     8   128   129    1
     9    46    45    2
    10    46    47    1
    11   118   117    2
    12   146   147    1
    13   146   143    1
    14    45    44    1
    15   149   148    1
    16   147   148    1
    17   121   120    1
    18   145   144    2
    19   144   143    1
    20   117   116    1
    21   143   142    1
    22    44    43    1
    23   153   152    2
    24   152   151    1
    25    43    42    1
    26    12    13    1
    27   110   109    2
    28   120   122    1
    29   120   119    1
    30   142   133   am
    31     4     3    2
    32    28    27    1
    33   116   119    1
    34   116   115    1
    35    23    24    1
    36     3     2    1
    37   109   115   am
    38   109   108    1
    39   151   154    1
    40   151   150    1
    41   154   155    1
    42    42    39    1
    43    13    14    1
    44    13    16    1
    45   131   132    1
    46   133   132    1
    47   133   134    2
    48    24    27    1
    49    24    25    1
    50    14    15    2
    51    16    17    1
    52   132   135    1
    53   135   136    1
    54   108   111    1
    55   108   107    1
    56    39    38    1
    57    39    40    1
    58     2     5    1
    59     2     1    1
    60     5     6    1
    61   155   156    1
    62   111   112    1
    63    68    66   ar
    64    98    97    2
    65    25    26    2
    66    25    29   am
    67   156   157    1
    68   114   113    1
    69   138   136   ar
    70   138   140   ar
    71    67    66   ar
    72   136   137   ar
    73    17    18   ar
    74    17    19   ar
    75    40    41    2
    76    40    49   am
    77    66    65    1
    78    29    30    1
    79    90    89    2
    80   112   113    1
    81     6     8   ar
    82     6     7   ar
    83    18    20   ar
    84    97    96    1
    85   157   158    1
    86    49    50    1
    87   140   141   ar
    88     8    10   ar
    89    19    21   ar
    90     7     9   ar
    91   137   139   ar
    92    96    99    1
    93    96    95    1
    94    31    30    1
    95    31    32    2
    96    89    95   am
    97    89    88    1
    98    65    64    1
    99    30    33    1
   100    93    91    1
   101    20    22   ar
   102   101   103   ar
   103   101   100   ar
   104    99   100    1
   105    50    53    1
   106    50    51    1
   107    59    56    1
   108   141   139   ar
   109    55    56    1
   110    33    34    1
   111    10    11   ar
   112    21    22   ar
   113     9    11   ar
   114    88    91    1
   115    88    87    1
   116    56    57    1
   117   103   105   ar
   118    64    61    1
   119    34    35    1
   120   100   102   ar
   121    53    54    1
   122    91    92    1
   123   167   165   ar
   124   167   168   ar
   125   165   164   ar
   126    51    52    2
   127    92    94    1
   128    37    35   am
   129   105   106    1
   130   105   104   ar
   131    35    36    2
   132   102   104   ar
   133    57    58    2
   134    61    60    1
   135    61    62    1
   136   168   166   ar
   137   164   163    1
   138   164   166   ar
   139    76    74    1
   140    74    73    1
   141    62    63    2
   142    62    69   am
   143    80    79    2
   144   163   160    1
   145   160   159    1
   146   160   161    1
   147   176   174    1
   148    69    70    1
   149   191   190    1
   150    84    86   ar
   151    84    82   ar
   152   162   161    2
   153    79    78    1
   154    70    73    1
   155    70    71    1
   156   169   170    1
   157    73    75    1
   158   174   175    1
   159   174   173    1
   160    86    85   ar
   161   184   182    1
   162    78    81    1
   163    78    77    1
   164   170   173    1
   165   170   171    1
   166   192   190    1
   167   190   189    1
   168    82    81    1
   169    82    83   ar
   170   204   203    1
   171    71    72    2
   172   171   172    2
   173   178   179    1
   174   178   177    1
   175   178   181    1
   176    85    83   ar
   177   179   180    2
   178   182   181    1
   179   182   183    1
   180   189   186    1
   181   203   202   ar
   182   203   201   ar
   183   202   200   ar
   184   201   199   ar
   185   186   185    1
   186   186   187    1
   187   200   198   ar
   188   187   188    2
   189   199   198   ar
   190   198   197    1
   191   197   194    1
   192   193   194    1
   193   194   195    1
   194   195   196    2
