@<TRIPOS>MOLECULE
tmp/4ciaA00.pdb
 196 190 0 0 0
SMALL
GASTEIGER

@<TRIPOS>ATOM
      1  N        -25.3650    9.1920   14.9230 N.3    56  ASN56      -0.1225
      2  CA       -26.7760    9.6080   14.9590 C.3    56  ASN56       0.1785
      3  C        -26.9070   10.8460   15.8360 C.2    56  ASN56       0.2598
      4  O        -25.9100   11.3400   16.3280 O.2    56  ASN56      -0.2718
      5  CB       -27.7020    8.4530   15.3720 C.3    56  ASN56       0.1169
      6  CG       -27.9960    7.5020   14.2000 C.2    56  ASN56       0.2627
      7  OD1      -27.2430    6.5520   13.9380 O.2    56  ASN56      -0.2716
      8  ND2      -29.1110    7.7360   13.5150 N.am   56  ASN56      -0.0877
      9  N        -28.1130   11.3910   16.0230 N.am   57  GLY57      -0.1942
     10  CA       -28.2000   12.7290   16.5950 C.3    57  GLY57       0.2014
     11  C        -28.9100   12.6780   17.9410 C.2    57  GLY57       0.2639
     12  O        -28.5400   11.8990   18.8060 O.2    57  GLY57      -0.2714
     13  N        -29.9640   13.4700   18.0850 N.am   58  GLY58      -0.1940
     14  CA       -30.7200   13.4780   19.3360 C.3    58  GLY58       0.1999
     15  C        -30.8910   14.9310   19.6470 C.2    58  GLY58       0.2481
     16  O        -31.7770   15.5540   19.0960 O.2    58  GLY58      -0.2729
     17  N        -29.9970   15.4970   20.4860 N.am   59  PRO59      -0.2715
     18  CA       -28.9040   14.7870   21.1630 C.3    59  PRO59       0.1536
     19  C        -29.4000   13.7160   22.1500 C.2    59  PRO59       0.2599
     20  O        -30.4710   13.8550   22.7300 O.2    59  PRO59      -0.2715
     21  CB       -28.1450   15.8990   21.9120 C.3    59  PRO59       0.0310
     22  CG       -29.0990   17.0210   22.0230 C.3    59  PRO59       0.0237
     23  CD       -30.1260   16.8990   20.9380 C.3    59  PRO59       0.0939
     24  N        -28.6190   12.6310   22.2230 N.am   60  GLY60      -0.1941
     25  CA       -28.7830   11.5110   23.1070 C.3    60  GLY60       0.2014
     26  C        -29.1870   10.2150   22.4300 C.2    60  GLY60       0.2639
     27  O        -29.4780    9.2710   23.0990 O.2    60  GLY60      -0.2714
     28  N        -29.2460   10.1740   21.1060 N.am   61  CYS61      -0.1967
     29  CA       -29.6370    8.9510   20.3990 C.3    61  CYS61       0.1712
     30  C        -28.4300    8.1620   19.8760 C.2    61  CYS61       0.2296
     31  O        -27.3550    8.7220   19.5660 O.2    61  CYS61      -0.2864
     32  CB       -30.6720    9.2480   19.2720 C.3    61  CYS61       0.0983
     33  SG       -32.2240   10.0320   19.8560 S.3    61  CYS61      -0.0798
     34  N        -28.7250    2.6700   16.0010 N.3    65  ASP65      -0.1239
     35  CA       -29.8850    2.9020   15.1230 C.3    65  ASP65       0.1674
     36  C        -29.4400    2.9020   13.6660 C.2    65  ASP65       0.2266
     37  O        -30.0430    2.2360   12.8440 O.2    65  ASP65      -0.2867
     38  CB       -30.4720    4.2750   15.4020 C.3    65  ASP65       0.1410
     39  CG       -31.6620    4.6210   14.5180 C.2    65  ASP65       0.3668
     40  OD1      -32.5290    3.7260   14.2740 O.co2  65  ASP65      -0.2456
     41  OD2      -31.7500    5.8240   14.1390 O.co2  65  ASP65      -0.2456
     42  N        -26.4020   12.2380   11.0740 N.3   150  GLU150     -0.1231
     43  CA       -27.7830   12.4530   10.7820 C.3   150  GLU150      0.1699
     44  C        -28.3910   13.2920   11.8770 C.2   150  GLU150      0.2593
     45  O        -28.0290   13.1510   13.0420 O.2   150  GLU150     -0.2718
     46  CB       -28.4870   11.0720   10.7140 C.3   150  GLU150      0.0402
     47  CG       -29.9990   11.0840   10.4520 C.3   150  GLU150      0.1161
     48  CD       -30.5720    9.7010   10.1470 C.2   150  GLU150      0.3649
     49  OE1      -30.1570    9.0580    9.1310 O.co2 150  GLU150     -0.2457
     50  OE2      -31.4570    9.2640   10.9280 O.co2 150  GLU150     -0.2457
     51  N        -29.3660   14.1160   11.5100 N.am  151  SER151     -0.1938
     52  CA       -30.1880   14.7960   12.5190 C.3   151  SER151      0.2055
     53  C        -29.3710   15.8410   13.3120 C.2   151  SER151      0.2643
     54  O        -28.7470   16.7080   12.6790 O.2   151  SER151     -0.2714
     55  CB       -30.8680   13.7900   13.4390 C.3   151  SER151      0.2130
     56  OG       -32.0690   14.4050   13.9100 O.3   151  SER151     -0.2179
     57  N        -29.3390   15.7650   14.6530 N.am  152  TYR152     -0.1973
     58  CA       -28.4640   16.6420   15.4260 C.3   152  TYR152      0.1639
     59  C        -26.9770   16.4780   15.0810 C.2   152  TYR152      0.2290
     60  O        -26.1930   17.3680   15.3190 O.2   152  TYR152     -0.2864
     61  CB       -28.7030   16.4930   16.9300 C.3   152  TYR152      0.0560
     62  CG       -28.1690   17.6700   17.7160 C.ar  152  TYR152     -0.0198
     63  CD1      -28.9470   18.8070   17.9190 C.ar  152  TYR152     -0.0009
     64  CD2      -26.8850   17.6510   18.2600 C.ar  152  TYR152     -0.0009
     65  CE1      -28.4700   19.9060   18.6230 C.ar  152  TYR152      0.0417
     66  CE2      -26.4030   18.7380   18.9880 C.ar  152  TYR152      0.0417
     67  CZ       -27.2050   19.8710   19.1420 C.ar  152  TYR152      0.1957
     68  OH       -26.7540   20.9560   19.8570 O.3   152  TYR152     -0.2866
     69  N        -29.6650   19.1290   11.3680 N.3   181  LEU181     -0.1245
     70  CA       -29.8800   20.4190   11.9580 C.3   181  LEU181      0.1561
     71  C        -28.6560   21.3130   11.7160 C.2   181  LEU181      0.2260
     72  O        -27.6340   21.1570   12.3720 O.2   181  LEU181     -0.2867
     73  CB       -30.1410   20.2370   13.4790 C.3   181  LEU181      0.0270
     74  CG       -30.5790   21.4420   14.2860 C.3   181  LEU181      0.0019
     75  CD1      -31.7710   22.1530   13.6420 C.3   181  LEU181      0.0001
     76  CD2      -30.9670   20.9750   15.6950 C.3   181  LEU181      0.0001
     77  N        -34.3200   26.1690    9.7850 N.3   187  ASN187     -0.1240
     78  CA       -35.1740   25.0030   10.0240 C.3   187  ASN187      0.1653
     79  C        -36.6020   25.4280   10.3470 C.2   187  ASN187      0.2266
     80  O        -37.5330   25.0030    9.6780 O.2   187  ASN187     -0.2867
     81  CB       -34.5770   24.1030   11.1210 C.3   187  ASN187      0.1155
     82  CG       -35.3540   22.8050   11.3460 C.2   187  ASN187      0.2627
     83  OD1      -35.6960   22.4670   12.4980 O.2   187  ASN187     -0.2716
     84  ND2      -35.6230   22.0690   10.2890 N.am  187  ASN187     -0.0877
     85  N        -46.2370   18.1310   15.3230 N.3   241  GLY241     -0.1225
     86  CA       -45.4630   17.2390   16.1920 C.3   241  GLY241      0.1811
     87  C        -46.2140   16.5350   17.3050 C.2   241  GLY241      0.2280
     88  O        -45.7690   15.5100   17.7930 O.2   241  GLY241     -0.2866
     89  N        -43.6240   13.1380   12.6150 N.3   247  ILE247     -0.1231
     90  CA       -42.7120   14.2290   12.2120 C.3   247  ILE247      0.1692
     91  C        -41.5250   13.7900   11.4020 C.2   247  ILE247      0.2592
     92  O        -40.9450   14.6350   10.7750 O.2   247  ILE247     -0.2718
     93  CB       -41.9300   14.9580   13.3090 C.3   247  ILE247      0.0266
     94  CG1      -41.6080   14.0510   14.5000 C.3   247  ILE247      0.0019
     95  CG2      -42.4300   16.3890   13.4820 C.3   247  ILE247      0.0020
     96  CD1      -40.5480   14.6460   15.3890 C.3   247  ILE247      0.0001
     97  N        -41.1320   12.5070   11.4950 N.am  248  TYR248     -0.1976
     98  CA       -39.9540   12.0250   10.7750 C.3   248  TYR248      0.1639
     99  C        -40.2520   11.6180    9.3370 C.2   248  TYR248      0.2290
    100  O        -39.3480   11.3320    8.5570 O.2   248  TYR248     -0.2864
    101  CB       -39.2860   10.9020   11.5390 C.3   248  TYR248      0.0560
    102  CG       -38.8910   11.3900   12.9350 C.ar  248  TYR248     -0.0198
    103  CD1      -37.9010   12.3640   13.0930 C.ar  248  TYR248     -0.0009
    104  CD2      -39.5650   10.9260   14.0710 C.ar  248  TYR248     -0.0009
    105  CE1      -37.5350   12.8150   14.3550 C.ar  248  TYR248      0.0417
    106  CE2      -39.2010   11.3600   15.3450 C.ar  248  TYR248      0.0417
    107  CZ       -38.2070   12.3100   15.4760 C.ar  248  TYR248      0.1957
    108  OH       -37.8880   12.7670   16.7340 O.3   248  TYR248     -0.2866
    109  N        -37.1370    7.9440   26.3830 N.3   260  MET260     -0.1230
    110  CA       -36.7310    6.9530   25.3750 C.3   260  MET260      0.1702
    111  C        -37.9350    6.3680   24.6320 C.2   260  MET260      0.2592
    112  O        -38.3570    5.2390   24.8840 O.2   260  MET260     -0.2718
    113  CB       -35.8350    5.8460   25.9710 C.3   260  MET260      0.0401
    114  CG       -35.5810    5.9170   27.4720 C.3   260  MET260      0.0596
    115  SD       -34.1530    6.9560   27.8460 S.3   260  MET260     -0.1393
    116  CE       -33.9350    6.7020   29.6160 C.3   260  MET260      0.0692
    117  N        -38.4930    7.1710   23.7320 N.am  261  ASP261     -0.1960
    118  CA       -39.5360    6.7460   22.8000 C.3   261  ASP261      0.1825
    119  C        -39.8370    7.9160   21.8700 C.2   261  ASP261      0.2464
    120  O        -40.8970    8.5400   21.9880 O.2   261  ASP261     -0.2730
    121  CB       -40.8110    6.2420   23.5230 C.3   261  ASP261      0.1450
    122  CG       -41.3360    7.2180   24.5960 C.2   261  ASP261      0.3671
    123  OD1      -41.7860    8.3390   24.2570 O.co2 261  ASP261     -0.2456
    124  OD2      -41.3180    6.8530   25.7920 O.co2 261  ASP261     -0.2456
    125  N        -38.9100    8.2140   20.9240 N.am  262  PRO262     -0.2716
    126  CA       -39.1070    9.3850   20.0520 C.3   262  PRO262      0.1521
    127  C        -40.5200    9.3060   19.4840 C.2   262  PRO262      0.2440
    128  O        -41.0370    8.2140   19.3050 O.2   262  PRO262     -0.2731
    129  CB       -38.0690    9.2070   18.9410 C.3   262  PRO262      0.0310
    130  CG       -37.1470    8.1220   19.4120 C.3   262  PRO262      0.0237
    131  CD       -37.9160    7.2760   20.3760 C.3   262  PRO262      0.0939
    132  N        -41.1640   10.4510   19.2490 N.am  263  PRO263     -0.2727
    133  CA       -42.6110   10.3540   19.0010 C.3   263  PRO263      0.1402
    134  C        -42.9340    9.6280   17.6590 C.2   263  PRO263      0.2269
    135  O        -42.1110    9.6530   16.7060 O.2   263  PRO263     -0.2865
    136  CB       -43.0540   11.8190   19.0000 C.3   263  PRO263      0.0296
    137  CG       -41.8550   12.5880   18.5680 C.3   263  PRO263      0.0237
    138  CD       -40.6410   11.8110   19.0040 C.3   263  PRO263      0.0939
    139  N        -42.5630    6.6930   16.8330 N.3   265  THR265     -0.1218
    140  CA       -41.5480    5.7160   16.4350 C.3   265  THR265      0.1862
    141  C        -41.5530    4.5090   17.3870 C.2   265  THR265      0.2287
    142  O        -41.9010    4.6240   18.5570 O.2   265  THR265     -0.2866
    143  CB       -40.1160    6.3280   16.3700 C.3   265  THR265      0.1770
    144  OG1      -39.6340    6.5390   17.6950 O.3   265  THR265     -0.2211
    145  CG2      -40.0820    7.6560   15.6590 C.3   265  THR265      0.0375
    146  N        -32.5680    3.3980   22.7580 N.3   294  MET294     -0.1230
    147  CA       -32.1280    4.1260   21.5740 C.3   294  MET294      0.1702
    148  C        -31.7680    5.5910   21.8200 C.2   294  MET294      0.2592
    149  O        -30.8120    6.1010   21.2390 O.2   294  MET294     -0.2718
    150  CB       -33.1140    4.0310   20.4060 C.3   294  MET294      0.0401
    151  CG       -32.3640    4.2630   19.1080 C.3   294  MET294      0.0596
    152  SD       -33.4040    4.1190   17.6860 S.3   294  MET294     -0.1393
    153  CE       -34.5950    5.3710   18.1100 C.3   294  MET294      0.0692
    154  N        -32.5130    6.2570   22.6970 N.am  295  CYS295     -0.1970
    155  CA       -32.2050    7.6300   22.9880 C.3   295  CYS295      0.1712
    156  C        -32.1970    7.7610   24.4860 C.2   295  CYS295      0.2296
    157  O        -33.0960    7.2410   25.1680 O.2   295  CYS295     -0.2864
    158  CB       -33.2340    8.5810   22.3310 C.3   295  CYS295      0.0983
    159  SG       -33.3550    8.4770   20.5200 S.3   295  CYS295     -0.0798
    160  N        -30.3440   13.9660   26.8870 N.3   300  ASN300     -0.1240
    161  CA       -31.0270   15.0350   26.0910 C.3   300  ASN300      0.1653
    162  C        -31.5060   16.1630   27.0170 C.2   300  ASN300      0.2266
    163  O        -31.3580   17.3490   26.7170 O.2   300  ASN300     -0.2867
    164  CB       -32.2120   14.4400   25.3210 C.3   300  ASN300      0.1155
    165  CG       -32.9400   15.4590   24.4610 C.2   300  ASN300      0.2627
    166  OD1      -33.9540   16.0170   24.8710 O.2   300  ASN300     -0.2716
    167  ND2      -32.4550   15.6720   23.2510 N.am  300  ASN300     -0.0877
    168  N        -38.8020   16.8720   10.8150 N.3   335  ALA335     -0.1231
    169  CA       -37.8940   17.2080   11.9220 C.3   335  ALA335      0.1694
    170  C        -36.7230   18.0770   11.4800 C.2   335  ALA335      0.2592
    171  O        -36.3630   19.0190   12.1990 O.2   335  ALA335     -0.2718
    172  CB       -37.3880   15.9640   12.6620 C.3   335  ALA335      0.0304
    173  N        -36.1230   17.7670   10.3220 N.am  336  CYS336     -0.1970
    174  CA       -35.1320   18.6220    9.7140 C.3   336  CYS336      0.1712
    175  C        -35.4080   18.6920    8.2160 C.2   336  CYS336      0.2296
    176  O        -34.7290   18.0180    7.4230 O.2   336  CYS336     -0.2864
    177  CB       -33.7070   18.0900    9.9050 C.3   336  CYS336      0.0983
    178  SG       -33.1490   17.9660   11.6060 S.3   336  CYS336     -0.0798
    179  N        -36.8680   11.1830    7.5650 N.3   389  HIS389     -0.1226
    180  CA       -35.6680   11.5840    8.3370 C.3   389  HIS389      0.1752
    181  C        -34.5240   10.5560    8.1730 C.2   389  HIS389      0.2595
    182  O        -33.3250   10.8850    8.2180 O.2   389  HIS389     -0.2718
    183  CB       -36.1100   11.6550    9.8080 C.3   389  HIS389      0.0759
    184  CG       -35.1700   12.3840   10.7340 C.ar  389  HIS389      0.0818
    185  ND1      -34.9190   13.7320   10.6460 N.ar  389  HIS389     -0.2268
    186  CD2      -34.5160   11.9550   11.8470 C.ar  389  HIS389      0.1154
    187  CE1      -34.0840   14.0900   11.6010 C.ar  389  HIS389      0.1986
    188  NE2      -33.8590   13.0420   12.3740 N.ar  389  HIS389     -0.2212
    189  N        -34.9170    9.2970    8.0480 N.am  390  MET390     -0.1979
    190  CA       -33.9480    8.1750    7.9820 C.3   390  MET390      0.1605
    191  C        -33.8800    7.6820    6.5870 C.2   390  MET390      0.2287
    192  O        -34.4360    6.6380    6.2410 O.2   390  MET390     -0.2864
    193  CB       -34.3200    7.0430    8.9210 C.3   390  MET390      0.0413
    194  CG       -34.3260    7.5510   10.3520 C.3   390  MET390      0.0598
    195  SD       -33.9390    6.2280   11.4840 S.3   390  MET390     -0.1393
    196  CE       -34.2100    7.2090   12.9600 C.3   390  MET390      0.0692
@<TRIPOS>BOND
     1   192   191    2
     2   191   190    1
     3   176   175    2
     4   179   180    1
     5   190   189    1
     6   190   193    1
     7   189   181   am
     8   181   182    2
     9   181   180    1
    10   175   174    1
    11   180   183    1
    12   100    99    2
    13   193   194    1
    14    49    48   ar
    15    99    98    1
    16    80    79    2
    17   174   177    1
    18   174   173    1
    19    77    78    1
    20   183   184    1
    21   177   178    1
    22    78    79    1
    23    78    81    1
    24    48    47    1
    25    48    50   ar
    26    84    82   am
    27   173   170   am
    28   194   195    1
    29    47    46    1
    30   185   184   ar
    31   185   187   ar
    32    46    43    1
    33   184   186   ar
    34    98    97    1
    35    98   101    1
    36    92    91    2
    37    43    42    1
    38    43    44    1
    39   168   169    1
    40    81    82    1
    41    82    83    2
    42    69    70    1
    43    91    97   am
    44    91    90    1
    45   170   169    1
    46   170   171    2
    47   195   196    1
    48    51    44   am
    49    51    52    1
    50   101   102    1
    51   187   188   ar
    52    71    70    1
    53    71    72    2
    54   186   188   ar
    55    44    45    2
    56   169   172    1
    57    70    73    1
    58    90    89    1
    59    90    93    1
    60    52    53    1
    61    52    55    1
    62    54    53    2
    63    37    36    2
    64   102   103   ar
    65   102   104   ar
    66   103   105   ar
    67    93    95    1
    68    93    94    1
    69    53    57   am
    70    55    56    1
    71    73    74    1
    72     8     6   am
    73    75    74    1
    74    36    35    1
    75     7     6    2
    76   104   106   ar
    77    41    39   ar
    78     6     5    1
    79    40    39   ar
    80    74    76    1
    81   105   107   ar
    82    94    96    1
    83    39    38    1
    84    57    58    1
    85     1     2    1
    86     2     5    1
    87     2     3    1
    88    59    60    2
    89    59    58    1
    90    35    38    1
    91    35    34    1
    92    85    86    1
    93   106   107   ar
    94    58    61    1
    95   107   108    1
    96   145   143    1
    97     3     9   am
    98     3     4    2
    99     9    10    1
   100    86    87    1
   101   143   140    1
   102   143   144    1
   103   140   139    1
   104   140   141    1
   105    10    11    1
   106   135   134    2
   107    61    62    1
   108    87    88    2
   109   141   142    2
   110   134   133    1
   111   152   153    1
   112   152   151    1
   113    62    63   ar
   114    62    64   ar
   115    63    65   ar
   116    11    13   am
   117    11    12    2
   118    13    14    1
   119    64    66   ar
   120   137   136    1
   121   137   138    1
   122    65    67   ar
   123   129   130    1
   124   129   126    1
   125    66    67   ar
   126   136   133    1
   127   133   132    1
   128   138   132    1
   129    16    15    2
   130   151   150    1
   131    67    68    1
   132   132   127   am
   133    32    33    1
   134    32    29    1
   135   128   127    2
   136    14    15    1
   137   130   131    1
   138   127   126    1
   139    31    30    2
   140    15    17   am
   141    33   159    1
   142    30    29    1
   143   126   125    1
   144   131   125    1
   145    29    28    1
   146   150   147    1
   147    17    23    1
   148    17    18    1
   149   159   158    1
   150   125   119   am
   151    23    22    1
   152    28    26   am
   153    18    21    1
   154    18    19    1
   155   149   148    2
   156   147   148    1
   157   147   146    1
   158   148   154   am
   159   119   120    2
   160   119   118    1
   161    21    22    1
   162    19    24   am
   163    19    20    2
   164    24    25    1
   165   158   155    1
   166    26    27    2
   167    26    25    1
   168   154   155    1
   169   118   121    1
   170   118   117    1
   171   155   156    1
   172   167   165   am
   173   121   122    1
   174   117   111   am
   175   123   122   ar
   176   165   166    2
   177   165   164    1
   178   156   157    2
   179   122   124   ar
   180   111   112    2
   181   111   110    1
   182   164   161    1
   183   110   113    1
   184   110   109    1
   185   113   114    1
   186   161   160    1
   187   161   162    1
   188   163   162    2
   189   114   115    1
   190   115   116    1
