@<TRIPOS>MOLECULE
tmp/4cibA00.pdb
 133 127 0 0 0
SMALL
GASTEIGER

@<TRIPOS>ATOM
      1  N        -25.3530    9.2440   15.1070 N.3    56  ASN56      -0.1225
      2  CA       -26.7340    9.6900   15.2380 C.3    56  ASN56       0.1785
      3  C        -26.8170   10.8610   16.2280 C.2    56  ASN56       0.2598
      4  O        -25.8100   11.2390   16.8470 O.2    56  ASN56      -0.2718
      5  CB       -27.6510    8.5320   15.6490 C.3    56  ASN56       0.1169
      6  CG       -28.0460    7.6580   14.4850 C.2    56  ASN56       0.2627
      7  OD1      -27.4480    6.6060   14.2770 O.2    56  ASN56      -0.2716
      8  ND2      -29.0620    8.0900   13.7020 N.am   56  ASN56      -0.0877
      9  N        -28.0040   11.4500   16.3760 N.am   57  GLY57      -0.1942
     10  CA       -28.1130   12.7170   17.1050 C.3    57  GLY57       0.2014
     11  C        -28.8060   12.5980   18.4520 C.2    57  GLY57       0.2639
     12  O        -28.3040   11.9250   19.3520 O.2    57  GLY57      -0.2714
     13  N        -29.9540   13.2570   18.5840 N.am   58  GLY58      -0.1954
     14  CA       -30.7070   13.2870   19.8480 C.3    58  GLY58       0.1869
     15  C        -30.9050   14.7350   20.2560 C.2    58  GLY58       0.2309
     16  O        -31.8600   15.3840   19.7940 O.2    58  GLY58      -0.2863
     17  N        -29.0420   10.1300   21.7220 N.3    61  CYS61      -0.1221
     18  CA       -29.4560    8.9160   21.0150 C.3    61  CYS61       0.1808
     19  C        -28.2960    8.1620   20.3720 C.2    61  CYS61       0.2601
     20  O        -27.2600    8.7410   20.0690 O.2    61  CYS61      -0.2717
     21  CB       -30.5560    9.2060   19.9900 C.3    61  CYS61       0.0970
     22  SG       -32.0390   10.0190   20.7130 S.3    61  CYS61      -0.0800
     23  N        -28.5180    6.8660   20.1620 N.am   62  SER62      -0.1952
     24  CA       -27.4750    5.8940   19.8150 C.3    62  SER62       0.1924
     25  C        -27.2220    5.7170   18.3130 C.2    62  SER62       0.2314
     26  O        -28.1570    5.5020   17.5370 O.2    62  SER62      -0.2863
     27  CB       -27.8760    4.5290   20.3810 C.3    62  SER62       0.2116
     28  OG       -27.0240    3.5190   19.8340 O.3    62  SER62      -0.2180
     29  N        -28.6590    2.8580   16.1740 N.3    65  ASP65      -0.1239
     30  CA       -29.7840    3.1150   15.2640 C.3    65  ASP65       0.1674
     31  C        -29.3200    3.1230   13.7990 C.2    65  ASP65       0.2266
     32  O        -29.9210    2.4630   12.9320 O.2    65  ASP65      -0.2867
     33  CB       -30.4470    4.4660   15.5480 C.3    65  ASP65       0.1410
     34  CG       -31.6550    4.6780   14.6850 C.2    65  ASP65       0.3668
     35  OD1      -32.6280    3.9110   14.8330 O.co2  65  ASP65      -0.2456
     36  OD2      -31.5940    5.5570   13.8060 O.co2  65  ASP65      -0.2456
     37  N        -26.2710   12.3040   11.4500 N.3   150  GLU150     -0.1231
     38  CA       -27.6620   12.6600   11.2030 C.3   150  GLU150      0.1699
     39  C        -28.2490   13.6130   12.2300 C.2   150  GLU150      0.2593
     40  O        -28.0110   13.4700   13.4360 O.2   150  GLU150     -0.2718
     41  CB       -28.4800   11.3690   11.2060 C.3   150  GLU150      0.0402
     42  CG       -29.9400   11.4830   10.8180 C.3   150  GLU150      0.1161
     43  CD       -30.5630   10.1030   10.7340 C.2   150  GLU150      0.3649
     44  OE1      -30.3200    9.4210    9.7090 O.co2 150  GLU150     -0.2457
     45  OE2      -31.2910    9.7100   11.6910 O.co2 150  GLU150     -0.2457
     46  N        -29.0530   14.5520   11.7360 N.am  151  SER151     -0.1938
     47  CA       -29.8860   15.4510   12.5570 C.3   151  SER151      0.2055
     48  C        -29.0910   16.2670   13.5710 C.2   151  SER151      0.2643
     49  O        -28.3670   17.1770   13.1700 O.2   151  SER151     -0.2714
     50  CB       -30.9950   14.6760   13.2460 C.3   151  SER151      0.2130
     51  OG       -31.9900   15.5700   13.7460 O.3   151  SER151     -0.2179
     52  N        -29.1960   15.9540   14.8680 N.am  152  TYR152     -0.1973
     53  CA       -28.3740   16.6920   15.8400 C.3   152  TYR152      0.1639
     54  C        -26.8740   16.5480   15.5590 C.2   152  TYR152      0.2290
     55  O        -26.0930   17.4310   15.8990 O.2   152  TYR152     -0.2864
     56  CB       -28.7210   16.4370   17.3400 C.3   152  TYR152      0.0560
     57  CG       -28.1600   17.6050   18.1690 C.ar  152  TYR152     -0.0198
     58  CD1      -28.8680   18.8100   18.2670 C.ar  152  TYR152     -0.0009
     59  CD2      -26.8920   17.5320   18.7730 C.ar  152  TYR152     -0.0009
     60  CE1      -28.3450   19.9130   18.9600 C.ar  152  TYR152      0.0417
     61  CE2      -26.3570   18.6250   19.4710 C.ar  152  TYR152      0.0417
     62  CZ       -27.1030   19.8140   19.5540 C.ar  152  TYR152      0.1957
     63  OH       -26.6010   20.9260   20.2080 O.3   152  TYR152     -0.2866
     64  N        -41.0450   12.6530   11.6420 N.3   248  TYR248     -0.1241
     65  CA       -39.8680   12.1380   10.9470 C.3   248  TYR248      0.1605
     66  C        -40.1830   11.7310    9.5050 C.2   248  TYR248      0.2264
     67  O        -39.2910   11.6660    8.6440 O.2   248  TYR248     -0.2867
     68  CB       -39.2380   10.9890   11.7430 C.3   248  TYR248      0.0534
     69  CG       -38.8630   11.4110   13.1560 C.ar  248  TYR248     -0.0201
     70  CD1      -37.8720   12.3800   13.3800 C.ar  248  TYR248     -0.0009
     71  CD2      -39.5110   10.8590   14.2680 C.ar  248  TYR248     -0.0009
     72  CE1      -37.5200   12.7740   14.6790 C.ar  248  TYR248      0.0417
     73  CE2      -39.1550   11.2610   15.5980 C.ar  248  TYR248      0.0417
     74  CZ       -38.1630   12.2030   15.7740 C.ar  248  TYR248      0.1957
     75  OH       -37.8260   12.5940   17.0650 O.3   248  TYR248     -0.2866
     76  N        -39.4350    8.8170   21.2950 N.3   262  PRO262     -0.2116
     77  CA       -40.0930   10.0540   20.8410 C.3   262  PRO262      0.1372
     78  C        -41.4000    9.6770   20.1350 C.2   262  PRO262      0.2244
     79  O        -41.4540    8.5820   19.5430 O.2   262  PRO262     -0.2868
     80  CB       -39.0970   10.6400   19.8230 C.3   262  PRO262      0.0268
     81  CG       -38.1410    9.5450   19.5180 C.3   262  PRO262      0.0207
     82  CD       -38.0710    8.7060   20.7540 C.3   262  PRO262      0.0892
     83  N        -42.4880    6.8860   17.0050 N.3   265  THR265     -0.1218
     84  CA       -41.3770    5.9940   16.6800 C.3   265  THR265      0.1862
     85  C        -41.4450    4.7540   17.5560 C.2   265  THR265      0.2287
     86  O        -42.0750    4.7650   18.6120 O.2   265  THR265     -0.2866
     87  CB       -40.0120    6.6570   16.8880 C.3   265  THR265      0.1770
     88  OG1      -39.8520    6.9870   18.2760 O.3   265  THR265     -0.2211
     89  CG2      -39.8750    7.9080   16.0370 C.3   265  THR265      0.0375
     90  N        -38.7820    1.6720   18.7330 N.3   267  THR267     -0.1218
     91  CA       -37.4090    1.1910   18.7350 C.3   267  THR267      0.1862
     92  C        -37.2980   -0.1660   19.4340 C.2   267  THR267      0.2287
     93  O        -36.2040   -0.5610   19.8620 O.2   267  THR267     -0.2866
     94  CB       -36.4810    2.1990   19.4780 C.3   267  THR267      0.1770
     95  OG1      -36.9120    2.3100   20.8400 O.3   267  THR267     -0.2211
     96  CG2      -36.5560    3.5500   18.8370 C.3   267  THR267      0.0375
     97  N        -32.3350    3.2860   23.2200 N.3   294  MET294     -0.1230
     98  CA       -32.0100    4.0430   22.0220 C.3   294  MET294      0.1702
     99  C        -31.5570    5.4630   22.3640 C.2   294  MET294      0.2592
    100  O        -30.6050    5.9840   21.7770 O.2   294  MET294     -0.2718
    101  CB       -33.2110    4.0890   21.0810 C.3   294  MET294      0.0401
    102  CG       -32.9440    4.8080   19.7880 C.3   294  MET294      0.0596
    103  SD       -31.6740    3.9430   18.8890 S.3   294  MET294     -0.1393
    104  CE       -32.6300    2.6710   18.0470 C.3   294  MET294      0.0692
    105  N        -32.2570    6.0870   23.3110 N.am  295  CYS295     -0.1970
    106  CA       -31.8850    7.4270   23.7640 C.3   295  CYS295      0.1712
    107  C        -31.8290    7.4500   25.2760 C.2   295  CYS295      0.2296
    108  O        -32.6590    6.8280   25.9440 O.2   295  CYS295     -0.2864
    109  CB       -32.8860    8.4890   23.2610 C.3   295  CYS295      0.0983
    110  SG       -33.2160    8.5080   21.4540 S.3   295  CYS295     -0.0798
    111  N        -38.7720   17.1020   10.9640 N.3   335  ALA335     -0.1245
    112  CA       -37.9490   17.4010   12.1480 C.3   335  ALA335      0.1562
    113  C        -36.7840   18.3030   11.7280 C.2   335  ALA335      0.2260
    114  O        -36.4800   19.3000   12.4020 O.2   335  ALA335     -0.2867
    115  CB       -37.4530   16.0990   12.8280 C.3   335  ALA335      0.0290
    116  N        -36.6840   11.4350    7.7480 N.3   389  HIS389     -0.1226
    117  CA       -35.5580   11.8100    8.6050 C.3   389  HIS389      0.1752
    118  C        -34.4310   10.7610    8.5710 C.2   389  HIS389      0.2595
    119  O        -33.2470   11.0840    8.7140 O.2   389  HIS389     -0.2718
    120  CB       -36.1150   11.9190   10.0180 C.3   389  HIS389      0.0759
    121  CG       -35.2230   12.6200   10.9930 C.ar  389  HIS389      0.0818
    122  ND1      -34.9540   13.9680   10.9240 N.ar  389  HIS389     -0.2268
    123  CD2      -34.5800   12.1640   12.0940 C.ar  389  HIS389      0.1154
    124  CE1      -34.2060   14.3190   11.9550 C.ar  389  HIS389      0.1986
    125  NE2      -33.9440   13.2380   12.6630 N.ar  389  HIS389     -0.2212
    126  N        -34.8170    9.5070    8.3690 N.am  390  MET390     -0.1979
    127  CA       -33.8410    8.4160    8.3050 C.3   390  MET390      0.1605
    128  C        -33.7600    7.9510    6.8470 C.2   390  MET390      0.2287
    129  O        -34.3310    6.9320    6.4560 O.2   390  MET390     -0.2864
    130  CB       -34.2180    7.2940    9.2720 C.3   390  MET390      0.0413
    131  CG       -34.0480    7.7010   10.7550 C.3   390  MET390      0.0598
    132  SD       -34.3710    6.3760   11.9450 S.3   390  MET390     -0.1393
    133  CE       -33.0660    5.2490   11.6630 C.3   390  MET390      0.0692
@<TRIPOS>BOND
     1   129   128    2
     2   128   127    1
     3   116   117    1
     4   127   126    1
     5   127   130    1
     6   126   118   am
     7   118   117    1
     8   118   119    2
     9   117   120    1
    10    67    66    2
    11   130   131    1
    12    66    65    1
    13    44    43   ar
    14   120   121    1
    15    43    42    1
    16    43    45   ar
    17   131   132    1
    18    42    41    1
    19   122   121   ar
    20   122   124   ar
    21    65    64    1
    22    65    68    1
    23   111   112    1
    24   121   123   ar
    25    38    41    1
    26    38    37    1
    27    38    39    1
    28   133   132    1
    29   113   112    1
    30   113   114    2
    31    46    39   am
    32    46    47    1
    33    68    69    1
    34   124   125   ar
    35   123   125   ar
    36   112   115    1
    37    39    40    2
    38    47    50    1
    39    47    48    1
    40    32    31    2
    41    69    70   ar
    42    69    71   ar
    43    49    48    2
    44    50    51    1
    45    70    72   ar
    46    48    52   am
    47     8     6   am
    48    31    30    1
    49    36    34   ar
    50    71    73   ar
    51     7     6    2
    52     6     5    1
    53    72    74   ar
    54    34    35   ar
    55    34    33    1
    56    52    53    1
    57     1     2    1
    58     2     5    1
    59     2     3    1
    60    30    33    1
    61    30    29    1
    62    54    53    1
    63    54    55    2
    64    73    74   ar
    65    74    75    1
    66    53    56    1
    67    89    87    1
    68     3     9   am
    69     3     4    2
    70     9    10    1
    71    84    87    1
    72    84    83    1
    73    84    85    1
    74    87    88    1
    75    10    11    1
    76    56    57    1
    77    26    25    2
    78    85    86    2
    79   104   103    1
    80    57    58   ar
    81    57    59   ar
    82    58    60   ar
    83    25    24    1
    84    11    13   am
    85    11    12    2
    86    13    14    1
    87    90    91    1
    88    91    92    1
    89    91    94    1
    90    59    61   ar
    91    96    94    1
    92   103   102    1
    93    60    62   ar
    94    92    93    2
    95    61    62   ar
    96    94    95    1
    97    81    80    1
    98    81    82    1
    99    79    78    2
   100    62    63    1
   101   102   101    1
   102    16    15    2
   103    24    23    1
   104    24    27    1
   105    80    77    1
   106    28    27    1
   107    14    15    1
   108    21    22    1
   109    21    18    1
   110    20    19    2
   111    78    77    1
   112    23    19   am
   113    19    18    1
   114    22   110    1
   115    82    76    1
   116    77    76    1
   117    18    17    1
   118   101    98    1
   119   110   109    1
   120   100    99    2
   121    98    99    1
   122    98    97    1
   123    99   105   am
   124   109   106    1
   125   105   106    1
   126   106   107    1
   127   107   108    2
