@<TRIPOS>MOLECULE
tmp/4cidA00.pdb
 170 170 0 0 0
SMALL
GASTEIGER

@<TRIPOS>ATOM
      1  N          8.2390  -49.4810   -5.8130 N.3    55  TYR55      -0.1227
      2  CA         8.0670  -50.4220   -4.7200 C.3    55  TYR55       0.1736
      3  C          7.7510  -51.8180   -5.2350 C.2    55  TYR55       0.2596
      4  O          7.0120  -51.9850   -6.2080 O.2    55  TYR55      -0.2718
      5  CB         6.9840  -49.9420   -3.7520 C.3    55  TYR55       0.0548
      6  CG         7.4290  -48.7670   -2.9140 C.ar   55  TYR55      -0.0200
      7  CD1        8.4660  -48.9050   -1.9960 C.ar   55  TYR55      -0.0009
      8  CD2        6.8190  -47.5190   -3.0350 C.ar   55  TYR55      -0.0009
      9  CE1        8.8850  -47.8340   -1.2200 C.ar   55  TYR55       0.0417
     10  CE2        7.2310  -46.4410   -2.2620 C.ar   55  TYR55       0.0417
     11  CZ         8.2650  -46.6030   -1.3570 C.ar   55  TYR55       0.1957
     12  OH         8.6850  -45.5400   -0.5860 O.3    55  TYR55      -0.2866
     13  N          8.3490  -52.8090   -4.5800 N.am   56  SER56      -0.1938
     14  CA         8.0890  -54.2220   -4.8490 C.3    56  SER56       0.2055
     15  C          8.4030  -54.6210   -6.2890 C.2    56  SER56       0.2644
     16  O          7.7950  -55.5470   -6.8240 O.2    56  SER56      -0.2714
     17  CB         6.6310  -54.5690   -4.5130 C.3    56  SER56       0.2130
     18  OG         6.2590  -54.0540   -3.2450 O.3    56  SER56      -0.2179
     19  N          9.3530  -53.9340   -6.9160 N.am   57  THR57      -0.1936
     20  CA         9.7380  -54.2710   -8.2780 C.3    57  THR57       0.2028
     21  C         10.6660  -55.4800   -8.2720 C.2    57  THR57       0.2643
     22  O         10.7360  -56.2190   -9.2490 O.2    57  THR57      -0.2714
     23  CB        10.4440  -53.1030   -8.9850 C.3    57  THR57       0.1808
     24  OG1        9.8470  -51.8630   -8.6020 O.3    57  THR57      -0.2208
     25  CG2       10.3130  -53.2470  -10.4730 C.3    57  THR57       0.0379
     26  N         11.3760  -55.6720   -7.1660 N.am   58  GLY58      -0.1939
     27  CA        12.2870  -56.8050   -7.0040 C.3    58  GLY58       0.2014
     28  C         13.7610  -56.4380   -6.9380 C.2    58  GLY58       0.2639
     29  O         14.6090  -57.2510   -7.2830 O.2    58  GLY58      -0.2714
     30  N         14.0710  -55.2310   -6.4740 N.am   59  LYS59      -0.1963
     31  CA        15.4500  -54.7460   -6.4370 C.3    59  LYS59       0.1728
     32  C         16.3040  -55.5820   -5.4880 C.2    59  LYS59       0.2617
     33  O         17.3560  -56.1070   -5.8640 O.2    59  LYS59      -0.2715
     34  CB        15.4820  -53.2870   -5.9840 C.3    59  LYS59       0.0311
     35  CG        14.6980  -52.3260   -6.8650 C.3    59  LYS59       0.0038
     36  CD        14.5110  -50.9780   -6.1880 C.3    59  LYS59       0.0206
     37  CE        13.4360  -51.0270   -5.1180 C.3    59  LYS59       0.1093
     38  NZ        13.8370  -50.2160   -3.9410 N.3    59  LYS59      -0.1314
     39  N         15.8390  -55.6990   -4.2510 N.am   60  THR60      -0.1937
     40  CA        16.5650  -56.4390   -3.2360 C.3    60  THR60       0.2028
     41  C         16.6990  -57.8960   -3.6740 C.2    60  THR60       0.2642
     42  O         17.7740  -58.4920   -3.5520 O.2    60  THR60      -0.2714
     43  CB        15.8690  -56.3270   -1.8640 C.3    60  THR60       0.1808
     44  OG1       15.5650  -54.9490   -1.5900 O.3    60  THR60      -0.2208
     45  CG2       16.7620  -56.8730   -0.7620 C.3    60  THR60       0.0379
     46  N         15.6140  -58.4530   -4.2070 N.am   61  SER61      -0.1949
     47  CA        15.6200  -59.8160   -4.7410 C.3    61  SER61       0.1924
     48  C         16.6550  -59.9950   -5.8570 C.2    61  SER61       0.2314
     49  O         17.3760  -60.9820   -5.8860 O.2    61  SER61      -0.2863
     50  CB        14.2270  -60.1920   -5.2650 C.3    61  SER61       0.2116
     51  OG        13.2640  -60.2030   -4.2230 O.3    61  SER61      -0.2180
     52  N         15.9500  -57.0430    3.5960 N.3    75  ARG75      -0.1231
     53  CA        15.1590  -58.2620    3.5560 C.3    75  ARG75       0.1694
     54  C         14.0590  -58.1230    2.5140 C.2    75  ARG75       0.2592
     55  O         13.6310  -57.0140    2.1970 O.2    75  ARG75      -0.2718
     56  CB        14.5450  -58.5520    4.9250 C.3    75  ARG75       0.0321
     57  CG        15.5700  -58.8140    6.0180 C.3    75  ARG75       0.0489
     58  CD        15.0340  -59.7560    7.0880 C.3    75  ARG75       0.2205
     59  NE        14.8610  -61.1170    6.5770 N.pl3  75  ARG75      -0.0865
     60  CZ        14.5190  -62.1730    7.3170 C.cat  75  ARG75       0.5346
     61  NH1       14.3060  -62.0520    8.6250 N.pl3  75  ARG75       0.1354
     62  NH2       14.3900  -63.3650    6.7440 N.pl3  75  ARG75       0.1354
     63  N         13.6130  -59.2580    1.9860 N.am   76  VAL76      -0.1966
     64  CA        12.5490  -59.2980    0.9780 C.3    76  VAL76       0.1727
     65  C         11.1610  -59.2240    1.6380 C.2    76  VAL76       0.2617
     66  O         10.9480  -59.7830    2.7160 O.2    76  VAL76      -0.2715
     67  CB        12.6790  -60.5620    0.0830 C.3    76  VAL76       0.0290
     68  CG1       12.3270  -61.8400    0.8420 C.3    76  VAL76       0.0023
     69  CG2       11.8230  -60.4340   -1.1680 C.3    76  VAL76       0.0023
     70  N         10.2280  -58.5250    0.9940 N.am   77  GLY77      -0.1941
     71  CA         8.8570  -58.4090    1.5000 C.3    77  GLY77       0.1998
     72  C          7.9160  -57.7650    0.4930 C.2    77  GLY77       0.2481
     73  O          8.3520  -56.9510   -0.3190 O.2    77  GLY77      -0.2729
     74  N          6.6140  -58.1160    0.5440 N.am   78  PRO78      -0.2715
     75  CA         5.6330  -57.5940   -0.4240 C.3    78  PRO78       0.1536
     76  C          5.2940  -56.1080   -0.2370 C.2    78  PRO78       0.2598
     77  O          5.1790  -55.3730   -1.2210 O.2    78  PRO78      -0.2715
     78  CB         4.3950  -58.4650   -0.1780 C.3    78  PRO78       0.0310
     79  CG         4.5170  -58.9210    1.2340 C.3    78  PRO78       0.0237
     80  CD         5.9850  -58.9910    1.5530 C.3    78  PRO78       0.0939
     81  N          5.1360  -55.6840    1.0160 N.am   79  GLU79      -0.1964
     82  CA         4.8570  -54.2870    1.3550 C.3    79  GLU79       0.1718
     83  C          6.1960  -53.5340    1.3560 C.2    79  GLU79       0.2458
     84  O          7.2490  -54.1720    1.4470 O.2    79  GLU79      -0.2730
     85  CB         4.1680  -54.2170    2.7310 C.3    79  GLU79       0.0428
     86  CG         3.1370  -53.1040    2.8890 C.3    79  GLU79       0.1163
     87  CD         2.0520  -53.4260    3.9040 C.2    79  GLU79       0.3649
     88  OE1        1.4280  -54.5020    3.7990 O.co2  79  GLU79      -0.2457
     89  OE2        1.8170  -52.5960    4.8070 O.co2  79  GLU79      -0.2457
     90  N          6.1740  -52.1880    1.2280 N.am   80  PRO80      -0.2716
     91  CA         7.4220  -51.4110    1.2790 C.3    80  PRO80       0.1536
     92  C          8.3200  -51.7310    2.4880 C.2    80  PRO80       0.2599
     93  O          8.0230  -51.3150    3.6120 O.2    80  PRO80      -0.2715
     94  CB         6.9210  -49.9650    1.3330 C.3    80  PRO80       0.0310
     95  CG         5.6510  -49.9980    0.5600 C.3    80  PRO80       0.0237
     96  CD         5.0310  -51.3430    0.8250 C.3    80  PRO80       0.0939
     97  N          9.4070  -52.4670    2.2400 N.am   81  THR81      -0.1937
     98  CA        10.3070  -52.9380    3.3010 C.3    81  THR81       0.2028
     99  C         11.5240  -52.0180    3.4570 C.2    81  THR81       0.2642
    100  O         11.7280  -51.4200    4.5170 O.2    81  THR81      -0.2714
    101  CB        10.7900  -54.3870    3.0320 C.3    81  THR81       0.1808
    102  OG1        9.6900  -55.1980    2.5960 O.3    81  THR81      -0.2208
    103  CG2       11.4020  -55.0040    4.2920 C.3    81  THR81       0.0379
    104  N         12.3240  -51.9100    2.3970 N.am   82  THR82      -0.1950
    105  CA        13.5530  -51.1140    2.4140 C.3    82  THR82       0.1897
    106  C         13.2140  -49.6280    2.5430 C.2    82  THR82       0.2313
    107  O         12.3150  -49.1290    1.8620 O.2    82  THR82      -0.2863
    108  CB        14.3900  -51.3340    1.1270 C.3    82  THR82       0.1794
    109  OG1       14.5690  -52.7380    0.8850 O.3    82  THR82      -0.2208
    110  CG2       15.7590  -50.6740    1.2400 C.3    82  THR82       0.0378
    111  N         12.6220  -47.7720   -2.4890 N.3   131  GLY131     -0.1225
    112  CA        11.6350  -47.8610   -3.5580 C.3   131  GLY131      0.1811
    113  C         11.1200  -46.4950   -3.9590 C.2   131  GLY131      0.2280
    114  O         10.8260  -45.6630   -3.0990 O.2   131  GLY131     -0.2866
    115  N         11.1240  -57.0640  -15.0440 N.3   189  ASN189     -0.1225
    116  CA        11.1070  -58.1610  -14.1000 C.3   189  ASN189      0.1785
    117  C          9.7570  -58.8590  -14.0440 C.2   189  ASN189      0.2597
    118  O          8.7260  -58.2990  -14.4430 O.2   189  ASN189     -0.2718
    119  CB        11.4780  -57.6460  -12.7040 C.3   189  ASN189      0.1169
    120  CG        12.0830  -58.7250  -11.8250 C.2   189  ASN189      0.2627
    121  OD1       12.4530  -59.7920  -12.3110 O.2   189  ASN189     -0.2716
    122  ND2       12.1930  -58.4510  -10.5260 N.am  189  ASN189     -0.0877
    123  N          9.7850  -60.0900  -13.5450 N.am  190  LYS190     -0.1980
    124  CA         8.5910  -60.9010  -13.3080 C.3   190  LYS190      0.1596
    125  C          7.8640  -61.2840  -14.5860 C.2   190  LYS190      0.2287
    126  O          6.6880  -61.6320  -14.5420 O.2   190  LYS190     -0.2864
    127  CB         7.6090  -60.1920  -12.3630 C.3   190  LYS190      0.0298
    128  CG         8.2620  -59.5340  -11.1570 C.3   190  LYS190      0.0038
    129  CD         7.2600  -59.1390  -10.0790 C.3   190  LYS190      0.0206
    130  CE         7.9290  -58.2550   -9.0340 C.3   190  LYS190      0.1093
    131  NZ         7.0020  -57.8150   -7.9640 N.3   190  LYS190     -0.1314
    132  N          7.6980  -63.8410  -16.2350 N.3   192  ASP192     -0.1239
    133  CA         7.0870  -65.1750  -16.1480 C.3   192  ASP192      0.1674
    134  C          5.7520  -65.2020  -15.4040 C.2   192  ASP192      0.2266
    135  O          5.1550  -66.2700  -15.2520 O.2   192  ASP192     -0.2867
    136  CB         8.0420  -66.1460  -15.4510 C.3   192  ASP192      0.1410
    137  CG         8.1600  -65.8830  -13.9600 C.2   192  ASP192      0.3668
    138  OD1        8.0730  -64.7040  -13.5480 O.co2 192  ASP192     -0.2456
    139  OD2        8.3460  -66.8540  -13.1940 O.co2 192  ASP192     -0.2456
    140  N         12.6990  -62.8100  -15.1630 N.3   223  SER223     -0.1202
    141  CA        12.3320  -62.9140  -13.7600 C.3   223  SER223      0.2020
    142  C         13.5990  -63.2900  -12.9920 C.2   223  SER223      0.2619
    143  O         14.0080  -64.4440  -12.9810 O.2   223  SER223     -0.2717
    144  CB        11.1830  -63.9190  -13.5560 C.3   223  SER223      0.2103
    145  OG        11.6450  -65.2140  -13.2120 O.3   223  SER223     -0.2182
    146  N         14.2170  -62.2920  -12.3680 N.am  224  PHE224     -0.1961
    147  CA        15.5210  -62.4410  -11.7250 C.3   224  PHE224      0.1771
    148  C         15.3080  -62.9360  -10.2990 C.2   224  PHE224      0.2619
    149  O         15.2020  -62.1750   -9.3350 O.2   224  PHE224     -0.2715
    150  CB        16.2860  -61.1300  -11.8170 C.3   224  PHE224      0.0574
    151  CG        16.5840  -60.7300  -13.2370 C.ar  224  PHE224     -0.0200
    152  CD1       15.6010  -60.1460  -14.0320 C.ar  224  PHE224     -0.0042
    153  CD2       17.8260  -60.9840  -13.8030 C.ar  224  PHE224     -0.0042
    154  CE1       15.8610  -59.8000  -15.3490 C.ar  224  PHE224     -0.0003
    155  CE2       18.0910  -60.6370  -15.1170 C.ar  224  PHE224     -0.0003
    156  CZ        17.1090  -60.0440  -15.8890 C.ar  224  PHE224     -0.0000
    157  N         15.2850  -64.2590  -10.2140 N.am  225  TRP225     -0.1974
    158  CA        14.4090  -64.9850   -9.3250 C.3   225  TRP225      0.1640
    159  C         14.8720  -66.4440   -9.3400 C.2   225  TRP225      0.2290
    160  O         14.8750  -67.0890  -10.3960 O.2   225  TRP225     -0.2864
    161  CB        13.0060  -64.8820   -9.9410 C.3   225  TRP225      0.0576
    162  CG        11.8440  -65.2390   -9.1080 C.ar  225  TRP225      0.0006
    163  CD1       10.7930  -66.0190   -9.4830 C.ar  225  TRP225      0.0946
    164  CD2       11.5650  -64.7930   -7.7830 C.ar  225  TRP225      0.0152
    165  NE1        9.8830  -66.1050   -8.4610 N.ar  225  TRP225     -0.2442
    166  CE2       10.3320  -65.3610   -7.4040 C.ar  225  TRP225      0.0810
    167  CE3       12.2400  -63.9780   -6.8720 C.ar  225  TRP225      0.0012
    168  CZ2        9.7580  -65.1400   -6.1540 C.ar  225  TRP225      0.0191
    169  CZ3       11.6680  -63.7580   -5.6260 C.ar  225  TRP225      0.0001
    170  CH2       10.4380  -64.3380   -5.2800 C.ar  225  TRP225      0.0015
@<TRIPOS>BOND
     1   132   133    1
     2   133   136    1
     3   133   134    1
     4   156   154   ar
     5   156   155   ar
     6   136   137    1
     7   134   135    2
     8   154   152   ar
     9   140   141    1
    10   155   153   ar
    11   115   116    1
    12   125   126    2
    13   125   124    1
    14   118   117    2
    15   116   117    1
    16   116   119    1
    17   117   123   am
    18   152   151   ar
    19   137   138   ar
    20   137   139   ar
    21   153   151   ar
    22   141   144    1
    23   141   142    1
    24   144   145    1
    25   123   124    1
    26   124   127    1
    27   151   150    1
    28   142   143    2
    29   142   146   am
    30   119   120    1
    31   146   147    1
    32   127   128    1
    33   121   120    2
    34   120   122   am
    35   150   147    1
    36   147   148    1
    37   128   129    1
    38    25    23    1
    39   160   159    2
    40   148   157   am
    41   148   149    2
    42   157   158    1
    43   129   130    1
    44   161   158    1
    45   161   162    1
    46   163   162   ar
    47   163   165   ar
    48   159   158    1
    49    22    21    2
    50   162   164   ar
    51   130   131    1
    52    23    24    1
    53    23    20    1
    54   165   166   ar
    55    20    21    1
    56    20    19    1
    57    21    26   am
    58   164   166   ar
    59   164   167   ar
    60   166   168   ar
    61    29    28    2
    62    26    27    1
    63    27    28    1
    64    28    30   am
    65    19    15   am
    66   167   169   ar
    67    35    36    1
    68    35    34    1
    69    16    15    2
    70    30    31    1
    71    31    34    1
    72    31    32    1
    73    15    14    1
    74     4     3    2
    75    36    37    1
    76   168   170   ar
    77    49    48    2
    78    33    32    2
    79    48    47    1
    80     1     2    1
    81   169   170   ar
    82    32    39   am
    83    50    47    1
    84    50    51    1
    85     3     2    1
    86     3    13   am
    87    37    38    1
    88    14    13    1
    89    14    17    1
    90    47    46    1
    91     2     5    1
    92    17    18    1
    93    39    40    1
    94    46    41   am
    95   113   112    1
    96   113   114    2
    97     5     6    1
    98    41    42    2
    99    41    40    1
   100   112   111    1
   101    40    43    1
   102     8     6   ar
   103     8    10   ar
   104     6     7   ar
   105    10    11   ar
   106     7     9   ar
   107    43    44    1
   108    43    45    1
   109    11     9   ar
   110    11    12    1
   111    77    76    2
   112    69    67    1
   113    75    76    1
   114    75    78    1
   115    75    74    1
   116    73    72    2
   117    76    81   am
   118    78    79    1
   119    67    68    1
   120    67    64    1
   121    72    74   am
   122    72    71    1
   123    74    80    1
   124    95    96    1
   125    95    94    1
   126    96    90    1
   127   109   108    1
   128    64    65    1
   129    64    63    1
   130    70    71    1
   131    70    65   am
   132    81    82    1
   133   108   110    1
   134   108   105    1
   135    90    91    1
   136    90    83   am
   137    79    80    1
   138    91    94    1
   139    91    92    1
   140    82    83    1
   141    82    85    1
   142    83    84    2
   143    65    66    2
   144   107   106    2
   145    63    54   am
   146    55    54    2
   147    97    92   am
   148    97    98    1
   149   104   105    1
   150   104    99   am
   151   105   106    1
   152    92    93    2
   153    54    53    1
   154   102   101    1
   155    85    86    1
   156    86    87    1
   157   101    98    1
   158   101   103    1
   159    98    99    1
   160    99   100    2
   161    53    52    1
   162    53    56    1
   163    88    87   ar
   164    87    89   ar
   165    56    57    1
   166    57    58    1
   167    59    58    1
   168    59    60    2
   169    62    60    1
   170    60    61    1
