@<TRIPOS>MOLECULE
tmp/4cikA00.pdb
 106 106 0 0 0
SMALL
GASTEIGER

@<TRIPOS>ATOM
      1  N         -4.6860    8.3120   14.5140 N.3    36  ARG36      -0.1231
      2  CA        -4.1210    8.4900   15.8570 C.3    36  ARG36       0.1694
      3  C         -2.5960    8.3690   15.6730 C.2    36  ARG36       0.2592
      4  O         -1.8000    8.8590   16.4880 O.2    36  ARG36      -0.2718
      5  CB        -4.6020    7.3780   16.8010 C.3    36  ARG36       0.0321
      6  CG        -5.9540    7.6310   17.4680 C.3    36  ARG36       0.0489
      7  CD        -6.1830    6.6330   18.6310 C.3    36  ARG36       0.2205
      8  NE        -6.0150    5.2530   18.1900 N.pl3  36  ARG36      -0.0865
      9  CZ        -5.3170    4.3250   18.8360 C.cat  36  ARG36       0.5346
     10  NH1       -4.7110    4.5990   19.9960 N.pl3  36  ARG36       0.1354
     11  NH2       -5.2290    3.1120   18.3190 N.pl3  36  ARG36       0.1354
     12  N         -2.2000    7.7160   14.5810 N.am   37  PHE37      -0.1976
     13  CA        -0.7930    7.5130   14.2050 C.3    37  PHE37       0.1639
     14  C         -0.5840    8.0520   12.8040 C.2    37  PHE37       0.2290
     15  O         -1.2230    7.6000   11.8540 O.2    37  PHE37      -0.2864
     16  CB        -0.4160    6.0320   14.2390 C.3    37  PHE37       0.0560
     17  CG        -0.5250    5.4120   15.5970 C.ar   37  PHE37      -0.0200
     18  CD1        0.5590    5.4060   16.4620 C.ar   37  PHE37      -0.0042
     19  CD2       -1.7030    4.8020   15.9950 C.ar   37  PHE37      -0.0042
     20  CE1        0.4390    4.8520   17.7570 C.ar   37  PHE37      -0.0003
     21  CE2       -1.8300    4.2430   17.2620 C.ar   37  PHE37      -0.0003
     22  CZ        -0.7680    4.2780   18.1520 C.ar   37  PHE37      -0.0000
     23  N          1.1970    0.6330   16.7050 N.3    56  ASP56      -0.1239
     24  CA         0.6060    0.3570   18.0150 C.3    56  ASP56       0.1674
     25  C          0.8810   -1.0520   18.5870 C.2    56  ASP56       0.2266
     26  O          0.2360   -1.4760   19.5470 O.2    56  ASP56      -0.2867
     27  CB        -0.8930    0.7180   18.0320 C.3    56  ASP56       0.1410
     28  CG        -1.7460   -0.2590   17.2480 C.2    56  ASP56       0.3668
     29  OD1       -1.1980   -0.9970   16.3830 O.co2  56  ASP56      -0.2456
     30  OD2       -2.9600   -0.3150   17.5500 O.co2  56  ASP56      -0.2456
     31  N          0.1220   -4.0270   17.6840 N.3    58  ASP58      -0.1225
     32  CA        -1.0280   -4.9230   17.6880 C.3    58  ASP58       0.1790
     33  C         -0.4900   -6.3480   17.5490 C.2    58  ASP58       0.2439
     34  O          0.2560   -6.6600   16.6180 O.2    58  ASP58      -0.2733
     35  CB        -1.9500   -4.6050   16.4860 C.3    58  ASP58       0.1423
     36  CG        -3.3160   -5.2960   16.5880 C.2    58  ASP58       0.3668
     37  OD1       -3.3700   -6.4720   17.0020 O.co2  58  ASP58      -0.2456
     38  OD2       -4.3480   -4.6820   16.2390 O.co2  58  ASP58      -0.2456
     39  N         -0.9140   -7.2460   18.4370 N.am   59  PRO59      -0.2729
     40  CA        -0.4470   -8.6260   18.3020 C.3    59  PRO59       0.1401
     41  C         -0.9550   -9.2600   17.0030 C.2    59  PRO59       0.2269
     42  O         -0.4670  -10.3020   16.5850 O.2    59  PRO59      -0.2865
     43  CB        -1.1090   -9.3370   19.4800 C.3    59  PRO59       0.0296
     44  CG        -1.3610   -8.2480   20.4980 C.3    59  PRO59       0.0237
     45  CD        -1.6790   -7.0220   19.6790 C.3    59  PRO59       0.0939
     46  N         -1.2860   -3.2940    9.9070 N.3    63  TRP63      -0.1241
     47  CA        -2.6010   -2.9020    9.4510 C.3    63  TRP63       0.1605
     48  C         -2.5100   -1.5190    8.8110 C.2    63  TRP63       0.2264
     49  O         -1.4340   -0.9330    8.7160 O.2    63  TRP63      -0.2867
     50  CB        -3.5040   -2.8220   10.6810 C.3    63  TRP63       0.0550
     51  CG        -2.9190   -1.9870   11.7700 C.ar   63  TRP63       0.0003
     52  CD1       -2.1370   -2.4250   12.7830 C.ar   63  TRP63       0.0946
     53  CD2       -3.0690   -0.5640   11.9580 C.ar   63  TRP63       0.0152
     54  NE1       -1.7860   -1.3790   13.6010 N.ar   63  TRP63      -0.2442
     55  CE2       -2.3970   -0.2340   13.1560 C.ar   63  TRP63       0.0810
     56  CE3       -3.7740    0.4410   11.2880 C.ar   63  TRP63       0.0012
     57  CZ2       -2.3470    1.0770   13.6610 C.ar   63  TRP63       0.0191
     58  CZ3       -3.7740    1.7370   11.8290 C.ar   63  TRP63       0.0001
     59  CH2       -3.0520    2.0450   12.9970 C.ar   63  TRP63       0.0015
     60  N         -5.0820    2.3620    8.0060 N.3    65  TYR65      -0.1241
     61  CA        -6.4010    2.9900    7.9640 C.3    65  TYR65       0.1605
     62  C         -6.8490    2.7090    6.5220 C.2    65  TYR65       0.2264
     63  O         -6.0090    2.7290    5.6170 O.2    65  TYR65      -0.2867
     64  CB        -6.3090    4.4950    8.2550 C.3    65  TYR65       0.0534
     65  CG        -5.9370    4.7970    9.6870 C.ar   65  TYR65      -0.0201
     66  CD1       -6.8120    4.5150   10.7280 C.ar   65  TYR65      -0.0009
     67  CD2       -4.6630    5.2630   10.0180 C.ar   65  TYR65      -0.0009
     68  CE1       -6.4750    4.7940   12.0430 C.ar   65  TYR65       0.0417
     69  CE2       -4.2960    5.4560   11.3390 C.ar   65  TYR65       0.0417
     70  CZ        -5.2240    5.2810   12.3390 C.ar   65  TYR65       0.1957
     71  OH        -4.8980    5.5010   13.6590 O.3    65  TYR65      -0.2866
     72  N        -12.6770    1.7480    9.5780 N.3    72  ARG72      -0.1231
     73  CA       -11.5430    2.6030    9.9360 C.3    72  ARG72       0.1694
     74  C        -10.1850    1.9730    9.6650 C.2    72  ARG72       0.2592
     75  O         -9.2860    2.6190    9.1300 O.2    72  ARG72      -0.2718
     76  CB       -11.6100    3.0130   11.3980 C.3    72  ARG72       0.0321
     77  CG       -10.5210    3.9600   11.7890 C.3    72  ARG72       0.0489
     78  CD       -10.9200    4.5910   13.0940 C.3    72  ARG72       0.2205
     79  NE        -9.7620    5.1670   13.7390 N.pl3  72  ARG72      -0.0865
     80  CZ        -9.3910    6.4300   13.5990 C.cat  72  ARG72       0.5346
     81  NH1      -10.1140    7.2760   12.8660 N.pl3  72  ARG72       0.1354
     82  NH2       -8.2890    6.8340   14.1880 N.pl3  72  ARG72       0.1354
     83  N        -10.0110    0.7370   10.1080 N.am   73  TYR73      -0.1976
     84  CA        -8.7390    0.0660    9.9300 C.3    73  TYR73       0.1639
     85  C         -8.9710   -1.3890    9.6080 C.2    73  TYR73       0.2290
     86  O        -10.0470   -1.9590    9.8630 O.2    73  TYR73      -0.2864
     87  CB        -7.8740    0.1740   11.2180 C.3    73  TYR73       0.0560
     88  CG        -8.3960   -0.6830   12.3750 C.ar   73  TYR73      -0.0198
     89  CD1       -9.3310   -0.1740   13.2810 C.ar   73  TYR73      -0.0009
     90  CD2       -7.9100   -1.9800   12.5950 C.ar   73  TYR73      -0.0009
     91  CE1       -9.8200   -0.9630   14.3330 C.ar   73  TYR73       0.0417
     92  CE2       -8.3720   -2.7510   13.6390 C.ar   73  TYR73       0.0417
     93  CZ        -9.3290   -2.2340   14.5090 C.ar   73  TYR73       0.1957
     94  OH        -9.8050   -2.9980   15.5580 O.3    73  TYR73      -0.2866
     95  N         -6.4260   -5.2720    8.9960 N.3    75  TYR75      -0.1241
     96  CA        -5.1570   -5.9400    8.8050 C.3    75  TYR75       0.1605
     97  C         -4.8490   -6.2800    7.3540 C.2    75  TYR75       0.2264
     98  O         -5.7440   -6.3960    6.4950 O.2    75  TYR75      -0.2867
     99  CB        -5.1140   -7.1850    9.6770 C.3    75  TYR75       0.0534
    100  CG        -5.3990   -6.8450   11.1180 C.ar   75  TYR75      -0.0201
    101  CD1       -4.4060   -6.3000   11.9270 C.ar   75  TYR75      -0.0009
    102  CD2       -6.6750   -6.9980   11.6560 C.ar   75  TYR75      -0.0009
    103  CE1       -4.6790   -5.9110   13.2270 C.ar   75  TYR75       0.0417
    104  CE2       -6.9560   -6.5980   12.9410 C.ar   75  TYR75       0.0417
    105  CZ        -5.9390   -6.0830   13.7410 C.ar   75  TYR75       0.1957
    106  OH        -6.2040   -5.7150   15.0540 O.3    75  TYR75      -0.2866
@<TRIPOS>BOND
     1    63    62    2
     2    98    97    2
     3    62    61    1
     4    97    96    1
     5    61    60    1
     6    61    64    1
     7    64    65    1
     8    49    48    2
     9    96    95    1
    10    96    99    1
    11    48    47    1
    12    75    74    2
    13    47    46    1
    14    47    50    1
    15    72    73    1
    16    85    86    2
    17    85    84    1
    18    74    73    1
    19    74    83   am
    20    99   100    1
    21    65    67   ar
    22    65    66   ar
    23    84    83    1
    24    84    87    1
    25    73    76    1
    26    67    69   ar
    27    50    51    1
    28    66    68   ar
    29   100   102   ar
    30   100   101   ar
    31    87    88    1
    32    56    58   ar
    33    56    53   ar
    34    69    70   ar
    35    76    77    1
    36   102   104   ar
    37    51    53   ar
    38    51    52   ar
    39    77    78    1
    40    58    59   ar
    41    15    14    2
    42   101   103   ar
    43    53    55   ar
    44    68    70   ar
    45    70    71    1
    46    88    90   ar
    47    88    89   ar
    48    90    92   ar
    49    52    54   ar
    50    14    13    1
    51    81    80    1
    52   104   105   ar
    53    59    57   ar
    54    78    79    1
    55    55    54   ar
    56    55    57   ar
    57   103   105   ar
    58    89    91   ar
    59    80    79    2
    60    80    82    1
    61    92    93   ar
    62   105   106    1
    63    13    16    1
    64    13    12    1
    65    16    17    1
    66    91    93   ar
    67    93    94    1
    68     1     2    1
    69    12     3   am
    70    17    19   ar
    71    17    18   ar
    72     3     2    1
    73     3     4    2
    74     2     5    1
    75    19    21   ar
    76    38    36   ar
    77    29    28   ar
    78    18    20   ar
    79    35    36    1
    80    35    32    1
    81    42    41    2
    82    36    37   ar
    83    34    33    2
    84    23    24    1
    85     5     6    1
    86    41    40    1
    87    28    30   ar
    88    28    27    1
    89    21    22   ar
    90     6     7    1
    91    33    32    1
    92    33    39   am
    93    31    32    1
    94    20    22   ar
    95    24    27    1
    96    24    25    1
    97     8     7    1
    98     8     9    2
    99    40    39    1
   100    40    43    1
   101    11     9    1
   102    39    45    1
   103    25    26    2
   104     9    10    1
   105    43    44    1
   106    45    44    1
