@<TRIPOS>MOLECULE
tmp/4cinA00.pdb
 101 97 0 0 0
SMALL
GASTEIGER

@<TRIPOS>ATOM
      1  N        -47.1780    5.1810   12.7670 N.3     9  VAL9       -0.1231
      2  CA       -46.8730    6.5950   12.9230 C.3     9  VAL9        0.1692
      3  C        -47.3750    7.4030   11.7300 C.2     9  VAL9        0.2592
      4  O        -47.9780    8.4590   11.8900 O.2     9  VAL9       -0.2718
      5  CB       -45.3680    6.8140   13.1040 C.3     9  VAL9        0.0266
      6  CG1      -45.0320    8.3050   13.1450 C.3     9  VAL9        0.0020
      7  CG2      -44.9090    6.1350   14.3540 C.3     9  VAL9        0.0020
      8  N        -47.1330    6.8950   10.5310 N.am   10  ASP10      -0.1974
      9  CA       -47.6330    7.5490    9.3440 C.3    10  ASP10       0.1709
     10  C        -49.1420    7.6490    9.3260 C.2    10  ASP10       0.2293
     11  O        -49.7060    8.6880    8.9730 O.2    10  ASP10      -0.2864
     12  CB       -47.1840    6.8110    8.1040 C.3    10  ASP10       0.1436
     13  CG       -47.2950    7.6670    6.8740 C.2    10  ASP10       0.3671
     14  OD1      -48.4110    7.7340    6.3200 O.co2  10  ASP10      -0.2456
     15  OD2      -46.2690    8.2840    6.4800 O.co2  10  ASP10      -0.2456
     16  N        -50.1220   10.3460   12.1480 N.3    13  SER13      -0.1202
     17  CA       -49.7470   11.7470   11.8900 C.3    13  SER13       0.2020
     18  C        -50.6980   12.3730   10.9060 C.2    13  SER13       0.2618
     19  O        -51.0500   13.5550   10.9960 O.2    13  SER13      -0.2717
     20  CB       -48.3640   11.8280   11.2780 C.3    13  SER13       0.2103
     21  OG       -47.5620   10.7620   11.7160 O.3    13  SER13      -0.2182
     22  N        -51.0860   11.5480    9.9460 N.am   14  TYR14      -0.1975
     23  CA       -51.9990   11.9410    8.9050 C.3    14  TYR14       0.1639
     24  C        -53.3680   12.1750    9.4970 C.2    14  TYR14       0.2290
     25  O        -53.9930   13.2050    9.2680 O.2    14  TYR14      -0.2864
     26  CB       -52.0560   10.8510    7.8410 C.3    14  TYR14       0.0560
     27  CG       -53.1600   11.0480    6.8580 C.ar   14  TYR14      -0.0198
     28  CD1      -53.2180   12.1990    6.0780 C.ar   14  TYR14      -0.0009
     29  CD2      -54.1530   10.0960    6.7060 C.ar   14  TYR14      -0.0009
     30  CE1      -54.2390   12.4000    5.1710 C.ar   14  TYR14       0.0417
     31  CE2      -55.1850   10.2790    5.8000 C.ar   14  TYR14       0.0417
     32  CZ       -55.2220   11.4330    5.0300 C.ar   14  TYR14       0.1957
     33  OH       -56.2470   11.6260    4.1270 O.3    14  TYR14      -0.2866
     34  N        -53.1800   15.3720   11.7310 N.3    17  SER17      -0.1217
     35  CA       -52.9950   16.6460   11.0520 C.3    17  SER17       0.1889
     36  C        -54.2940   17.1250   10.4260 C.2    17  SER17       0.2288
     37  O        -54.5070   18.3280   10.2450 O.2    17  SER17      -0.2866
     38  CB       -51.9710   16.4880    9.9670 C.3    17  SER17       0.2089
     39  OG       -52.5810   15.8390    8.8880 O.3    17  SER17      -0.2183
     40  N        -47.9590   15.3400   14.9020 N.3    23  TRP23      -0.1227
     41  CA       -47.3040   14.2600   15.6430 C.3    23  TRP23       0.1737
     42  C        -45.9070   14.5790   16.1790 C.2    23  TRP23       0.2596
     43  O        -45.6290   14.3160   17.3400 O.2    23  TRP23      -0.2718
     44  CB       -47.2940   12.9750   14.8100 C.3    23  TRP23       0.0564
     45  CG       -46.3870   11.8970   15.3120 C.ar   23  TRP23       0.0003
     46  CD1      -45.0380   11.7830   15.1000 C.ar   23  TRP23       0.0946
     47  CD2      -46.7690   10.7550   16.0820 C.ar   23  TRP23       0.0152
     48  NE1      -44.5530   10.6490   15.7120 N.ar   23  TRP23      -0.2442
     49  CE2      -45.5970    9.9960   16.3170 C.ar   23  TRP23       0.0810
     50  CE3      -47.9890   10.2980   16.6030 C.ar   23  TRP23       0.0012
     51  CZ2      -45.6100    8.8060   17.0540 C.ar   23  TRP23       0.0191
     52  CZ3      -48.0010    9.1170   17.3290 C.ar   23  TRP23       0.0001
     53  CH2      -46.8170    8.3870   17.5530 C.ar   23  TRP23       0.0015
     54  N        -45.0220   15.0910   15.3340 N.am   24  SER24      -0.1952
     55  CA       -43.7230   15.5750   15.7930 C.3    24  SER24       0.1924
     56  C        -43.3690   16.8950   15.1240 C.2    24  SER24       0.2314
     57  O        -44.1880   17.4730   14.4220 O.2    24  SER24      -0.2863
     58  CB       -42.6090   14.5400   15.5940 C.3    24  SER24       0.2116
     59  OG       -42.4870   14.0820   14.2610 O.3    24  SER24      -0.2180
     60  N        -41.0400   17.0480   12.9110 N.3    26  MET26      -0.1230
     61  CA       -40.8300   16.5780   11.5580 C.3    26  MET26       0.1702
     62  C        -42.1620   16.3920   10.8220 C.2    26  MET26       0.2592
     63  O        -42.2750   16.7250    9.6340 O.2    26  MET26      -0.2718
     64  CB       -40.0220   15.2760   11.5630 C.3    26  MET26       0.0401
     65  CG       -39.6630   14.7510   10.1700 C.3    26  MET26       0.0596
     66  SD       -38.5360   15.8130    9.2390 S.3    26  MET26      -0.1393
     67  CE       -37.0210   14.8670    9.3070 C.3    26  MET26       0.0692
     68  N        -43.1690   15.8730   11.5210 N.am   27  ALA27      -0.1980
     69  CA       -44.4870   15.7000   10.9150 C.3    27  ALA27       0.1597
     70  C        -45.0740   17.0490   10.5250 C.2    27  ALA27       0.2287
     71  O        -45.8020   17.1700    9.5460 O.2    27  ALA27      -0.2864
     72  CB       -45.4290   14.9570   11.8590 C.3    27  ALA27       0.0319
     73  N        -42.9480   18.3490    7.1420 N.3    30  LYS30      -0.1231
     74  CA       -43.4970   17.5630    6.0480 C.3    30  LYS30       0.1693
     75  C        -44.8730   18.0580    5.6020 C.2    30  LYS30       0.2591
     76  O        -45.0940   18.2700    4.4150 O.2    30  LYS30      -0.2718
     77  CB       -43.5760   16.0760    6.4210 C.3    30  LYS30       0.0285
     78  CG       -42.2330   15.3680    6.5410 C.3    30  LYS30       0.0035
     79  CD       -42.4650   14.0030    7.1490 C.3    30  LYS30       0.0206
     80  CE       -41.1830   13.2030    7.2790 C.3    30  LYS30       0.1093
     81  NZ       -41.5500   11.7570    7.3510 N.3    30  LYS30      -0.1314
     82  N        -45.7900   18.2540    6.5450 N.am   31  GLN31      -0.1979
     83  CA       -47.1040   18.7790    6.2050 C.3    31  GLN31       0.1601
     84  C        -47.0770   20.2080    5.6340 C.2    31  GLN31       0.2287
     85  O        -47.7380   20.4850    4.6340 O.2    31  GLN31      -0.2864
     86  CB       -48.0670   18.6900    7.3820 C.3    31  GLN31       0.0394
     87  CG       -49.1010   19.8200    7.3840 C.3    31  GLN31       0.0908
     88  CD       -50.4540   19.3880    7.9010 C.2    31  GLN31       0.2608
     89  OE1      -50.8040   18.2170    7.8170 O.2    31  GLN31      -0.2717
     90  NE2      -51.2260   20.3350    8.4370 N.am   31  GLN31      -0.0878
     91  N        -45.5700   19.9760    2.0340 N.3    34  ARG34      -0.1245
     92  CA       -46.5780   19.4090    1.1350 C.3    34  ARG34       0.1563
     93  C        -47.6580   20.4030    0.7350 C.2    34  ARG34       0.2260
     94  O        -48.0380   20.4890   -0.4380 O.2    34  ARG34      -0.2867
     95  CB       -47.2570   18.1960    1.7680 C.3    34  ARG34       0.0307
     96  CG       -46.4540   16.9300    1.6930 C.3    34  ARG34       0.0489
     97  CD       -47.2810   15.7860    2.1710 C.3    34  ARG34       0.2205
     98  NE       -46.4500   14.6370    2.4910 N.pl3  34  ARG34      -0.0865
     99  CZ       -46.9370   13.4270    2.7390 C.cat  34  ARG34       0.5346
    100  NH1      -48.2490   13.2070    2.6940 N.pl3  34  ARG34       0.1354
    101  NH2      -46.1120   12.4380    3.0330 N.pl3  34  ARG34       0.1354
@<TRIPOS>BOND
     1    94    93    2
     2    93    92    1
     3    92    95    1
     4    92    91    1
     5    96    95    1
     6    96    97    1
     7    97    98    1
     8    98    99    2
     9   100    99    1
    10    99   101    1
    11    33    32    1
    12    76    75    2
    13    85    84    2
    14    32    30   ar
    15    32    31   ar
    16    30    28   ar
    17    75    74    1
    18    75    82   am
    19    84    83    1
    20    31    29   ar
    21    74    77    1
    22    74    73    1
    23    28    27   ar
    24    83    82    1
    25    83    86    1
    26    14    13   ar
    27    77    78    1
    28    15    13   ar
    29    78    79    1
    30    29    27   ar
    31    27    26    1
    32    13    12    1
    33    79    80    1
    34    80    81    1
    35    86    87    1
    36    87    88    1
    37    89    88    2
    38    26    23    1
    39    88    90   am
    40    12     9    1
    41    39    38    1
    42    23    24    1
    43    23    22    1
    44    11    10    2
    45    66    67    1
    46    66    65    1
    47    25    24    2
    48    10     9    1
    49     9     8    1
    50    71    70    2
    51    63    62    2
    52    22    18   am
    53    38    35    1
    54    65    64    1
    55    37    36    2
    56    36    35    1
    57    70    69    1
    58     8     3   am
    59    62    68   am
    60    62    61    1
    61    18    19    2
    62    18    17    1
    63    69    68    1
    64    69    72    1
    65    35    34    1
    66    20    21    1
    67    20    17    1
    68    61    64    1
    69    61    60    1
    70     3     4    2
    71     3     2    1
    72    17    16    1
    73     1     2    1
    74     2     5    1
    75     5     6    1
    76     5     7    1
    77    59    58    1
    78    57    56    2
    79    44    45    1
    80    44    41    1
    81    40    41    1
    82    46    45   ar
    83    46    48   ar
    84    56    55    1
    85    45    47   ar
    86    54    55    1
    87    54    42   am
    88    58    55    1
    89    41    42    1
    90    48    49   ar
    91    47    49   ar
    92    47    50   ar
    93    42    43    2
    94    49    51   ar
    95    50    52   ar
    96    51    53   ar
    97    52    53   ar
