@<TRIPOS>MOLECULE
tmp/4ciuA01.pdb
 183 173 0 0 0
SMALL
GASTEIGER

@<TRIPOS>ATOM
      1  N         37.1720   18.2790  -16.9750 N.3   368  ARG368     -0.1231
      2  CA        36.6100   16.9360  -16.8670 C.3   368  ARG368      0.1694
      3  C         36.3910   16.2920  -18.2350 C.2   368  ARG368      0.2592
      4  O         36.9690   15.2470  -18.5390 O.2   368  ARG368     -0.2718
      5  CB        35.3080   16.9540  -16.0550 C.3   368  ARG368      0.0321
      6  CG        35.5130   17.3090  -14.5860 C.3   368  ARG368      0.0489
      7  CD        34.1980   17.4910  -13.8430 C.3   368  ARG368      0.2205
      8  NE        33.3760   16.2870  -13.8760 N.pl3 368  ARG368     -0.0865
      9  CZ        32.5820   15.8990  -12.8840 C.cat 368  ARG368      0.5346
     10  NH1       32.5070   16.6190  -11.7730 N.pl3 368  ARG368      0.1354
     11  NH2       31.8690   14.7870  -13.0010 N.pl3 368  ARG368      0.1354
     12  N         35.5380   16.9040  -19.0490 N.am  369  VAL369     -0.1966
     13  CA        35.2920   16.3880  -20.3890 C.3   369  VAL369      0.1727
     14  C         36.4910   16.6510  -21.2910 C.2   369  VAL369      0.2616
     15  O         36.9230   17.7920  -21.4550 O.2   369  VAL369     -0.2715
     16  CB        34.0420   17.0260  -21.0390 C.3   369  VAL369      0.0290
     17  CG1       33.8370   16.4730  -22.4450 C.3   369  VAL369      0.0023
     18  CG2       32.8220   16.7710  -20.1780 C.3   369  VAL369      0.0023
     19  N         37.0280   15.5870  -21.8750 N.am  370  ILE370     -0.1977
     20  CA        38.1370   15.7090  -22.8140 C.3   370  ILE370      0.1596
     21  C         37.6380   15.4770  -24.2350 C.2   370  ILE370      0.2287
     22  O         36.9040   14.5250  -24.5000 O.2   370  ILE370     -0.2864
     23  CB        39.2930   14.7440  -22.4670 C.3   370  ILE370      0.0276
     24  CG1       40.2920   14.6490  -23.6220 C.3   370  ILE370      0.0022
     25  CG2       38.7590   13.3800  -22.1140 C.3   370  ILE370      0.0022
     26  CD1       41.1890   15.8600  -23.7510 C.3   370  ILE370      0.0001
     27  N         35.4370   16.6980  -27.6570 N.3   372  GLN372     -0.1245
     28  CA        34.0860   17.2210  -27.8510 C.3   372  GLN372      0.1566
     29  C         34.0440   18.7380  -27.6990 C.2   372  GLN372      0.2260
     30  O         33.4080   19.2580  -26.7820 O.2   372  GLN372     -0.2867
     31  CB        33.1080   16.5730  -26.8650 C.3   372  GLN372      0.0367
     32  CG        33.1560   15.0530  -26.8390 C.3   372  GLN372      0.0905
     33  CD        32.6430   14.4300  -28.1210 C.2   372  GLN372      0.2608
     34  OE1       31.9360   15.0720  -28.8980 O.2   372  GLN372     -0.2717
     35  NE2       32.9970   13.1700  -28.3500 N.am  372  GLN372     -0.0878
     36  N         27.3620    8.5100  -30.6520 N.3   405  PRO405     -0.2102
     37  CA        27.5650    7.1440  -30.1560 C.3   405  PRO405      0.1504
     38  C         27.5150    7.0680  -28.6330 C.2   405  PRO405      0.2576
     39  O         27.1900    8.0560  -27.9790 O.2   405  PRO405     -0.2718
     40  CB        28.9680    6.8010  -30.6560 C.3   405  PRO405      0.0282
     41  CG        29.6520    8.1140  -30.7770 C.3   405  PRO405      0.0208
     42  CD        28.6000    9.0920  -31.1990 C.3   405  PRO405      0.0893
     43  N         27.8290    5.9000  -28.0820 N.am  406  THR406     -0.1939
     44  CA        27.8350    5.7200  -26.6380 C.3   406  THR406      0.2028
     45  C         29.2650    5.6660  -26.1070 C.2   406  THR406      0.2643
     46  O         30.1710    5.1570  -26.7700 O.2   406  THR406     -0.2714
     47  CB        27.0690    4.4480  -26.2230 C.3   406  THR406      0.1808
     48  OG1       27.6060    3.3200  -26.9230 O.3   406  THR406     -0.2208
     49  CG2       25.5880    4.5800  -26.5630 C.3   406  THR406      0.0379
     50  N         29.4620    6.2140  -24.9120 N.am  407  GLY407     -0.1939
     51  CA        30.7670    6.2110  -24.2730 C.3   407  GLY407      0.2014
     52  C         31.6480    7.3770  -24.6820 C.2   407  GLY407      0.2639
     53  O         32.8510    7.3820  -24.4150 O.2   407  GLY407     -0.2714
     54  N         31.0490    8.3620  -25.3400 N.am  408  VAL408     -0.1963
     55  CA        31.7980    9.5040  -25.8470 C.3   408  VAL408      0.1727
     56  C         31.7490   10.7280  -24.9390 C.2   408  VAL408      0.2617
     57  O         32.3300   11.7660  -25.2610 O.2   408  VAL408     -0.2715
     58  CB        31.3460    9.8850  -27.2630 C.3   408  VAL408      0.0290
     59  CG1       32.0340    8.9950  -28.2880 C.3   408  VAL408      0.0023
     60  CG2       29.8280    9.8030  -27.3740 C.3   408  VAL408      0.0023
     61  N         31.0760   10.5950  -23.7990 N.am  409  GLY409     -0.1940
     62  CA        31.0780   11.6480  -22.8020 C.3   409  GLY409      0.2014
     63  C         29.8710   12.5640  -22.7310 C.2   409  GLY409      0.2639
     64  O         29.9800   13.6780  -22.2200 O.2   409  GLY409     -0.2714
     65  N         28.7350   12.1270  -23.2690 N.am  410  LYS410     -0.1963
     66  CA        27.4950   12.8900  -23.1260 C.3   410  LYS410      0.1728
     67  C         27.1640   13.0560  -21.6430 C.2   410  LYS410      0.2617
     68  O         27.0410   14.1780  -21.1300 O.2   410  LYS410     -0.2715
     69  CB        26.3300   12.1930  -23.8340 C.3   410  LYS410      0.0311
     70  CG        26.5280   11.9510  -25.3220 C.3   410  LYS410      0.0038
     71  CD        25.2950   11.2800  -25.9080 C.3   410  LYS410      0.0206
     72  CE        25.4290   11.0490  -27.4020 C.3   410  LYS410      0.1093
     73  NZ        24.2060   10.4100  -27.9660 N.3   410  LYS410     -0.1314
     74  N         27.0420   11.9220  -20.9580 N.am  411  THR411     -0.1937
     75  CA        26.7610   11.9060  -19.5300 C.3   411  THR411      0.2028
     76  C         27.8790   12.6060  -18.7640 C.2   411  THR411      0.2642
     77  O         27.6380   13.2320  -17.7310 O.2   411  THR411     -0.2714
     78  CB        26.5970   10.4680  -19.0020 C.3   411  THR411      0.1808
     79  OG1       25.7420    9.7260  -19.8810 O.3   411  THR411     -0.2208
     80  CG2       25.9980   10.4800  -17.6030 C.3   411  THR411      0.0379
     81  N         29.1000   12.5050  -19.2810 N.am  412  GLU412     -0.1976
     82  CA        30.2350   13.1960  -18.6820 C.3   412  GLU412      0.1602
     83  C         30.0240   14.7010  -18.6920 C.2   412  GLU412      0.2287
     84  O         30.3190   15.3800  -17.7120 O.2   412  GLU412     -0.2864
     85  CB        31.5350   12.8540  -19.4090 C.3   412  GLU412      0.0415
     86  CG        32.4610   11.9720  -18.6030 C.3   412  GLU412      0.1163
     87  CD        32.6560   12.4770  -17.1860 C.2   412  GLU412      0.3649
     88  OE1       33.3540   13.4980  -17.0080 O.co2 412  GLU412     -0.2457
     89  OE2       32.1110   11.8510  -16.2510 O.co2 412  GLU412     -0.2457
     90  N         27.2920   15.5900  -16.0710 N.3   415  LYS415     -0.1245
     91  CA        27.8620   15.6620  -14.7290 C.3   415  LYS415      0.1561
     92  C         28.7710   16.8800  -14.5810 C.2   415  LYS415      0.2260
     93  O         28.8240   17.5020  -13.5200 O.2   415  LYS415     -0.2867
     94  CB        28.6440   14.3840  -14.4090 C.3   415  LYS415      0.0271
     95  CG        27.8090   13.1110  -14.4340 C.3   415  LYS415      0.0035
     96  CD        28.6800   11.8770  -14.2470 C.3   415  LYS415      0.0206
     97  CE        27.8590   10.5990  -14.3220 C.3   415  LYS415      0.1093
     98  NZ        28.7100    9.3770  -14.2370 N.3   415  LYS415     -0.1314
     99  N         17.5930   10.2350  -20.9000 N.3   463  ASP463     -0.1239
    100  CA        18.4070    9.3440  -21.7200 C.3   463  ASP463      0.1674
    101  C         17.5500    8.5170  -22.6750 C.2   463  ASP463      0.2266
    102  O         16.5020    7.9980  -22.2880 O.2   463  ASP463     -0.2867
    103  CB        19.2560    8.4290  -20.8350 C.3   463  ASP463      0.1410
    104  CG        20.5200    7.9560  -21.5260 C.2   463  ASP463      0.3668
    105  OD1       20.5970    8.0570  -22.7690 O.co2 463  ASP463     -0.2456
    106  OD2       21.4390    7.4790  -20.8270 O.co2 463  ASP463     -0.2456
    107  N         35.8490    8.9240  -30.3050 N.3   548  LEU548     -0.1245
    108  CA        37.0740    9.3200  -29.6140 C.3   548  LEU548      0.1561
    109  C         38.3540    8.9140  -30.3440 C.2   548  LEU548      0.2260
    110  O         38.5360    7.7520  -30.7070 O.2   548  LEU548     -0.2867
    111  CB        37.0770    8.7490  -28.1950 C.3   548  LEU548      0.0270
    112  CG        35.8460    9.1050  -27.3580 C.3   548  LEU548      0.0019
    113  CD1       35.7790    8.2540  -26.1030 C.3   548  LEU548      0.0001
    114  CD2       35.8540   10.5830  -27.0050 C.3   548  LEU548      0.0001
    115  N         41.5350   10.4530  -21.3800 N.3   556  ILE556     -0.1245
    116  CA        40.4560    9.9280  -20.5540 C.3   556  ILE556      0.1561
    117  C         41.0490    8.9520  -19.5550 C.2   556  ILE556      0.2260
    118  O         40.7140    8.9750  -18.3700 O.2   556  ILE556     -0.2867
    119  CB        39.3990    9.1750  -21.3830 C.3   556  ILE556      0.0252
    120  CG1       38.9900    9.9840  -22.6120 C.3   556  ILE556      0.0019
    121  CG2       38.1870    8.8540  -20.5240 C.3   556  ILE556      0.0019
    122  CD1       37.8180    9.4030  -23.3620 C.3   556  ILE556      0.0001
    123  N         42.9420   10.8400  -16.7880 N.3   559  ILE559     -0.1231
    124  CA        41.9680   11.4600  -15.8950 C.3   559  ILE559      0.1692
    125  C         41.3790   10.4160  -14.9560 C.2   559  ILE559      0.2591
    126  O         41.1890   10.6730  -13.7690 O.2   559  ILE559     -0.2718
    127  CB        40.8290   12.1430  -16.6790 C.3   559  ILE559      0.0266
    128  CG1       41.3600   13.3450  -17.4600 C.3   559  ILE559      0.0019
    129  CG2       39.7190   12.5940  -15.7430 C.3   559  ILE559      0.0020
    130  CD1       40.2890   14.1170  -18.1910 C.3   559  ILE559      0.0001
    131  N         41.1010    9.2320  -15.4950 N.am  560  GLN560     -0.1979
    132  CA        40.5960    8.1230  -14.6870 C.3   560  GLN560      0.1601
    133  C         41.6440    7.6450  -13.6820 C.2   560  GLN560      0.2287
    134  O         41.3050    7.1300  -12.6150 O.2   560  GLN560     -0.2864
    135  CB        40.1600    6.9580  -15.5770 C.3   560  GLN560      0.0394
    136  CG        38.9420    7.2430  -16.4360 C.3   560  GLN560      0.0908
    137  CD        37.6780    7.4130  -15.6200 C.2   560  GLN560      0.2608
    138  OE1       37.0820    6.4340  -15.1700 O.2   560  GLN560     -0.2717
    139  NE2       37.2600    8.6580  -15.4260 N.am  560  GLN560     -0.0878
    140  N         42.1660    9.7210   -9.7900 N.3   563  ARG563     -0.1245
    141  CA        41.5570    9.3400   -8.5150 C.3   563  ARG563      0.1563
    142  C         42.4260    8.3380   -7.7600 C.2   563  ARG563      0.2260
    143  O         42.7190    8.5140   -6.5730 O.2   563  ARG563     -0.2867
    144  CB        40.1630    8.7450   -8.7330 C.3   563  ARG563      0.0307
    145  CG        39.2800    9.5230   -9.6980 C.3   563  ARG563      0.0489
    146  CD        37.8140    9.2070   -9.4510 C.3   563  ARG563      0.2205
    147  NE        36.9740    9.5110  -10.6050 N.pl3 563  ARG563     -0.0865
    148  CZ        36.4240    8.5880  -11.3890 C.cat 563  ARG563      0.5346
    149  NH1       36.6240    7.3000  -11.1410 N.pl3 563  ARG563      0.1354
    150  NH2       35.6700    8.9520  -12.4160 N.pl3 563  ARG563      0.1354
    151  N         34.2300    4.6310  -24.4760 N.3   596  ALA596     -0.1231
    152  CA        35.1790    4.5650  -23.3680 C.3   596  ALA596      0.1694
    153  C         34.5960    3.9260  -22.1080 C.2   596  ALA596      0.2591
    154  O         35.2510    3.8970  -21.0680 O.2   596  ALA596     -0.2718
    155  CB        35.7380    5.9500  -23.0570 C.3   596  ALA596      0.0304
    156  N         33.3640    3.4320  -22.1960 N.am  597  ARG597     -0.1980
    157  CA        32.7240    2.7580  -21.0610 C.3   597  ARG597      0.1597
    158  C         33.5530    1.6490  -20.3860 C.2   597  ARG597      0.2287
    159  O         33.6450    1.6200  -19.1580 O.2   597  ARG597     -0.2864
    160  CB        31.3340    2.2290  -21.4400 C.3   597  ARG597      0.0334
    161  CG        30.2720    3.3030  -21.5750 C.3   597  ARG597      0.0492
    162  CD        28.9010    2.6830  -21.7880 C.3   597  ARG597      0.2205
    163  NE        27.8370    3.6800  -21.7450 N.pl3 597  ARG597     -0.0865
    164  CZ        27.2410    4.0870  -20.6290 C.cat 597  ARG597      0.5346
    165  NH1       27.6090    3.5840  -19.4580 N.pl3 597  ARG597      0.1354
    166  NH2       26.2800    4.9980  -20.6830 N.pl3 597  ARG597      0.1354
    167  N         36.6170    1.3330  -20.0510 N.3   599  LEU599     -0.1231
    168  CA        37.9000    1.8230  -19.5430 C.3   599  LEU599      0.1693
    169  C         38.0660    1.7200  -18.0250 C.2   599  LEU599      0.2591
    170  O         39.0870    1.2260  -17.5470 O.2   599  LEU599     -0.2718
    171  CB        38.1390    3.2630  -20.0070 C.3   599  LEU599      0.0284
    172  CG        39.5270    3.8650  -19.7940 C.3   599  LEU599      0.0019
    173  CD1       40.5960    2.9830  -20.4110 C.3   599  LEU599      0.0001
    174  CD2       39.5950    5.2680  -20.3810 C.3   599  LEU599      0.0001
    175  N         37.0660    2.1740  -17.2720 N.am  600  LYS600     -0.1980
    176  CA        37.1790    2.2190  -15.8110 C.3   600  LYS600      0.1596
    177  C         37.4880    0.8520  -15.2060 C.2   600  LYS600      0.2287
    178  O         38.5020    0.6800  -14.5280 O.2   600  LYS600     -0.2864
    179  CB        35.9290    2.8290  -15.1660 C.3   600  LYS600      0.0298
    180  CG        36.0420    2.9970  -13.6530 C.3   600  LYS600      0.0038
    181  CD        37.2660    3.8220  -13.2680 C.3   600  LYS600      0.0206
    182  CE        37.4080    3.9280  -11.7550 C.3   600  LYS600      0.1093
    183  NZ        38.6300    4.6780  -11.3440 N.3   600  LYS600     -0.1314
@<TRIPOS>BOND
     1    42    41    1
     2    42    36    1
     3    41    40    1
     4   110   109    2
     5    40    37    1
     6    36    37    1
     7   109   108    1
     8   107   108    1
     9    37    38    1
    10   108   111    1
    11    34    33    2
    12    38    43   am
    13    38    39    2
    14    35    33   am
    15    59    58    1
    16   111   112    1
    17    33    32    1
    18    43    44    1
    19    73    72    1
    20    28    29    1
    21    28    27    1
    22    28    31    1
    23    29    30    2
    24    72    71    1
    25    60    58    1
    26   112   114    1
    27   112   113    1
    28    58    55    1
    29    48    47    1
    30    31    32    1
    31    46    45    2
    32    44    47    1
    33    44    45    1
    34    49    47    1
    35    45    50   am
    36    71    70    1
    37    55    54    1
    38    55    56    1
    39    54    52   am
    40    70    69    1
    41    57    56    2
    42    56    61   am
    43    50    51    1
    44    52    53    2
    45    52    51    1
    46    22    21    2
    47   151   152    1
    48    21    20    1
    49    69    66    1
    50    61    62    1
    51    26    24    1
    52    24    23    1
    53   152   155    1
    54   152   153    1
    55   122   120    1
    56    65    66    1
    57    65    63   am
    58    66    67    1
    59    20    23    1
    60    20    19    1
    61    62    63    1
    62   105   104   ar
    63    63    64    2
    64   101   102    2
    65   101   100    1
    66   120   119    1
    67    23    25    1
    68    17    16    1
    69   156   153   am
    70   156   157    1
    71   153   154    2
    72    19    14   am
    73   162   163    1
    74   162   161    1
    75   163   164    2
    76   100    99    1
    77   100   103    1
    78    67    68    2
    79    67    74   am
    80   161   160    1
    81   104   103    1
    82   104   106   ar
    83    15    14    2
    84   160   157    1
    85   119   116    1
    86   119   121    1
    87   115   116    1
    88    14    13    1
    89   157   158    1
    90    16    13    1
    91    16    18    1
    92    74    75    1
    93   166   164    1
    94   164   165    1
    95   116   117    1
    96   173   172    1
    97    13    12    1
    98   158   159    2
    99   174   172    1
   100   167   168    1
   101   171   172    1
   102   171   168    1
   103    79    78    1
   104   117   118    2
   105   168   169    1
   106    75    78    1
   107    75    76    1
   108    85    82    1
   109    85    86    1
   110    81    76   am
   111    81    82    1
   112    12     3   am
   113    78    80    1
   114    76    77    2
   115    83    82    1
   116    83    84    2
   117    86    87    1
   118     4     3    2
   119     3     2    1
   120   130   128    1
   121   169   170    2
   122   169   175   am
   123   128   127    1
   124   175   176    1
   125    87    88   ar
   126    87    89   ar
   127     1     2    1
   128     2     5    1
   129   123   124    1
   130   127   124    1
   131   127   129    1
   132   136   137    1
   133   136   135    1
   134    90    91    1
   135     5     6    1
   136   124   125    1
   137   176   177    1
   138   176   179    1
   139   137   139   am
   140   137   138    2
   141   135   132    1
   142   131   125   am
   143   131   132    1
   144   177   178    2
   145   179   180    1
   146   125   126    2
   147    91    92    1
   148    91    94    1
   149   132   133    1
   150     6     7    1
   151    92    93    2
   152    95    94    1
   153    95    96    1
   154    97    96    1
   155    97    98    1
   156     8     7    1
   157     8     9    2
   158   133   134    2
   159   180   181    1
   160   181   182    1
   161    11     9    1
   162     9    10    1
   163   150   148    1
   164   182   183    1
   165   148   149    1
   166   148   147    2
   167   147   146    1
   168   140   141    1
   169   145   146    1
   170   145   144    1
   171   144   141    1
   172   141   142    1
   173   142   143    2
