@<TRIPOS>MOLECULE
tmp/4ciuA00.pdb
 152 146 0 0 0
SMALL
GASTEIGER

@<TRIPOS>ATOM
      1  N          3.8650   41.5220   14.8570 N.3    20  ASP20      -0.1225
      2  CA         4.7590   41.9220   13.7760 C.3    20  ASP20       0.1790
      3  C          3.9660   42.2300   12.5100 C.2    20  ASP20       0.2440
      4  O          2.9260   41.6180   12.2640 O.2    20  ASP20      -0.2733
      5  CB         5.8040   40.8350   13.5040 C.3    20  ASP20       0.1423
      6  CG         6.9270   40.8380   14.5240 C.2    20  ASP20       0.3668
      7  OD1        7.1120   41.8710   15.2030 O.co2  20  ASP20      -0.2456
      8  OD2        7.6310   39.8120   14.6420 O.co2  20  ASP20      -0.2456
      9  N          4.4520   43.1930   11.7100 N.am   21  PRO21      -0.2718
     10  CA         3.7840   43.6150   10.4750 C.3    21  PRO21       0.1535
     11  C          3.5770   42.4660    9.4960 C.2    21  PRO21       0.2598
     12  O          4.3770   41.5310    9.4570 O.2    21  PRO21      -0.2715
     13  CB         4.7630   44.6300    9.8840 C.3    21  PRO21       0.0310
     14  CG         5.4910   45.1680   11.0570 C.3    21  PRO21       0.0237
     15  CD         5.6460   44.0080   11.9920 C.3    21  PRO21       0.0939
     16  N          2.5060   42.5430    8.7150 N.am   22  VAL22      -0.1964
     17  CA         2.2240   41.5390    7.6980 C.3    22  VAL22       0.1727
     18  C          2.3520   42.1530    6.3110 C.2    22  VAL22       0.2616
     19  O          1.5810   43.0360    5.9350 O.2    22  VAL22      -0.2715
     20  CB         0.8230   40.9380    7.8750 C.3    22  VAL22       0.0290
     21  CG1        0.5020   39.9920    6.7270 C.3    22  VAL22       0.0023
     22  CG2        0.7310   40.2220    9.2130 C.3    22  VAL22       0.0023
     23  N          3.3340   41.6790    5.5530 N.am   23  ILE23      -0.1977
     24  CA         3.6590   42.2720    4.2630 C.3    23  ILE23       0.1596
     25  C          3.1850   41.3830    3.1220 C.2    23  ILE23       0.2287
     26  O          3.5520   40.2110    3.0410 O.2    23  ILE23      -0.2864
     27  CB         5.1740   42.5360    4.1210 C.3    23  ILE23       0.0276
     28  CG1        5.6330   43.6190    5.1050 C.3    23  ILE23       0.0022
     29  CG2        5.5120   42.9510    2.6980 C.3    23  ILE23       0.0022
     30  CD1        5.9090   43.1240    6.5190 C.3    23  ILE23       0.0001
     31  N          0.2090   39.3370    1.0700 N.3    25  ARG25      -0.1245
     32  CA        -0.9270   38.5090    1.4790 C.3    25  ARG25       0.1563
     33  C         -2.2520   39.2640    1.4560 C.2    25  ARG25       0.2260
     34  O         -3.1650   38.9480    2.2160 O.2    25  ARG25      -0.2867
     35  CB        -0.6960   37.9120    2.8700 C.3    25  ARG25       0.0307
     36  CG         0.5160   37.0060    2.9720 C.3    25  ARG25       0.0489
     37  CD         0.3900   35.7990    2.0610 C.3    25  ARG25       0.2205
     38  NE         1.4690   34.8430    2.2920 N.pl3  25  ARG25      -0.0865
     39  CZ         1.6560   33.7390    1.5770 C.cat  25  ARG25       0.5346
     40  NH1        0.8370   33.4470    0.5770 N.pl3  25  ARG25       0.1354
     41  NH2        2.6660   32.9290    1.8620 N.pl3  25  ARG25       0.1354
     42  N          4.1630   24.1740    6.0180 N.3    50  PRO50      -0.2102
     43  CA         4.6350   24.9520    7.1700 C.3    50  PRO50       0.1504
     44  C          5.6430   26.0400    6.8130 C.2    50  PRO50       0.2576
     45  O          6.5430   25.8170    6.0020 O.2    50  PRO50      -0.2718
     46  CB         5.3010   23.8930    8.0470 C.3    50  PRO50       0.0282
     47  CG         4.5540   22.6450    7.7410 C.3    50  PRO50       0.0208
     48  CD         4.2230   22.7240    6.2770 C.3    50  PRO50       0.0893
     49  N          5.4740   27.2140    7.4120 N.am   51  GLY51      -0.1943
     50  CA         6.4310   28.2940    7.2620 C.3    51  GLY51       0.2014
     51  C          6.1310   29.2670    6.1370 C.2    51  GLY51       0.2639
     52  O          6.9510   30.1310    5.8270 O.2    51  GLY51      -0.2714
     53  N          4.9610   29.1320    5.5190 N.am   52  VAL52      -0.1963
     54  CA         4.5820   30.0340    4.4340 C.3    52  VAL52       0.1727
     55  C          3.7310   31.2020    4.9250 C.2    52  VAL52       0.2617
     56  O          3.2810   32.0290    4.1280 O.2    52  VAL52      -0.2715
     57  CB         3.8570   29.3040    3.2890 C.3    52  VAL52       0.0290
     58  CG1        4.7460   28.2080    2.7110 C.3    52  VAL52       0.0023
     59  CG2        2.5230   28.7480    3.7630 C.3    52  VAL52       0.0023
     60  N          3.5330   31.2750    6.2380 N.am   53  GLY53      -0.1940
     61  CA         2.8130   32.3820    6.8420 C.3    53  GLY53       0.2014
     62  C          1.2990   32.3580    6.7730 C.2    53  GLY53       0.2639
     63  O          0.6730   33.3420    6.3840 O.2    53  GLY53      -0.2714
     64  N          0.7080   31.2240    7.1290 N.am   54  LYS54      -0.1963
     65  CA        -0.7340   31.1560    7.3180 C.3    54  LYS54       0.1728
     66  C         -1.1070   31.9500    8.5670 C.2    54  LYS54       0.2617
     67  O         -2.0140   32.7960    8.5530 O.2    54  LYS54      -0.2715
     68  CB        -1.1800   29.7040    7.4700 C.3    54  LYS54       0.0311
     69  CG        -0.9490   28.8530    6.2300 C.3    54  LYS54       0.0038
     70  CD        -1.4500   27.4300    6.4380 C.3    54  LYS54       0.0206
     71  CE        -0.6360   26.6920    7.4910 C.3    54  LYS54       0.1093
     72  NZ         0.7440   26.3930    7.0190 N.3    54  LYS54      -0.1314
     73  N         -0.3860   31.6700    9.6480 N.am   55  THR55      -0.1937
     74  CA        -0.5510   32.3830   10.9080 C.3    55  THR55       0.2028
     75  C         -0.3330   33.8770   10.6940 C.2    55  THR55       0.2642
     76  O         -1.0050   34.7070   11.3070 O.2    55  THR55      -0.2714
     77  CB         0.4290   31.8570   11.9730 C.3    55  THR55       0.1808
     78  OG1        0.2360   30.4470   12.1460 O.3    55  THR55      -0.2208
     79  CG2        0.2130   32.5630   13.3020 C.3    55  THR55       0.0379
     80  N          0.6040   34.2080    9.8110 N.am   56  ALA56      -0.1977
     81  CA         0.8520   35.5930    9.4320 C.3    56  ALA56       0.1597
     82  C         -0.4070   36.2140    8.8400 C.2    56  ALA56       0.2287
     83  O         -0.7260   37.3690    9.1150 O.2    56  ALA56      -0.2864
     84  CB         2.0020   35.6760    8.4430 C.3    56  ALA56       0.0319
     85  N         -2.9120   36.8440   11.7120 N.3    59  GLU59      -0.1245
     86  CA        -2.4980   38.0260   12.4570 C.3    59  GLU59       0.1567
     87  C         -2.7480   39.3020   11.6620 C.2    59  GLU59       0.2260
     88  O         -3.0810   40.3390   12.2310 O.2    59  GLU59      -0.2867
     89  CB        -1.0220   37.9250   12.8400 C.3    59  GLU59       0.0388
     90  CG        -0.7190   36.8030   13.8130 C.3    59  GLU59       0.1160
     91  CD         0.7570   36.6880   14.1220 C.2    59  GLU59       0.3649
     92  OE1        1.5670   37.2830   13.3800 O.co2  59  GLU59      -0.2457
     93  OE2        1.1070   36.0010   15.1050 O.co2  59  GLU59      -0.2457
     94  N         -4.5760   26.3020   14.8070 N.3   114  ASP114     -0.1239
     95  CA        -3.4060   25.9050   14.0370 C.3   114  ASP114      0.1674
     96  C         -3.2520   24.3960   14.1400 C.2   114  ASP114      0.2266
     97  O         -3.5740   23.8100   15.1770 O.2   114  ASP114     -0.2867
     98  CB        -2.1440   26.6010   14.5440 C.3   114  ASP114      0.1410
     99  CG        -0.9520   26.3700   13.6370 C.2   114  ASP114      0.3668
    100  OD1       -1.1530   26.2860   12.4070 O.co2 114  ASP114     -0.2456
    101  OD2        0.1820   26.2670   14.1500 O.co2 114  ASP114     -0.2456
    102  N          8.7870   41.0800    2.1790 N.3   166  ILE166     -0.1245
    103  CA         8.4210   40.6730    3.5320 C.3   166  ILE166      0.1561
    104  C          9.5270   41.0050    4.5320 C.2   166  ILE166      0.2260
    105  O          9.2760   41.6120    5.5770 O.2   166  ILE166     -0.2867
    106  CB         8.1230   39.1600    3.5940 C.3   166  ILE166      0.0252
    107  CG1        6.8950   38.8210    2.7480 C.3   166  ILE166      0.0019
    108  CG2        7.9130   38.7140    5.0310 C.3   166  ILE166      0.0019
    109  CD1        6.6740   37.3360    2.5640 C.3   166  ILE166      0.0001
    110  N          9.7200   43.4900    7.7620 N.3   170  LEU170     -0.1245
    111  CA        10.0650   43.0290    9.1060 C.3   170  LEU170      0.1561
    112  C         11.3840   43.6250    9.6000 C.2   170  LEU170      0.2260
    113  O         11.7620   43.4530   10.7650 O.2   170  LEU170     -0.2867
    114  CB        10.1610   41.5020    9.1320 C.3   170  LEU170      0.0270
    115  CG         8.8980   40.6960    8.8320 C.3   170  LEU170      0.0019
    116  CD1        9.2290   39.2160    8.7220 C.3   170  LEU170      0.0001
    117  CD2        7.8500   40.9300    9.9080 C.3   170  LEU170      0.0001
    118  N         12.9460   43.5440   13.4570 N.3   174  TYR174     -0.1241
    119  CA        14.0610   42.6350   13.7120 C.3   174  TYR174      0.1605
    120  C         15.3370   43.3600   14.1440 C.2   174  TYR174      0.2264
    121  O         16.0900   42.8550   14.9880 O.2   174  TYR174     -0.2867
    122  CB        14.3280   41.7470   12.4950 C.3   174  TYR174      0.0534
    123  CG        13.4880   40.4930   12.4830 C.ar  174  TYR174     -0.0201
    124  CD1       12.2320   40.4760   11.8860 C.ar  174  TYR174     -0.0009
    125  CD2       13.9450   39.3280   13.0810 C.ar  174  TYR174     -0.0009
    126  CE1       11.4600   39.3280   11.8800 C.ar  174  TYR174      0.0417
    127  CE2       13.1820   38.1780   13.0790 C.ar  174  TYR174      0.0417
    128  CZ        11.9410   38.1820   12.4780 C.ar  174  TYR174      0.1957
    129  OH        11.1830   37.0340   12.4810 O.3   174  TYR174     -0.2866
    130  N          8.6640   32.2390    3.5320 N.3   204  PRO204     -0.2102
    131  CA         9.8060   33.0750    3.9190 C.3   204  PRO204      0.1504
    132  C         10.6080   32.4850    5.0800 C.2   204  PRO204      0.2575
    133  O         11.7130   32.9490    5.3610 O.2   204  PRO204     -0.2718
    134  CB         9.1390   34.3760    4.3560 C.3   204  PRO204      0.0282
    135  CG         7.8830   33.9150    4.9730 C.3   204  PRO204      0.0208
    136  CD         7.4100   32.7770    4.0920 C.3   204  PRO204      0.0893
    137  N         10.0280   31.4950    5.7520 N.am  205  ASP205     -0.1974
    138  CA        10.5050   31.0000    7.0430 C.3   205  ASP205      0.1708
    139  C         12.0140   30.7370    7.1440 C.2   205  ASP205      0.2293
    140  O         12.6620   31.1790    8.0960 O.2   205  ASP205     -0.2864
    141  CB         9.7300   29.7350    7.4280 C.3   205  ASP205      0.1436
    142  CG         9.8370   29.4150    8.9030 C.2   205  ASP205      0.3671
    143  OD1        9.7370   30.3520    9.7250 O.co2 205  ASP205     -0.2456
    144  OD2       10.0050   28.2260    9.2460 O.co2 205  ASP205     -0.2456
    145  N         14.1220   33.8970    7.0400 N.3   208  ILE208     -0.1245
    146  CA        13.9850   34.5450    8.3350 C.3   208  ILE208      0.1561
    147  C         14.8580   33.8530    9.3750 C.2   208  ILE208      0.2260
    148  O         15.4300   34.5040   10.2470 O.2   208  ILE208     -0.2867
    149  CB        12.5210   34.5460    8.8070 C.3   208  ILE208      0.0252
    150  CG1       11.6270   35.1960    7.7500 C.3   208  ILE208      0.0019
    151  CG2       12.3870   35.2710   10.1330 C.3   208  ILE208      0.0019
    152  CD1       10.1990   35.3880    8.1950 C.3   208  ILE208      0.0001
@<TRIPOS>BOND
     1    40    39    1
     2    31    32    1
     3    33    32    1
     4    33    34    2
     5    32    35    1
     6    39    41    1
     7    39    38    2
     8    37    38    1
     9    37    36    1
    10   102   103    1
    11   109   107    1
    12    29    27    1
    13    58    57    1
    14   107   106    1
    15    35    36    1
    16    26    25    2
    17    25    24    1
    18    57    59    1
    19    57    54    1
    20   130   131    1
    21   130   136    1
    22   103   106    1
    23   103   104    1
    24   106   108    1
    25   131   134    1
    26   131   132    1
    27   136   135    1
    28    27    24    1
    29    27    28    1
    30    56    55    2
    31    24    23    1
    32   134   135    1
    33    54    55    1
    34    54    53    1
    35   104   105    2
    36    55    60   am
    37   132   133    2
    38   132   137   am
    39    28    30    1
    40    53    51   am
    41    23    18   am
    42   137   138    1
    43    52    51    2
    44    19    18    2
    45    45    44    2
    46    42    48    1
    47    42    43    1
    48    51    50    1
    49    69    70    1
    50    69    68    1
    51    60    61    1
    52    48    47    1
    53    18    17    1
    54    63    62    2
    55    70    71    1
    56    21    20    1
    57    62    61    1
    58    62    64   am
    59    44    43    1
    60    44    49   am
    61    72    71    1
    62   145   146    1
    63   138   139    1
    64   138   141    1
    65    64    65    1
    66   139   140    2
    67    43    46    1
    68    50    49    1
    69    65    68    1
    70    65    66    1
    71   141   142    1
    72    17    20    1
    73    17    16    1
    74    47    46    1
    75   150   152    1
    76   150   149    1
    77   110   111    1
    78    20    22    1
    79   146   149    1
    80   146   147    1
    81    84    81    1
    82    67    66    2
    83    66    73   am
    84    16    11   am
    85   116   115    1
    86   149   151    1
    87   115   114    1
    88   115   117    1
    89    82    83    2
    90    82    81    1
    91   142   144   ar
    92   142   143   ar
    93   111   114    1
    94   111   112    1
    95   147   148    2
    96    81    80    1
    97    12    11    2
    98    11    10    1
    99   112   113    2
   100    73    74    1
   101    80    75   am
   102    13    10    1
   103    13    14    1
   104    10     9    1
   105    75    74    1
   106    75    76    2
   107    74    77    1
   108    14    15    1
   109    87    88    2
   110    87    86    1
   111     9    15    1
   112     9     3   am
   113    85    86    1
   114   126   124   ar
   115   126   128   ar
   116   124   123   ar
   117    77    78    1
   118    77    79    1
   119     4     3    2
   120   100    99   ar
   121    86    89    1
   122   128   129    1
   123   128   127   ar
   124   123   122    1
   125   123   125   ar
   126   122   119    1
   127     3     2    1
   128    89    90    1
   129   127   125   ar
   130    92    91   ar
   131   118   119    1
   132     5     2    1
   133     5     6    1
   134    99   101   ar
   135    99    98    1
   136   119   120    1
   137     2     1    1
   138    90    91    1
   139    95    96    1
   140    95    98    1
   141    95    94    1
   142    91    93   ar
   143    96    97    2
   144   120   121    2
   145     6     8   ar
   146     6     7   ar
