@<TRIPOS>MOLECULE
tmp/4civA00.pdb
 113 107 0 0 0
SMALL
GASTEIGER

@<TRIPOS>ATOM
      1  N         15.9360   10.1110   38.5760 N.3     9  PRO9       -0.2102
      2  CA        17.2900    9.6740   38.9170 C.3     9  PRO9        0.1504
      3  C         17.6030    8.2490   38.5140 C.2     9  PRO9        0.2576
      4  O         16.7040    7.4120   38.4880 O.2     9  PRO9       -0.2718
      5  CB        17.3220    9.7790   40.4440 C.3     9  PRO9        0.0282
      6  CG        16.2520   10.7450   40.7940 C.3     9  PRO9        0.0208
      7  CD        15.1850   10.5480   39.7680 C.3     9  PRO9        0.0893
      8  N         18.8730    7.9830   38.2120 N.am   10  ASN10      -0.1961
      9  CA        19.3680    6.6210   37.9370 C.3    10  ASN10       0.1819
     10  C         18.7900    5.9580   36.6900 C.2    10  ASN10       0.2621
     11  O         19.0310    4.7740   36.4580 O.2    10  ASN10      -0.2715
     12  CB        19.1470    5.6910   39.1450 C.3    10  ASN10       0.1195
     13  CG        19.8460    6.1790   40.4020 C.2    10  ASN10       0.2630
     14  OD1       20.9300    6.7390   40.3400 O.2    10  ASN10      -0.2716
     15  ND2       19.2260    5.9610   41.5510 N.am   10  ASN10      -0.0877
     16  N         18.0330    6.7100   35.8930 N.am   11  LEU11      -0.1977
     17  CA        17.4740    6.1780   34.6530 C.3    11  LEU11       0.1596
     18  C         18.4080    6.4580   33.4940 C.2    11  LEU11       0.2287
     19  O         18.1610    6.0160   32.3820 O.2    11  LEU11      -0.2864
     20  CB        16.0540    6.7030   34.3980 C.3    11  LEU11       0.0297
     21  CG        15.0340    5.9350   35.2650 C.3    11  LEU11       0.0022
     22  CD1       13.8310    6.7940   35.6290 C.3    11  LEU11       0.0001
     23  CD2       14.5950    4.6190   34.6190 C.3    11  LEU11       0.0001
     24  N         23.0750   -0.5530   34.6720 N.3    17  ARG17      -0.1245
     25  CA        22.2330   -0.7740   35.8660 C.3    17  ARG17       0.1563
     26  C         22.2220   -2.2450   36.3110 C.2    17  ARG17       0.2260
     27  O         22.1730   -2.5470   37.5070 O.2    17  ARG17      -0.2867
     28  CB        20.7830   -0.3020   35.5970 C.3    17  ARG17       0.0307
     29  CG        20.1100    0.4840   36.7210 C.3    17  ARG17       0.0489
     30  CD        18.8300    1.1690   36.2290 C.3    17  ARG17       0.2205
     31  NE        17.8000    0.2200   35.7650 N.pl3  17  ARG17      -0.0865
     32  CZ        16.5610    0.0890   36.2650 C.cat  17  ARG17       0.5346
     33  NH1       16.1250    0.8520   37.2670 N.pl3  17  ARG17       0.1354
     34  NH2       15.7340   -0.8180   35.7470 N.pl3  17  ARG17       0.1354
     35  N          8.5250    8.7070   34.5310 N.3    68  ASN68      -0.1240
     36  CA         9.1460    7.6600   35.3390 C.3    68  ASN68       0.1653
     37  C         10.1070    8.3260   36.3070 C.2    68  ASN68       0.2266
     38  O         11.2910    8.4830   35.9980 O.2    68  ASN68      -0.2867
     39  CB         9.9000    6.6690   34.4520 C.3    68  ASN68       0.1155
     40  CG        10.5620    5.5440   35.2400 C.2    68  ASN68       0.2627
     41  OD1       10.6440    5.5750   36.4660 O.2    68  ASN68      -0.2716
     42  ND2       11.0350    4.5340   34.5240 N.am   68  ASN68      -0.0877
     43  N         11.6450    7.5040   39.0230 N.3    70  GLY70      -0.1210
     44  CA        12.6420    6.7530   39.7790 C.3    70  GLY70       0.1956
     45  C         12.2830    6.5830   41.2510 C.2    70  GLY70       0.2612
     46  O         11.1170    6.3780   41.5980 O.2    70  GLY70      -0.2717
     47  N         13.2930    6.6670   42.1160 N.am   71  GLY71      -0.1956
     48  CA        13.0980    6.5410   43.5580 C.3    71  GLY71       0.1869
     49  C         12.4040    7.7260   44.2160 C.2    71  GLY71       0.2309
     50  O         12.0290    7.6490   45.3820 O.2    71  GLY71      -0.2863
     51  N          8.4950    7.3070   45.3120 N.3    74  HIS74      -0.1241
     52  CA         8.0890    6.7510   46.6010 C.3    74  HIS74       0.1621
     53  C          8.2360    7.7290   47.7570 C.2    74  HIS74       0.2264
     54  O          7.6800    7.4990   48.8350 O.2    74  HIS74      -0.2867
     55  CB         8.9230    5.5050   46.9030 C.3    74  HIS74       0.0745
     56  CG         9.0020    4.5430   45.7600 C.ar   74  HIS74       0.0817
     57  ND1        7.8830    3.9970   45.1730 N.ar   74  HIS74      -0.2268
     58  CD2       10.0630    4.0350   45.0930 C.ar   74  HIS74       0.1154
     59  CE1        8.2520    3.1910   44.1950 C.ar   74  HIS74       0.1986
     60  NE2        9.5700    3.1940   44.1270 N.ar   74  HIS74      -0.2212
     61  N          6.7620    2.6430   35.1690 N.3    94  HIS94      -0.1226
     62  CA         7.7780    1.8810   35.8730 C.3    94  HIS94       0.1752
     63  C          8.2160    0.7070   35.0010 C.2    94  HIS94       0.2596
     64  O          7.3800   -0.0450   34.5090 O.2    94  HIS94      -0.2718
     65  CB         7.2360    1.3720   37.1990 C.3    94  HIS94       0.0759
     66  CG         6.8510    2.4600   38.1530 C.ar   94  HIS94       0.0818
     67  ND1        7.7740    3.1340   38.9230 N.ar   94  HIS94      -0.2268
     68  CD2        5.6430    2.9790   38.4740 C.ar   94  HIS94       0.1154
     69  CE1        7.1510    4.0290   39.6690 C.ar   94  HIS94       0.1986
     70  NE2        5.8580    3.9550   39.4160 N.ar   94  HIS94      -0.2212
     71  N          9.5260    0.5740   34.8000 N.am   95  ILE95      -0.1966
     72  CA        10.0970   -0.4830   33.9630 C.3    95  ILE95       0.1727
     73  C          9.9690   -1.8250   34.6860 C.2    95  ILE95       0.2616
     74  O          9.3540   -2.7630   34.1750 O.2    95  ILE95      -0.2715
     75  CB        11.5730   -0.1660   33.5880 C.3    95  ILE95       0.0290
     76  CG1       11.6060    0.9290   32.5180 C.3    95  ILE95       0.0022
     77  CG2       12.3140   -1.3970   33.0770 C.3    95  ILE95       0.0023
     78  CD1       12.9880    1.4480   32.1830 C.3    95  ILE95       0.0001
     79  N         10.5450   -1.9030   35.8810 N.am   96  SER96      -0.1950
     80  CA        10.4230   -3.0890   36.7130 C.3    96  SER96       0.1924
     81  C          8.9970   -3.1660   37.2300 C.2    96  SER96       0.2314
     82  O          8.2980   -2.1470   37.2720 O.2    96  SER96      -0.2863
     83  CB        11.4000   -3.0130   37.8920 C.3    96  SER96       0.2116
     84  OG        11.1630   -1.8610   38.6910 O.3    96  SER96      -0.2180
     85  N          7.1950   -2.9460   40.2730 N.3    98  VAL98      -0.1245
     86  CA         7.4990   -2.4460   41.6250 C.3    98  VAL98       0.1561
     87  C          6.8320   -3.2590   42.7330 C.2    98  VAL98       0.2260
     88  O          7.3790   -3.3800   43.8210 O.2    98  VAL98      -0.2867
     89  CB         7.1460   -0.9410   41.8050 C.3    98  VAL98       0.0252
     90  CG1        8.1960   -0.0640   41.1320 C.3    98  VAL98       0.0019
     91  CG2        5.7520   -0.6140   41.2810 C.3    98  VAL98       0.0019
     92  N          8.6980   -6.3260   44.5100 N.3   101  ARG101     -0.1245
     93  CA         9.9880   -5.9990   45.0940 C.3   101  ARG101      0.1563
     94  C          9.8140   -5.6650   46.5710 C.2   101  ARG101      0.2260
     95  O          9.0820   -6.3560   47.2640 O.2   101  ARG101     -0.2867
     96  CB        10.6080   -4.8310   44.3240 C.3   101  ARG101      0.0307
     97  CG        10.6150   -4.9980   42.8090 C.3   101  ARG101      0.0489
     98  CD        11.3040   -3.8270   42.1310 C.3   101  ARG101      0.2205
     99  NE        12.6670   -3.6690   42.6280 N.pl3 101  ARG101     -0.0865
    100  CZ        13.4450   -2.6110   42.4110 C.cat 101  ARG101      0.5346
    101  NH1       13.0270   -1.5780   41.6910 N.pl3 101  ARG101      0.1354
    102  NH2       14.6640   -2.5900   42.9250 N.pl3 101  ARG101      0.1354
    103  N          8.1900    0.1100   48.0240 N.3   105  ARG105     -0.1245
    104  CA         7.9920    0.4630   46.6180 C.3   105  ARG105      0.1563
    105  C          6.5360    0.4510   46.1730 C.2   105  ARG105      0.2260
    106  O          6.2280    0.9060   45.0770 O.2   105  ARG105     -0.2867
    107  CB         8.7890   -0.4770   45.7100 C.3   105  ARG105      0.0307
    108  CG        10.1700    0.0480   45.3730 C.3   105  ARG105      0.0489
    109  CD        11.0420   -0.9980   44.7010 C.3   105  ARG105      0.2205
    110  NE        12.3810   -0.9780   45.2710 N.pl3 105  ARG105     -0.0865
    111  CZ        13.2940   -0.0390   45.0400 C.cat 105  ARG105      0.5346
    112  NH1       13.0380    0.9790   44.2210 N.pl3 105  ARG105      0.1354
    113  NH2       14.4800   -0.1240   45.6360 N.pl3 105  ARG105      0.1354
@<TRIPOS>BOND
     1    78    76    1
     2    19    18    2
     3    76    75    1
     4    77    75    1
     5    18    17    1
     6    75    72    1
     7    72    73    1
     8    72    71    1
     9    74    73    2
    10    20    17    1
    11    20    21    1
    12    39    40    1
    13    39    36    1
    14    64    63    2
    15    42    40   am
    16    35    36    1
    17    23    21    1
    18    17    16    1
    19    24    25    1
    20    73    79   am
    21    71    63   am
    22    63    62    1
    23    61    62    1
    24    40    41    2
    25    21    22    1
    26    36    37    1
    27    28    25    1
    28    28    29    1
    29    34    32    1
    30    31    30    1
    31    31    32    2
    32    25    26    1
    33    62    65    1
    34    79    80    1
    35    16    10   am
    36    38    37    2
    37    30    29    1
    38    32    33    1
    39    26    27    2
    40    11    10    2
    41    10     9    1
    42    80    81    1
    43    80    83    1
    44    65    66    1
    45    81    82    2
    46    83    84    1
    47     9     8    1
    48     9    12    1
    49    66    68   ar
    50    66    67   ar
    51     8     3   am
    52    68    70   ar
    53     4     3    2
    54     3     2    1
    55     1     2    1
    56     1     7    1
    57     2     5    1
    58    67    69   ar
    59    43    44    1
    60    12    13    1
    61    70    69   ar
    62     7     6    1
    63    44    45    1
    64    85    86    1
    65    14    13    2
    66    13    15   am
    67     5     6    1
    68    90    89    1
    69    45    46    2
    70    45    47   am
    71    91    89    1
    72    86    89    1
    73    86    87    1
    74   101   100    1
    75    47    48    1
    76    98    99    1
    77    98    97    1
    78   100    99    2
    79   100   102    1
    80    87    88    2
    81    97    96    1
    82    48    49    1
    83    60    59   ar
    84    60    58   ar
    85    59    57   ar
    86    49    50    2
    87   112   111    1
    88    96    93    1
    89    92    93    1
    90   109   110    1
    91   109   108    1
    92   111   110    2
    93   111   113    1
    94   106   105    2
    95    58    56   ar
    96    93    94    1
    97    57    56   ar
    98    51    52    1
    99   108   107    1
   100   107   104    1
   101    56    55    1
   102   105   104    1
   103    94    95    2
   104    52    55    1
   105    52    53    1
   106   104   103    1
   107    53    54    2
