@<TRIPOS>MOLECULE
tmp/4ciwA00.pdb
 133 127 0 0 0
SMALL
GASTEIGER

@<TRIPOS>ATOM
      1  N         10.1910   15.7980   24.2850 N.3     9  PRO9       -0.2102
      2  CA         9.7090   17.0940   23.8290 C.3     9  PRO9        0.1504
      3  C          8.2910   17.3860   24.1990 C.2     9  PRO9        0.2576
      4  O          7.4470   16.5150   24.0920 O.2     9  PRO9       -0.2718
      5  CB         9.8130   16.9990   22.3180 C.3     9  PRO9        0.0282
      6  CG        10.9120   16.0560   22.0960 C.3     9  PRO9        0.0208
      7  CD        10.8070   15.0460   23.1850 C.3     9  PRO9        0.0893
      8  N          8.0890   18.6240   24.6540 N.am   10  ASN10      -0.1961
      9  CA         6.8020   19.2110   24.9860 C.3    10  ASN10       0.1819
     10  C          6.2180   18.7820   26.3010 C.2    10  ASN10       0.2621
     11  O          5.1910   19.3300   26.6990 O.2    10  ASN10      -0.2715
     12  CB         5.7860   19.0620   23.8610 C.3    10  ASN10       0.1195
     13  CG         6.2020   19.8010   22.6250 C.2    10  ASN10       0.2630
     14  OD1        6.5170   20.9930   22.6770 O.2    10  ASN10      -0.2716
     15  ND2        6.2310   19.1030   21.4980 N.am   10  ASN10      -0.0877
     16  N          6.8750   17.8510   26.9920 N.am   11  LEU11      -0.1977
     17  CA         6.3360   17.3520   28.2570 C.3    11  LEU11       0.1596
     18  C          6.5220   18.3600   29.3650 C.2    11  LEU11       0.2287
     19  O          5.7840   18.3260   30.3740 O.2    11  LEU11      -0.2864
     20  CB         6.9430   16.0100   28.6780 C.3    11  LEU11       0.0297
     21  CG         6.2610   14.7000   28.2190 C.3    11  LEU11       0.0022
     22  CD1        4.7700   14.6920   28.5630 C.3    11  LEU11       0.0001
     23  CD2        6.4280   14.4150   26.7520 C.3    11  LEU11       0.0001
     24  N          5.4980   21.2260   28.9800 N.3    13  ARG13      -0.1231
     25  CA         4.2970   22.0130   28.7820 C.3    13  ARG13       0.1694
     26  C          3.0280   21.3800   29.3900 C.2    13  ARG13       0.2591
     27  O          1.9380   21.9030   29.1790 O.2    13  ARG13      -0.2718
     28  CB         4.0460   22.2170   27.2890 C.3    13  ARG13       0.0321
     29  CG         5.2460   22.7730   26.5330 C.3    13  ARG13       0.0489
     30  CD         5.5160   24.2300   26.9000 C.3    13  ARG13       0.2205
     31  NE         4.3880   25.0440   26.4430 N.pl3  13  ARG13      -0.0865
     32  CZ         4.2240   26.3380   26.6910 C.cat  13  ARG13       0.5346
     33  NH1        5.1150   27.0010   27.4240 N.pl3  13  ARG13       0.1354
     34  NH2        3.1520   26.9690   26.1990 N.pl3  13  ARG13       0.1354
     35  N          3.1440   20.2630   30.1110 N.am   14  LEU14      -0.1980
     36  CA         1.9810   19.6850   30.7910 C.3    14  LEU14       0.1596
     37  C          1.1970   20.7050   31.6200 C.2    14  LEU14       0.2287
     38  O          1.7880   21.5220   32.3520 O.2    14  LEU14      -0.2864
     39  CB         2.3880   18.5520   31.7160 C.3    14  LEU14       0.0297
     40  CG         2.6700   17.2220   31.0700 C.3    14  LEU14       0.0022
     41  CD1        3.2660   16.2780   32.0950 C.3    14  LEU14       0.0001
     42  CD2        1.3930   16.6680   30.4270 C.3    14  LEU14       0.0001
     43  N         -4.0550   15.9690   27.8740 N.3    22  TYR22      -0.1241
     44  CA        -2.9800   15.4470   28.7190 C.3    22  TYR22       0.1605
     45  C         -3.2290   15.5680   30.2410 C.2    22  TYR22       0.2264
     46  O         -2.3360   15.2370   31.0180 O.2    22  TYR22      -0.2867
     47  CB        -1.6370   16.1280   28.3610 C.3    22  TYR22       0.0534
     48  CG        -1.1580   15.9330   26.9410 C.ar   22  TYR22      -0.0201
     49  CD1       -0.7910   14.6780   26.4750 C.ar   22  TYR22      -0.0009
     50  CD2       -1.0820   17.0220   26.0420 C.ar   22  TYR22      -0.0009
     51  CE1       -0.3530   14.4910   25.1640 C.ar   22  TYR22       0.0417
     52  CE2       -0.6360   16.8520   24.7230 C.ar   22  TYR22       0.0417
     53  CZ        -0.2730   15.5750   24.2810 C.ar   22  TYR22       0.1957
     54  OH         0.1680   15.3730   22.9680 O.3    22  TYR22      -0.2866
     55  N          8.7630    8.5900   28.5300 N.3    73  ASN73      -0.1240
     56  CA         7.7270    9.1440   27.7030 C.3    73  ASN73       0.1653
     57  C          8.4150   10.0900   26.7400 C.2    73  ASN73       0.2266
     58  O          8.7750   11.2400   27.0970 O.2    73  ASN73      -0.2867
     59  CB         6.6950    9.8930   28.5280 C.3    73  ASN73       0.1155
     60  CG         5.6280   10.5060   27.6600 C.2    73  ASN73       0.2627
     61  OD1        5.7500   10.5550   26.4080 O.2    73  ASN73      -0.2716
     62  ND2        4.5800   10.9950   28.3050 N.am   73  ASN73      -0.0877
     63  N          7.4620   11.6950   24.0650 N.3    75  GLY75      -0.1210
     64  CA         6.6520   12.6790   23.3350 C.3    75  GLY75       0.1956
     65  C          6.6150   12.3090   21.8610 C.2    75  GLY75       0.2612
     66  O          6.4950   11.1340   21.5270 O.2    75  GLY75      -0.2717
     67  N          6.7850   13.2960   20.9840 N.am   76  GLY76      -0.1956
     68  CA         6.6400   13.0860   19.5390 C.3    76  GLY76       0.1869
     69  C          7.7360   12.2080   18.9450 C.2    76  GLY76       0.2309
     70  O          7.5480   11.5850   17.8690 O.2    76  GLY76      -0.2863
     71  N          7.3790    8.4420   17.7860 N.3    79  HIS79      -0.1241
     72  CA         6.8620    8.0450   16.4830 C.3    79  HIS79       0.1621
     73  C          7.8550    8.2710   15.3780 C.2    79  HIS79       0.2264
     74  O          7.6020    7.8380   14.2600 O.2    79  HIS79      -0.2867
     75  CB         5.5800    8.8190   16.1560 C.3    79  HIS79       0.0745
     76  CG         4.6770    8.9800   17.3250 C.ar   79  HIS79       0.0817
     77  ND1        4.0610    7.9110   17.9320 N.ar   79  HIS79      -0.2268
     78  CD2        4.3160   10.0710   18.0320 C.ar   79  HIS79       0.1154
     79  CE1        3.3470    8.3370   18.9560 C.ar   79  HIS79       0.1986
     80  NE2        3.4930    9.6440   19.0430 N.ar   79  HIS79      -0.2212
     81  N          2.6800    6.6980   27.7850 N.3    99  HIS99      -0.1226
     82  CA         1.9850    7.8170   27.1600 C.3    99  HIS99       0.1752
     83  C          0.8280    8.2020   28.0500 C.2    99  HIS99       0.2596
     84  O          0.0420    7.3450   28.4770 O.2    99  HIS99      -0.2718
     85  CB         1.5010    7.4780   25.7470 C.3    99  HIS99       0.0759
     86  CG         2.6270    7.1060   24.8480 C.ar   99  HIS99       0.0818
     87  ND1        3.5750    8.0220   24.4420 N.ar   99  HIS99      -0.2268
     88  CD2        3.0500    5.9030   24.3970 C.ar   99  HIS99       0.1154
     89  CE1        4.4990    7.4040   23.7280 C.ar   99  HIS99       0.1986
     90  NE2        4.2010    6.1150   23.6840 N.ar   99  HIS99      -0.2212
     91  N          0.7250    9.4990   28.3040 N.am  100  ILE100     -0.1966
     92  CA        -0.3300   10.0670   29.1250 C.3   100  ILE100      0.1727
     93  C         -1.6710    9.9170   28.3970 C.2   100  ILE100      0.2616
     94  O         -2.6640    9.4690   29.0010 O.2   100  ILE100     -0.2715
     95  CB        -0.0320   11.5580   29.4440 C.3   100  ILE100      0.0290
     96  CG1        1.1970   11.6520   30.3270 C.3   100  ILE100      0.0022
     97  CG2       -1.2210   12.2830   30.1100 C.3   100  ILE100      0.0023
     98  CD1        1.7150   13.0550   30.4180 C.3   100  ILE100      0.0001
     99  N         -1.6910   10.2960   27.1180 N.am  101  SER101     -0.1950
    100  CA        -2.9170   10.2290   26.3350 C.3   101  SER101      0.1924
    101  C         -3.0390    8.8370   25.7370 C.2   101  SER101      0.2314
    102  O         -2.0480    8.1060   25.6310 O.2   101  SER101     -0.2863
    103  CB        -2.9180   11.2850   25.2130 C.3   101  SER101      0.2116
    104  OG        -1.9750   10.9670   24.1850 O.3   101  SER101     -0.2180
    105  N         -2.9320    7.2890   22.7180 N.3   103  VAL103     -0.1245
    106  CA        -2.4830    7.5520   21.3380 C.3   103  VAL103      0.1561
    107  C         -3.3280    6.8070   20.2500 C.2   103  VAL103      0.2260
    108  O         -3.4500    7.2670   19.1100 O.2   103  VAL103     -0.2867
    109  CB        -0.9770    7.2770   21.1750 C.3   103  VAL103      0.0252
    110  CG1       -0.1630    8.2130   22.0490 C.3   103  VAL103      0.0019
    111  CG2       -0.5980    5.8420   21.5300 C.3   103  VAL103      0.0019
    112  N         -6.2140    8.8170   18.6970 N.3   106  ARG106     -0.1245
    113  CA        -5.8390   10.1130   18.1180 C.3   106  ARG106      0.1563
    114  C         -5.4960    9.9090   16.6430 C.2   106  ARG106      0.2260
    115  O         -6.0310    8.9890   16.0180 O.2   106  ARG106     -0.2867
    116  CB        -4.6760   10.6840   18.9260 C.3   106  ARG106      0.0307
    117  CG        -5.1000   10.9500   20.3690 C.3   106  ARG106      0.0489
    118  CD        -3.9750   11.5260   21.2050 C.3   106  ARG106      0.2205
    119  NE        -3.6440   12.8680   20.7560 N.pl3 106  ARG106     -0.0865
    120  CZ        -2.5990   13.5720   21.1650 C.cat 106  ARG106      0.5346
    121  NH1       -1.7340   13.0800   22.0570 N.pl3 106  ARG106      0.1354
    122  NH2       -2.4230   14.7910   20.6660 N.pl3 106  ARG106      0.1354
    123  N          0.2650    8.5120   15.4620 N.3   110  ARG110     -0.1245
    124  CA         0.5730    8.2820   16.8730 C.3   110  ARG110      0.1563
    125  C          0.4340    6.8400   17.2840 C.2   110  ARG110      0.2260
    126  O          0.8800    6.4700   18.3660 O.2   110  ARG110     -0.2867
    127  CB        -0.2870    9.1390   17.7720 C.3   110  ARG110      0.0307
    128  CG        -0.0440   10.6240   17.5740 C.3   110  ARG110      0.0489
    129  CD        -0.7290   11.4930   18.6380 C.3   110  ARG110      0.2205
    130  NE        -0.8370   12.8500   18.1230 N.pl3 110  ARG110     -0.0865
    131  CZ         0.1020   13.7870   18.2140 C.cat 110  ARG110      0.5346
    132  NH1        1.2530   13.5680   18.9030 N.pl3 110  ARG110      0.1354
    133  NH2       -0.1370   14.9830   17.6540 N.pl3 110  ARG110      0.1354
@<TRIPOS>BOND
     1    74    73    2
     2    73    72    1
     3   123   124    1
     4   115   114    2
     5    75    72    1
     6    75    76    1
     7    72    71    1
     8   114   113    1
     9   124   125    1
    10   124   127    1
    11   125   126    2
    12    76    77   ar
    13    76    78   ar
    14   128   127    1
    15   128   129    1
    16   133   131    1
    17    70    69    2
    18    77    79   ar
    19    78    80   ar
    20   113   112    1
    21   113   116    1
    22   130   131    2
    23   130   129    1
    24   131   132    1
    25   116   117    1
    26    69    68    1
    27    79    80   ar
    28   108   107    2
    29    68    67    1
    30   107   106    1
    31   117   118    1
    32   122   120    1
    33   119   120    2
    34   119   118    1
    35    67    65   am
    36   120   121    1
    37   109   106    1
    38   109   111    1
    39   109   110    1
    40   106   105    1
    41    15    13   am
    42    66    65    2
    43    65    64    1
    44     6     5    1
    45     6     7    1
    46     5     2    1
    47    13    14    2
    48    13    12    1
    49    54    53    1
    50     7     1    1
    51    64    63    1
    52    90    89   ar
    53    90    88   ar
    54    89    87   ar
    55     2     3    1
    56     2     1    1
    57    12     9    1
    58     4     3    2
    59   104   103    1
    60     3     8   am
    61    53    52   ar
    62    53    51   ar
    63    88    86   ar
    64    87    86   ar
    65     8     9    1
    66    52    50   ar
    67    86    85    1
    68     9    10    1
    69    51    49   ar
    70   103   100    1
    71   102   101    2
    72   101   100    1
    73    85    82    1
    74    50    48   ar
    75    34    32    1
    76    10    11    2
    77    10    16   am
    78   100    99    1
    79    61    60    2
    80    31    32    2
    81    31    30    1
    82    49    48   ar
    83    29    30    1
    84    29    28    1
    85    32    33    1
    86    57    58    2
    87    57    56    1
    88    23    21    1
    89    48    47    1
    90    16    17    1
    91    99    93   am
    92    82    81    1
    93    82    83    1
    94    28    25    1
    95    60    62   am
    96    60    59    1
    97    56    59    1
    98    56    55    1
    99    43    44    1
   100    83    91   am
   101    83    84    2
   102    21    22    1
   103    21    20    1
   104    17    20    1
   105    17    18    1
   106    91    92    1
   107    47    44    1
   108    93    94    2
   109    93    92    1
   110    44    45    1
   111    25    24    1
   112    25    26    1
   113    92    95    1
   114    27    26    2
   115    18    19    2
   116    26    35   am
   117    95    97    1
   118    95    96    1
   119    35    36    1
   120    45    46    2
   121    96    98    1
   122    42    40    1
   123    36    37    1
   124    36    39    1
   125    40    39    1
   126    40    41    1
   127    37    38    2
