@<TRIPOS>MOLECULE
tmp/4ciyA00.pdb
 144 137 0 0 0
SMALL
GASTEIGER

@<TRIPOS>ATOM
      1  N        -15.8150  -21.4660    7.3920 N.3     9  PRO9       -0.2102
      2  CA       -14.5070  -21.9380    7.8320 C.3     9  PRO9        0.1504
      3  C        -14.1900  -23.3640    7.4680 C.2     9  PRO9        0.2576
      4  O        -15.0680  -24.2450    7.5170 O.2     9  PRO9       -0.2718
      5  CB       -14.5620  -21.7910    9.3480 C.3     9  PRO9        0.0282
      6  CG       -15.5430  -20.6960    9.5820 C.3     9  PRO9        0.0208
      7  CD       -16.5080  -20.7210    8.4520 C.3     9  PRO9        0.0893
      8  N        -12.9240  -23.5540    7.0780 N.am   10  ASN10      -0.1961
      9  CA       -12.3490  -24.8260    6.7240 C.3    10  ASN10       0.1819
     10  C        -12.7510  -25.3630    5.3670 C.2    10  ASN10       0.2621
     11  O        -12.1590  -26.3300    4.9100 O.2    10  ASN10      -0.2715
     12  CB       -12.5830  -25.8790    7.8080 C.3    10  ASN10       0.1195
     13  CG       -12.0120  -25.4560    9.1440 C.2    10  ASN10       0.2630
     14  OD1      -10.8890  -25.0200    9.2110 O.2    10  ASN10      -0.2716
     15  ND2      -12.8080  -25.5160   10.1820 N.am   10  ASN10      -0.0877
     16  N        -13.7240  -24.7400    4.7140 N.am   11  LEU11      -0.1977
     17  CA       -14.2030  -25.2620    3.4450 C.3    11  LEU11       0.1596
     18  C        -13.2010  -25.0280    2.3430 C.2    11  LEU11       0.2287
     19  O        -13.2710  -25.7020    1.3360 O.2    11  LEU11      -0.2864
     20  CB       -15.5470  -24.7200    3.0210 C.3    11  LEU11       0.0297
     21  CG       -16.8360  -25.4490    3.4870 C.3    11  LEU11       0.0022
     22  CD1      -16.7680  -26.9620    3.3580 C.3    11  LEU11       0.0001
     23  CD2      -17.2150  -25.0610    4.8920 C.3    11  LEU11       0.0001
     24  N        -10.3420  -26.0030    2.6300 N.3    13  ARG13      -0.1231
     25  CA        -9.5210  -27.1930    2.7360 C.3    13  ARG13       0.1694
     26  C        -10.1520  -28.4270    2.1080 C.2    13  ARG13       0.2591
     27  O         -9.5780  -29.5150    2.2320 O.2    13  ARG13      -0.2718
     28  CB        -9.2770  -27.5650    4.1970 C.3    13  ARG13       0.0321
     29  CG        -8.8210  -26.4350    5.0940 C.3    13  ARG13       0.0489
     30  CD        -7.3550  -26.1300    4.9240 C.3    13  ARG13       0.2205
     31  NE        -6.5570  -27.2750    5.3390 N.pl3  13  ARG13      -0.0865
     32  CZ        -5.2830  -27.4600    4.9910 C.cat  13  ARG13       0.5346
     33  NH1       -4.6520  -26.5650    4.2560 N.pl3  13  ARG13       0.1354
     34  NH2       -4.6360  -28.5370    5.4020 N.pl3  13  ARG13       0.1354
     35  N        -11.3070  -28.2960    1.4550 N.am   14  LEU14      -0.1980
     36  CA       -11.9230  -29.4680    0.8340 C.3    14  LEU14       0.1596
     37  C        -10.9120  -30.1860   -0.0290 C.2    14  LEU14       0.2287
     38  O        -10.1230  -29.5320   -0.7250 O.2    14  LEU14      -0.2864
     39  CB       -13.0410  -29.0530   -0.0880 C.3    14  LEU14       0.0297
     40  CG       -14.3970  -28.7000    0.4790 C.3    14  LEU14       0.0022
     41  CD1      -15.2960  -28.2630   -0.6750 C.3    14  LEU14       0.0001
     42  CD2      -14.9830  -29.8940    1.1980 C.3    14  LEU14       0.0001
     43  N         -8.0120  -32.0270    0.5060 N.3    16  ARG16      -0.1245
     44  CA        -6.9430  -32.4360    1.4450 C.3    16  ARG16       0.1563
     45  C         -7.4040  -33.4090    2.5370 C.2    16  ARG16       0.2260
     46  O         -7.8740  -32.9800    3.5870 O.2    16  ARG16      -0.2867
     47  CB        -6.3700  -31.2040    2.1220 C.3    16  ARG16       0.0307
     48  CG        -5.6870  -30.2840    1.1370 C.3    16  ARG16       0.0489
     49  CD        -5.7580  -28.8310    1.5710 C.3    16  ARG16       0.2205
     50  NE        -5.8310  -27.9500    0.4060 N.pl3  16  ARG16      -0.0865
     51  CZ        -6.1800  -26.6630    0.4270 C.cat  16  ARG16       0.5346
     52  NH1       -6.4880  -26.0490    1.5610 N.pl3  16  ARG16       0.1354
     53  NH2       -6.2180  -25.9740   -0.7080 N.pl3  16  ARG16       0.1354
     54  N        -15.4100  -34.9670    3.4420 N.3    17  TYR17      -0.1241
     55  CA       -14.9650  -33.8980    2.5190 C.3    17  TYR17       0.1605
     56  C        -13.5170  -34.0170    1.9060 C.2    17  TYR17       0.2264
     57  O        -12.5960  -33.1860    2.1730 O.2    17  TYR17      -0.2867
     58  CB       -15.1680  -32.5160    3.1570 C.3    17  TYR17       0.0534
     59  CG       -15.5160  -32.4830    4.6270 C.ar   17  TYR17      -0.0201
     60  CD1      -14.6110  -32.9350    5.6100 C.ar   17  TYR17      -0.0009
     61  CD2      -16.7370  -31.9410    5.0370 C.ar   17  TYR17      -0.0009
     62  CE1      -14.9420  -32.8750    6.9600 C.ar   17  TYR17       0.0417
     63  CE2      -17.0790  -31.8710    6.3740 C.ar   17  TYR17       0.0417
     64  CZ       -16.1970  -32.3370    7.3400 C.ar   17  TYR17       0.1957
     65  OH       -16.5890  -32.2160    8.6700 O.3    17  TYR17      -0.2866
     66  N        -22.9600  -22.9110    3.2090 N.3    68  ASN68      -0.1240
     67  CA       -22.3910  -23.9600    3.9970 C.3    68  ASN68       0.1653
     68  C        -21.4510  -23.2620    4.9550 C.2    68  ASN68       0.2266
     69  O        -20.3150  -22.9210    4.6160 O.2    68  ASN68      -0.2867
     70  CB       -21.6340  -24.9640    3.1470 C.3    68  ASN68       0.1155
     71  CG       -21.0510  -26.0720    3.9830 C.2    68  ASN68       0.2627
     72  OD1      -21.0240  -25.9940    5.2210 O.2    68  ASN68      -0.2716
     73  ND2      -20.5640  -27.1050    3.3220 N.am   68  ASN68      -0.0877
     74  N        -19.8950  -24.2910    7.6160 N.3    70  GLY70      -0.1210
     75  CA       -18.9800  -25.0880    8.4300 C.3    70  GLY70       0.1956
     76  C        -19.3260  -25.0680    9.9290 C.2    70  GLY70       0.2612
     77  O        -20.5060  -25.1360   10.2970 O.2    70  GLY70      -0.2717
     78  N        -18.3120  -24.9870   10.7920 N.am   71  GLY71      -0.1956
     79  CA       -18.5410  -25.1210   12.2260 C.3    71  GLY71       0.1869
     80  C        -19.4510  -24.0260   12.7460 C.2    71  GLY71       0.2309
     81  O        -20.0660  -24.1980   13.7930 O.2    71  GLY71      -0.2863
     82  N        -23.0940  -24.3340   13.8880 N.3    74  HIS74      -0.1241
     83  CA       -23.5240  -24.8510   15.1730 C.3    74  HIS74       0.1621
     84  C        -23.3180  -23.8520   16.2950 C.2    74  HIS74       0.2264
     85  O        -23.7260  -24.1400   17.4070 O.2    74  HIS74      -0.2867
     86  CB       -22.7690  -26.1440   15.5140 C.3    74  HIS74       0.0745
     87  CG       -22.6500  -27.0810   14.3630 C.ar   74  HIS74       0.0817
     88  ND1      -23.7450  -27.6700   13.7720 N.ar   74  HIS74      -0.2268
     89  CD2      -21.5700  -27.4800   13.6480 C.ar   74  HIS74       0.1154
     90  CE1      -23.3430  -28.3980   12.7450 C.ar   74  HIS74       0.1986
     91  NE2      -22.0250  -28.3070   12.6540 N.ar   74  HIS74      -0.2212
     92  N        -24.8520  -28.8470    3.8720 N.3    94  HIS94      -0.1226
     93  CA       -23.7320  -29.5760    4.4470 C.3    94  HIS94       0.1752
     94  C        -23.3930  -30.7520    3.5800 C.2    94  HIS94       0.2596
     95  O        -24.2580  -31.5160    3.1700 O.2    94  HIS94      -0.2718
     96  CB       -24.0400  -30.0210    5.8650 C.3    94  HIS94       0.0759
     97  CG       -24.3830  -28.8740    6.7370 C.ar   94  HIS94       0.0818
     98  ND1      -23.4320  -27.9530    7.1310 N.ar   94  HIS94      -0.2268
     99  CD2      -25.5760  -28.3830    7.1460 C.ar   94  HIS94       0.1154
    100  CE1      -24.0200  -26.9840    7.8110 C.ar   94  HIS94       0.1986
    101  NE2      -25.3180  -27.2260    7.8410 N.ar   94  HIS94      -0.2212
    102  N        -22.0910  -30.8810    3.3270 N.am   95  ILE95      -0.1966
    103  CA       -21.5270  -31.9470    2.5530 C.3    95  ILE95       0.1727
    104  C        -21.7010  -33.2900    3.2880 C.2    95  ILE95       0.2616
    105  O        -22.1990  -34.2510    2.7100 O.2    95  ILE95      -0.2715
    106  CB       -20.0320  -31.6190    2.2680 C.3    95  ILE95       0.0290
    107  CG1      -19.9570  -30.4620    1.2600 C.3    95  ILE95       0.0022
    108  CG2      -19.2590  -32.8110    1.7210 C.3    95  ILE95       0.0023
    109  CD1      -18.5970  -29.7870    1.2460 C.3    95  ILE95       0.0001
    110  N        -21.3080  -33.3110    4.5590 N.am   96  SER96      -0.1950
    111  CA       -21.3660  -34.4730    5.3770 C.3    96  SER96       0.1924
    112  C        -22.7870  -34.5610    5.9540 C.2    96  SER96       0.2314
    113  O        -23.5330  -33.5850    5.9670 O.2    96  SER96      -0.2863
    114  CB       -20.3110  -34.3810    6.4890 C.3    96  SER96       0.2116
    115  OG       -20.6930  -33.4230    7.4980 O.3    96  SER96      -0.2180
    116  N        -24.4420  -34.3440    8.9480 N.3    98  VAL98      -0.1245
    117  CA       -24.2430  -33.8330   10.2930 C.3    98  VAL98       0.1561
    118  C        -24.9860  -34.5880   11.4050 C.2    98  VAL98       0.2260
    119  O        -24.7300  -34.3270   12.5740 O.2    98  VAL98      -0.2867
    120  CB       -24.5670  -32.3270   10.3980 C.3    98  VAL98       0.0252
    121  CG1      -23.6440  -31.5190    9.4810 C.3    98  VAL98       0.0019
    122  CG2      -26.0280  -32.0180   10.1190 C.3    98  VAL98       0.0019
    123  N        -22.7570  -37.9360   13.2190 N.3   101  ARG101     -0.1245
    124  CA       -21.4510  -37.6550   13.8420 C.3   101  ARG101      0.1563
    125  C        -21.6800  -37.2560   15.2730 C.2   101  ARG101      0.2260
    126  O        -22.5670  -37.8180   15.9060 O.2   101  ARG101     -0.2867
    127  CB       -20.7510  -36.5190   13.0450 C.3   101  ARG101      0.0307
    128  CG       -20.5410  -36.8550   11.5670 C.3   101  ARG101      0.0489
    129  CD       -20.1060  -35.6430   10.7460 C.3   101  ARG101      0.2205
    130  NE       -18.7600  -35.1840   11.1090 N.pl3 101  ARG101     -0.0865
    131  CZ       -18.1840  -34.0690   10.6240 C.cat 101  ARG101      0.5346
    132  NH1      -18.8280  -33.2810    9.7510 N.pl3 101  ARG101      0.1354
    133  NH2      -16.9600  -33.7270   11.0140 N.pl3 101  ARG101      0.1354
    134  N        -23.2550  -31.5070   16.3950 N.3   105  ARG105     -0.1245
    135  CA       -23.4620  -31.1450   14.9960 C.3   105  ARG105      0.1563
    136  C        -24.8840  -31.2700   14.5480 C.2   105  ARG105      0.2260
    137  O        -25.2280  -30.8260   13.4180 O.2   105  ARG105     -0.2867
    138  CB       -22.5990  -31.9920   14.1030 C.3   105  ARG105      0.0307
    139  CG       -21.1300  -31.6780   14.1990 C.3   105  ARG105      0.0489
    140  CD       -20.3090  -32.4020   13.1320 C.3   105  ARG105      0.2205
    141  NE       -18.9810  -32.5570   13.6740 N.pl3 105  ARG105     -0.0865
    142  CZ       -18.0530  -31.6110   13.6310 C.cat 105  ARG105      0.5346
    143  NH1      -18.2600  -30.4620   12.9460 N.pl3 105  ARG105      0.1354
    144  NH2      -16.8800  -31.8660   14.1660 N.pl3 105  ARG105      0.1354
@<TRIPOS>BOND
     1    38    37    2
     2    53    51    1
     3    41    40    1
     4    39    40    1
     5    39    36    1
     6    37    36    1
     7    50    51    2
     8    50    49    1
     9    51    52    1
    10    40    42    1
    11    43    44    1
    12    36    35    1
    13    48    49    1
    14    48    47    1
    15   109   107    1
    16   107   106    1
    17    19    18    2
    18    44    47    1
    19    44    45    1
    20    35    26   am
    21   108   106    1
    22    56    57    2
    23    56    55    1
    24    26    27    2
    25    26    25    1
    26   106   103    1
    27    18    17    1
    28    55    58    1
    29    55    54    1
    30    45    46    2
    31   103   104    1
    32   103   102    1
    33    24    25    1
    34   105   104    2
    35    25    28    1
    36    20    17    1
    37    20    21    1
    38    70    71    1
    39    70    67    1
    40    58    59    1
    41    95    94    2
    42    66    67    1
    43   104   110   am
    44    73    71   am
    45   102    94   am
    46    22    21    1
    47    17    16    1
    48    21    23    1
    49    94    93    1
    50    92    93    1
    51    71    72    2
    52    67    68    1
    53    28    29    1
    54    33    32    1
    55    93    96    1
    56   110   111    1
    57    69    68    2
    58    59    61   ar
    59    59    60   ar
    60    16    10   am
    61    11    10    2
    62    30    29    1
    63    30    31    1
    64    32    31    2
    65    32    34    1
    66    61    63   ar
    67    10     9    1
    68   111   112    1
    69   111   114    1
    70    60    62   ar
    71    96    97    1
    72   112   113    2
    73    63    64   ar
    74   114   115    1
    75     9     8    1
    76     9    12    1
    77    97    98   ar
    78    97    99   ar
    79    62    64   ar
    80     8     3   am
    81    98   100   ar
    82    99   101   ar
    83    64    65    1
    84     1     2    1
    85     1     7    1
    86     3     4    2
    87     3     2    1
    88    74    75    1
    89    12    13    1
    90   100   101   ar
    91     2     5    1
    92    75    76    1
    93     7     6    1
    94   116   117    1
    95    13    14    2
    96    13    15   am
    97     5     6    1
    98   121   120    1
    99   132   131    1
   100    76    77    2
   101    76    78   am
   102   122   120    1
   103   117   120    1
   104   117   118    1
   105   131   133    1
   106   131   130    2
   107   129   130    1
   108   129   128    1
   109    78    79    1
   110   118   119    2
   111   128   127    1
   112    79    80    1
   113    91    90   ar
   114    91    89   ar
   115    90    88   ar
   116    80    81    2
   117   143   142    1
   118   127   124    1
   119   140   141    1
   120   140   139    1
   121   123   124    1
   122   137   136    2
   123   142   141    2
   124   142   144    1
   125    89    87   ar
   126    88    87   ar
   127   124   125    1
   128    82    83    1
   129   138   139    1
   130   138   135    1
   131    87    86    1
   132   136   135    1
   133   135   134    1
   134    83    86    1
   135    83    84    1
   136   125   126    2
   137    84    85    2
