@<TRIPOS>MOLECULE
tmp/4cizA00.pdb
 187 175 0 0 0
SMALL
GASTEIGER

@<TRIPOS>ATOM
      1  N         -1.0820   25.4500   10.1050 N.3   139  PHE139     -0.1241
      2  CA        -0.4240   24.4700    9.2480 C.3   139  PHE139      0.1605
      3  C         -0.9150   24.5830    7.8070 C.2   139  PHE139      0.2264
      4  O         -2.0810   24.3160    7.5170 O.2   139  PHE139     -0.2867
      5  CB        -0.6410   23.0470    9.7670 C.3   139  PHE139      0.0534
      6  CG         0.2750   22.0320    9.1430 C.ar  139  PHE139     -0.0203
      7  CD1       -0.0840   21.3730    7.9790 C.ar  139  PHE139     -0.0042
      8  CD2        1.5030   21.7460    9.7160 C.ar  139  PHE139     -0.0042
      9  CE1        0.7620   20.4440    7.4020 C.ar  139  PHE139     -0.0003
     10  CE2        2.3520   20.8170    9.1430 C.ar  139  PHE139     -0.0003
     11  CZ         1.9820   20.1660    7.9860 C.ar  139  PHE139     -0.0000
     12  N         -0.6380   23.1710    4.0620 N.3   141  ILE141     -0.1245
     13  CA        -0.2080   21.9930    3.3170 C.3   141  ILE141      0.1561
     14  C          0.2980   22.3480    1.9210 C.2   141  ILE141      0.2260
     15  O          0.9540   21.5370    1.2650 O.2   141  ILE141     -0.2867
     16  CB        -1.3460   20.9580    3.1890 C.3   141  ILE141      0.0252
     17  CG1       -0.7730   19.5520    3.0000 C.3   141  ILE141      0.0019
     18  CG2       -2.2740   21.3230    2.0430 C.3   141  ILE141      0.0019
     19  CD1        0.1990   19.1440    4.0790 C.3   141  ILE141      0.0001
     20  N          6.6410   13.5410    8.4150 N.3   151  PHE151     -0.1241
     21  CA         5.4350   13.7710    9.1990 C.3   151  PHE151      0.1605
     22  C          5.8010   13.7900   10.6770 C.2   151  PHE151      0.2264
     23  O          5.2030   14.5170   11.4700 O.2   151  PHE151     -0.2867
     24  CB         4.4050   12.6700    8.9270 C.3   151  PHE151      0.0534
     25  CG         2.9980   13.0340    9.3250 C.ar  151  PHE151     -0.0203
     26  CD1        2.5900   12.9530   10.6460 C.ar  151  PHE151     -0.0042
     27  CD2        2.0810   13.4480    8.3730 C.ar  151  PHE151     -0.0042
     28  CE1        1.2970   13.2840   11.0070 C.ar  151  PHE151     -0.0003
     29  CE2        0.7870   13.7790    8.7290 C.ar  151  PHE151     -0.0003
     30  CZ         0.3950   13.6980   10.0470 C.ar  151  PHE151     -0.0000
     31  N         -6.3250   24.6500   16.0220 N.3   178  ILE178     -0.1245
     32  CA        -5.4720   24.4180   14.8580 C.3   178  ILE178      0.1561
     33  C         -6.1560   24.8120   13.5470 C.2   178  ILE178      0.2260
     34  O         -7.3450   24.5590   13.3540 O.2   178  ILE178     -0.2867
     35  CB        -4.9960   22.9480   14.7880 C.3   178  ILE178      0.0252
     36  CG1       -4.5010   22.4830   16.1590 C.3   178  ILE178      0.0019
     37  CG2       -3.9020   22.7780   13.7410 C.3   178  ILE178      0.0019
     38  CD1       -3.9670   21.0610   16.1710 C.3   178  ILE178      0.0001
     39  N         -5.9280   24.2340    9.5300 N.3   180  GLU180     -0.1245
     40  CA        -5.3580   23.4290    8.4580 C.3   180  GLU180      0.1567
     41  C         -5.7310   23.9720    7.0860 C.2   180  GLU180      0.2260
     42  O         -6.8630   23.8130    6.6310 O.2   180  GLU180     -0.2867
     43  CB        -5.8170   21.9800    8.5840 C.3   180  GLU180      0.0388
     44  CG        -5.3530   21.2900    9.8510 C.3   180  GLU180      0.1160
     45  CD        -3.8770   20.9480    9.8190 C.2   180  GLU180      0.3649
     46  OE1       -3.2490   21.1000    8.7500 O.co2 180  GLU180     -0.2457
     47  OE2       -3.3440   20.5220   10.8650 O.co2 180  GLU180     -0.2457
     48  N         -5.7870   23.4930    3.5870 N.3   182  PHE182     -0.1241
     49  CA        -5.6700   22.4620    2.5620 C.3   182  PHE182      0.1605
     50  C         -5.9900   22.9810    1.1630 C.2   182  PHE182      0.2264
     51  O         -6.6680   22.3130    0.3840 O.2   182  PHE182     -0.2867
     52  CB        -6.5530   21.2580    2.9030 C.3   182  PHE182      0.0534
     53  CG        -5.9670   20.3520    3.9500 C.ar  182  PHE182     -0.0203
     54  CD1       -4.6880   20.5670    4.4340 C.ar  182  PHE182     -0.0042
     55  CD2       -6.6920   19.2830    4.4470 C.ar  182  PHE182     -0.0042
     56  CE1       -4.1420   19.7340    5.3930 C.ar  182  PHE182     -0.0003
     57  CE2       -6.1490   18.4470    5.4060 C.ar  182  PHE182     -0.0003
     58  CZ        -4.8740   18.6740    5.8800 C.ar  182  PHE182     -0.0000
     59  N         -3.6520   20.9590   -1.2840 N.3   185  PHE185     -0.1241
     60  CA        -3.6620   19.5480   -0.9150 C.3   185  PHE185      0.1605
     61  C         -3.8890   18.6550   -2.1320 C.2   185  PHE185      0.2264
     62  O         -5.0240   18.3040   -2.4520 O.2   185  PHE185     -0.2867
     63  CB        -4.7320   19.2840    0.1460 C.3   185  PHE185      0.0534
     64  CG        -4.8200   17.8500    0.5720 C.ar  185  PHE185     -0.0203
     65  CD1       -3.6960   17.1800    1.0260 C.ar  185  PHE185     -0.0042
     66  CD2       -6.0270   17.1730    0.5310 C.ar  185  PHE185     -0.0042
     67  CE1       -3.7730   15.8570    1.4230 C.ar  185  PHE185     -0.0003
     68  CE2       -6.1110   15.8520    0.9280 C.ar  185  PHE185     -0.0003
     69  CZ        -4.9820   15.1930    1.3760 C.ar  185  PHE185     -0.0000
     70  N          0.3770   10.0200    2.3160 N.3   193  LEU193     -0.1245
     71  CA         0.1770   10.0140    3.7600 C.3   193  LEU193      0.1561
     72  C          0.0470    8.5930    4.2890 C.2   193  LEU193      0.2260
     73  O         -0.6940    7.7800    3.7350 O.2   193  LEU193     -0.2867
     74  CB        -1.0640   10.8250    4.1390 C.3   193  LEU193      0.0270
     75  CG        -0.9350   12.3470    4.0810 C.3   193  LEU193      0.0019
     76  CD1       -2.2310   13.0150    4.5160 C.3   193  LEU193      0.0001
     77  CD2        0.2250   12.8130    4.9440 C.3   193  LEU193      0.0001
     78  N         -1.1350    9.2270   10.7260 N.3   198  LEU198     -0.1245
     79  CA        -2.3570    9.8890   11.1600 C.3   198  LEU198      0.1561
     80  C         -2.7270    9.4610   12.5740 C.2   198  LEU198      0.2260
     81  O         -3.1220   10.2870   13.3970 O.2   198  LEU198     -0.2867
     82  CB        -3.5000    9.5940   10.1900 C.3   198  LEU198      0.0270
     83  CG        -3.3810   10.2830    8.8300 C.3   198  LEU198      0.0019
     84  CD1       -4.4140    9.7340    7.8580 C.3   198  LEU198      0.0001
     85  CD2       -3.5200   11.7960    8.9800 C.3   198  LEU198      0.0001
     86  N         -0.5210   11.2870   14.9730 N.3   201  MET201     -0.1230
     87  CA        -0.9400   12.6590   15.2400 C.3   201  MET201      0.1702
     88  C         -2.1680   12.7030   16.1440 C.2   201  MET201      0.2592
     89  O         -2.2270   13.5020   17.0790 O.2   201  MET201     -0.2718
     90  CB        -1.2190   13.4140   13.9390 C.3   201  MET201      0.0401
     91  CG        -1.5730   14.8770   14.1560 C.3   201  MET201      0.0596
     92  SD        -1.7770   15.8130   12.6320 S.3   201  MET201     -0.1393
     93  CE        -1.8140   17.4800   13.2820 C.3   201  MET201      0.0692
     94  N         -3.1450   11.8480   15.8610 N.am  202  VAL202     -0.1980
     95  CA        -4.3540   11.7760   16.6760 C.3   202  VAL202      0.1595
     96  C         -4.0500   11.3130   18.1050 C.2   202  VAL202      0.2287
     97  O         -4.6500   11.8010   19.0650 O.2   202  VAL202     -0.2864
     98  CB        -5.4200   10.8670   16.0270 C.3   202  VAL202      0.0276
     99  CG1       -6.6030   10.6630   16.9630 C.3   202  VAL202      0.0022
    100  CG2       -5.8840   11.4600   14.7070 C.3   202  VAL202      0.0022
    101  N         -3.0600   14.4230   19.9100 N.3   205  LEU205     -0.1245
    102  CA        -4.1660   15.3340   20.1870 C.3   205  LEU205      0.1561
    103  C         -5.1350   14.7990   21.2420 C.2   205  LEU205      0.2260
    104  O         -5.8870   15.5630   21.8460 O.2   205  LEU205     -0.2867
    105  CB        -4.9250   15.6600   18.8960 C.3   205  LEU205      0.0270
    106  CG        -4.4460   16.8170   18.0100 C.3   205  LEU205      0.0019
    107  CD1       -2.9710   16.6950   17.6430 C.3   205  LEU205      0.0001
    108  CD2       -5.3030   16.9060   16.7500 C.3   205  LEU205      0.0001
    109  N        -10.7590   22.4850   15.5570 N.3   216  ILE216     -0.1245
    110  CA        -9.9120   22.2230   14.3970 C.3   216  ILE216      0.1561
    111  C        -10.5780   22.7660   13.1370 C.2   216  ILE216      0.2260
    112  O        -11.7300   22.4410   12.8470 O.2   216  ILE216     -0.2867
    113  CB        -9.6550   20.7250   14.1920 C.3   216  ILE216      0.0252
    114  CG1       -8.9800   20.1210   15.4210 C.3   216  ILE216      0.0019
    115  CG2       -8.7760   20.5140   12.9750 C.3   216  ILE216      0.0019
    116  CD1       -7.5210   20.4730   15.5430 C.3   216  ILE216      0.0001
    117  N        -10.5200   23.3920    8.9390 N.3   218  PHE218     -0.1241
    118  CA       -10.0020   23.0500    7.6200 C.3   218  PHE218      0.1605
    119  C        -10.5350   24.0360    6.5890 C.2   218  PHE218      0.2264
    120  O        -11.7410   24.2710    6.5010 O.2   218  PHE218     -0.2867
    121  CB       -10.3760   21.6220    7.2280 C.3   218  PHE218      0.0534
    122  CG        -9.6660   20.5670    8.0190 C.ar  218  PHE218     -0.0203
    123  CD1       -8.4540   20.0560    7.5850 C.ar  218  PHE218     -0.0042
    124  CD2      -10.2140   20.0730    9.1900 C.ar  218  PHE218     -0.0042
    125  CE1       -7.8000   19.0810    8.3110 C.ar  218  PHE218     -0.0003
    126  CE2       -9.5620   19.0950    9.9150 C.ar  218  PHE218     -0.0003
    127  CZ        -8.3630   18.5830    9.4720 C.ar  218  PHE218     -0.0000
    128  N        -11.1770   15.6160   -0.0970 N.3   225  PHE225     -0.1241
    129  CA       -10.6610   15.6670    1.2620 C.3   225  PHE225      0.1605
    130  C        -11.3760   14.6550    2.1510 C.2   225  PHE225      0.2264
    131  O        -10.8080   14.1560    3.1240 O.2   225  PHE225     -0.2867
    132  CB       -10.8020   17.0760    1.8410 C.3   225  PHE225      0.0534
    133  CG       -10.6460   17.1340    3.3340 C.ar  225  PHE225     -0.0203
    134  CD1       -9.3980   17.0160    3.9200 C.ar  225  PHE225     -0.0042
    135  CD2      -11.7510   17.3000    4.1530 C.ar  225  PHE225     -0.0042
    136  CE1       -9.2560   17.0630    5.2940 C.ar  225  PHE225     -0.0003
    137  CE2      -11.6140   17.3510    5.5270 C.ar  225  PHE225     -0.0003
    138  CZ       -10.3660   17.2320    6.0970 C.ar  225  PHE225     -0.0000
    139  N         -9.5940   11.2210    2.8820 N.3   228  THR228     -0.1203
    140  CA        -8.6160   11.1910    3.9620 C.3   228  THR228      0.1994
    141  C         -9.3030   11.3820    5.3110 C.2   228  THR228      0.2617
    142  O         -8.9180   10.7690    6.3080 O.2   228  THR228     -0.2717
    143  CB        -7.5430   12.2840    3.7790 C.3   228  THR228      0.1784
    144  OG1       -7.0150   12.2190    2.4480 O.3   228  THR228     -0.2211
    145  CG2       -6.4130   12.0990    4.7810 C.3   228  THR228      0.0376
    146  N        -10.3250   12.2320    5.3290 N.am  229  TYR229     -0.1975
    147  CA       -11.0820   12.5200    6.5430 C.3   229  TYR229      0.1639
    148  C        -11.7240   11.2620    7.1150 C.2   229  TYR229      0.2290
    149  O        -11.6940   11.0360    8.3240 O.2   229  TYR229     -0.2864
    150  CB       -12.1620   13.5630    6.2470 C.3   229  TYR229      0.0560
    151  CG       -12.9990   13.9740    7.4410 C.ar  229  TYR229     -0.0198
    152  CD1      -12.6180   15.0400    8.2440 C.ar  229  TYR229     -0.0009
    153  CD2      -14.1810   13.3090    7.7550 C.ar  229  TYR229     -0.0009
    154  CE1      -13.3810   15.4270    9.3300 C.ar  229  TYR229      0.0417
    155  CE2      -14.9480   13.6890    8.8420 C.ar  229  TYR229      0.0417
    156  CZ       -14.5430   14.7500    9.6250 C.ar  229  TYR229      0.1957
    157  OH       -15.2990   15.1400   10.7080 O.3   229  TYR229     -0.2866
    158  N         -9.2340    9.0450    9.0420 N.3   232  VAL232     -0.1245
    159  CA        -8.9170    9.5750   10.3640 C.3   232  VAL232      0.1561
    160  C        -10.1220    9.4080   11.2860 C.2   232  VAL232      0.2260
    161  O         -9.9850    9.0000   12.4380 O.2   232  VAL232     -0.2867
    162  CB        -8.5290   11.0730   10.2920 C.3   232  VAL232      0.0252
    163  CG1       -8.1210   11.6080   11.6620 C.3   232  VAL232      0.0019
    164  CG2       -7.4110   11.2850    9.2890 C.3   232  VAL232      0.0019
    165  N        -10.8050    9.3230   15.9440 N.3   236  LEU236     -0.1245
    166  CA       -11.2530   10.3930   16.8260 C.3   236  LEU236      0.1561
    167  C        -12.2960    9.9410   17.8410 C.2   236  LEU236      0.2260
    168  O        -13.1800    9.1420   17.5310 O.2   236  LEU236     -0.2867
    169  CB       -11.8030   11.5640   16.0050 C.3   236  LEU236      0.0270
    170  CG       -10.8820   12.1740   14.9430 C.3   236  LEU236      0.0019
    171  CD1      -11.5390   13.3820   14.2990 C.3   236  LEU236      0.0001
    172  CD2       -9.5250   12.5470   15.5220 C.3   236  LEU236      0.0001
    173  N        -13.4820   15.0850   20.3610 N.3   240  LEU240     -0.1245
    174  CA       -12.6830   15.7980   19.3660 C.3   240  LEU240      0.1561
    175  C        -13.3420   15.8260   17.9890 C.2   240  LEU240      0.2260
    176  O        -13.2380   16.8180   17.2650 O.2   240  LEU240     -0.2867
    177  CB       -11.2800   15.1930   19.2590 C.3   240  LEU240      0.0270
    178  CG       -10.3540   15.8540   18.2340 C.3   240  LEU240      0.0019
    179  CD1      -10.1630   17.3290   18.5460 C.3   240  LEU240      0.0001
    180  CD2       -9.0150   15.1420   18.1680 C.3   240  LEU240      0.0001
    181  N        -14.0400   19.1910   15.2230 N.3   244  VAL244     -0.1245
    182  CA       -13.4420   19.3410   13.8990 C.3   244  VAL244      0.1561
    183  C        -14.4060   20.0520   12.9540 C.2   244  VAL244      0.2260
    184  O        -15.5380   19.6090   12.7620 O.2   244  VAL244     -0.2867
    185  CB       -13.0430   17.9790   13.2950 C.3   244  VAL244      0.0252
    186  CG1      -12.4680   18.1630   11.9020 C.3   244  VAL244      0.0019
    187  CG2      -12.0430   17.2710   14.1910 C.3   244  VAL244      0.0019
@<TRIPOS>BOND
     1    62    61    2
     2    61    60    1
     3    59    60    1
     4    60    63    1
     5   128   129    1
     6    63    64    1
     7    51    50    2
     8    66    64   ar
     9    66    68   ar
    10    64    65   ar
    11    68    69   ar
    12    65    67   ar
    13    50    49    1
    14   129   132    1
    15   129   130    1
    16    15    14    2
    17    69    67   ar
    18   132   133    1
    19    14    13    1
    20    18    16    1
    21   130   131    2
    22    70    71    1
    23   144   143    1
    24    49    52    1
    25    49    48    1
    26   139   140    1
    27    52    53    1
    28    17    16    1
    29    17    19    1
    30    16    13    1
    31    13    12    1
    32   133   134   ar
    33   133   135   ar
    34    73    72    2
    35    71    74    1
    36    71    72    1
    37   143   140    1
    38   143   145    1
    39   134   136   ar
    40    53    54   ar
    41    53    55   ar
    42   140   141    1
    43    75    74    1
    44    75    76    1
    45    75    77    1
    46   135   137   ar
    47    54    56   ar
    48    55    57   ar
    49   136   138   ar
    50   141   146   am
    51   141   142    2
    52   146   147    1
    53    56    58   ar
    54    57    58   ar
    55   137   138   ar
    56   150   147    1
    57   150   151    1
    58   120   119    2
    59   147   148    1
    60   119   118    1
    61    42    41    2
    62    41    40    1
    63   148   149    2
    64   121   118    1
    65   121   122    1
    66     9     7   ar
    67     9    11   ar
    68   151   153   ar
    69   151   152   ar
    70     4     3    2
    71   123   122   ar
    72   123   125   ar
    73   118   117    1
    74   153   155   ar
    75     3     2    1
    76    84    83    1
    77     7     6   ar
    78    11    10   ar
    79   122   124   ar
    80   152   154   ar
    81   125   127   ar
    82    27    29   ar
    83    27    25   ar
    84    20    21    1
    85    40    43    1
    86    40    39    1
    87    43    44    1
    88    29    30   ar
    89    46    45   ar
    90    83    85    1
    91    83    82    1
    92   155   156   ar
    93    24    21    1
    94    24    25    1
    95   158   159    1
    96    10     8   ar
    97     6     8   ar
    98     6     5    1
    99   124   126   ar
   100    21    22    1
   101     2     5    1
   102     2     1    1
   103   164   162    1
   104    25    26   ar
   105   154   156   ar
   106   127   126   ar
   107   156   157    1
   108    45    44    1
   109    45    47   ar
   110    30    28   ar
   111    82    79    1
   112   162   159    1
   113   162   163    1
   114   159   160    1
   115    26    28   ar
   116    22    23    2
   117    78    79    1
   118    79    80    1
   119   160   161    2
   120   186   185    1
   121    80    81    2
   122    92    93    1
   123    92    91    1
   124   184   183    2
   125   112   111    2
   126   183   182    1
   127   115   113    1
   128   111   110    1
   129   185   182    1
   130   185   187    1
   131    34    33    2
   132    33    32    1
   133    37    35    1
   134   182   181    1
   135    90    91    1
   136    90    87    1
   137   113   110    1
   138   113   114    1
   139   171   170    1
   140   110   109    1
   141   100    98    1
   142    35    32    1
   143    35    36    1
   144    32    31    1
   145   170   172    1
   146   170   169    1
   147    86    87    1
   148    87    88    1
   149   114   116    1
   150    94    88   am
   151    94    95    1
   152   165   166    1
   153   169   166    1
   154    98    95    1
   155    98    99    1
   156    88    89    2
   157    36    38    1
   158    95    96    1
   159   108   106    1
   160   166   167    1
   161   176   175    2
   162   168   167    2
   163   107   106    1
   164   175   174    1
   165   106   105    1
   166    96    97    2
   167   180   178    1
   168   178   179    1
   169   178   177    1
   170   105   102    1
   171   177   174    1
   172   174   173    1
   173   101   102    1
   174   102   103    1
   175   103   104    2
