@<TRIPOS>MOLECULE
tmp/4cj4B00.pdb
 88 87 0 0 0
SMALL
GASTEIGER

@<TRIPOS>ATOM
      1  N        -11.0120   46.9860   -7.8650 N.3    39  GLN39      -0.1231
      2  CA       -11.8140   46.4760   -6.7540 C.3    39  GLN39       0.1698
      3  C        -12.5870   45.2080   -7.1200 C.2    39  GLN39       0.2592
      4  O        -12.5390   44.2270   -6.3820 O.2    39  GLN39      -0.2718
      5  CB       -12.7520   47.5550   -6.2180 C.3    39  GLN39       0.0381
      6  CG       -12.1050   48.4170   -5.1440 C.3    39  GLN39       0.0905
      7  CD       -12.7850   48.2900   -3.7950 C.2    39  GLN39       0.2608
      8  OE1      -14.0050   48.1180   -3.7070 O.2    39  GLN39      -0.2717
      9  NE2      -11.9990   48.3930   -2.7310 N.am   39  GLN39      -0.0878
     10  N        -13.2740   45.2170   -8.2600 N.am   40  GLU40      -0.1979
     11  CA       -13.9990   44.0110   -8.7160 C.3    40  GLU40       0.1602
     12  C        -13.0440   42.8350   -8.9660 C.2    40  GLU40       0.2287
     13  O        -13.3430   41.7030   -8.5880 O.2    40  GLU40      -0.2864
     14  CB       -14.8260   44.2780   -9.9770 C.3    40  GLU40       0.0415
     15  CG       -15.9940   45.2470   -9.7890 C.3    40  GLU40       0.1163
     16  CD       -17.1800   44.6780   -9.0180 C.2    40  GLU40       0.3649
     17  OE1      -17.1820   43.4970   -8.6110 O.co2  40  GLU40      -0.2457
     18  OE2      -18.1450   45.4390   -8.8120 O.co2  40  GLU40      -0.2457
     19  N        -10.0760   42.3620   -7.6150 N.3    42  ALA42      -0.1231
     20  CA        -9.5440   41.9460   -6.3210 C.3    42  ALA42       0.1694
     21  C        -10.5190   41.0430   -5.5690 C.2    42  ALA42       0.2592
     22  O        -10.1250   40.0030   -5.0360 O.2    42  ALA42      -0.2718
     23  CB        -9.1970   43.1670   -5.4840 C.3    42  ALA42       0.0304
     24  N        -11.7970   41.4320   -5.5540 N.am   43  TYR43      -0.1976
     25  CA       -12.8420   40.6550   -4.8900 C.3    43  TYR43       0.1639
     26  C        -13.0080   39.2870   -5.5590 C.2    43  TYR43       0.2290
     27  O        -13.1290   38.2610   -4.8890 O.2    43  TYR43      -0.2864
     28  CB       -14.1690   41.4310   -4.8760 C.3    43  TYR43       0.0560
     29  CG       -15.2730   40.7000   -4.1580 C.ar   43  TYR43      -0.0198
     30  CD1      -15.2520   40.5510   -2.7810 C.ar   43  TYR43      -0.0009
     31  CD2      -16.3360   40.1400   -4.8610 C.ar   43  TYR43      -0.0009
     32  CE1      -16.2590   39.8660   -2.1180 C.ar   43  TYR43       0.0417
     33  CE2      -17.3410   39.4490   -4.2090 C.ar   43  TYR43       0.0417
     34  CZ       -17.3030   39.3130   -2.8390 C.ar   43  TYR43       0.1957
     35  OH       -18.2990   38.6140   -2.1900 O.3    43  TYR43      -0.2866
     36  N        -10.1670   37.0450   -4.4620 N.3    46  LEU46      -0.1245
     37  CA       -10.3910   36.5860   -3.0950 C.3    46  LEU46       0.1561
     38  C        -11.3550   35.4010   -3.0570 C.2    46  LEU46       0.2260
     39  O        -11.1060   34.4190   -2.3550 O.2    46  LEU46      -0.2867
     40  CB       -10.9130   37.7210   -2.2030 C.3    46  LEU46       0.0270
     41  CG        -9.9010   38.7640   -1.7330 C.3    46  LEU46       0.0019
     42  CD1      -10.6060   39.8840   -0.9730 C.3    46  LEU46       0.0001
     43  CD2       -8.8280   38.1420   -0.8460 C.3    46  LEU46       0.0001
     44  N         -5.3790   47.6780   -5.0250 N.3    69  THR69      -0.1218
     45  CA        -6.3740   46.7680   -4.4420 C.3    69  THR69       0.1862
     46  C         -6.1410   45.3190   -4.9040 C.2    69  THR69       0.2287
     47  O         -6.2240   44.3920   -4.0980 O.2    69  THR69      -0.2866
     48  CB        -7.8120   47.2270   -4.7470 C.3    69  THR69       0.1770
     49  OG1       -7.9660   48.6000   -4.3600 O.3    69  THR69      -0.2211
     50  CG2       -8.8150   46.4080   -3.9730 C.3    69  THR69       0.0375
     51  N         -3.2050   44.1370   -3.0340 N.3    72  ALA72      -0.1231
     52  CA        -3.5870   43.8370   -1.6470 C.3    72  ALA72       0.1694
     53  C         -4.2450   42.4630   -1.5250 C.2    72  ALA72       0.2591
     54  O         -3.9450   41.6930   -0.6120 O.2    72  ALA72      -0.2718
     55  CB        -4.5140   44.9110   -1.1040 C.3    72  ALA72       0.0304
     56  N         -5.1470   42.1630   -2.4530 N.am   73  ALA73      -0.1980
     57  CA        -5.8440   40.8820   -2.4490 C.3    73  ALA73       0.1597
     58  C         -4.8940   39.7230   -2.7050 C.2    73  ALA73       0.2287
     59  O         -5.0040   38.6720   -2.0690 O.2    73  ALA73      -0.2864
     60  CB        -6.9570   40.8860   -3.4930 C.3    73  ALA73       0.0319
     61  N         -1.6310   39.7380   -2.0660 N.3    75  TRP75      -0.1227
     62  CA        -0.8850   39.6020   -0.8160 C.3    75  TRP75       0.1737
     63  C         -1.6940   38.8340    0.2370 C.2    75  TRP75       0.2595
     64  O         -1.2110   37.8570    0.8220 O.2    75  TRP75      -0.2718
     65  CB        -0.4530   40.9590   -0.2520 C.3    75  TRP75       0.0564
     66  CG        -0.0030   40.7880    1.1540 C.ar   75  TRP75       0.0003
     67  CD1        1.2000   40.3000    1.5780 C.ar   75  TRP75       0.0946
     68  CD2       -0.7830   41.0160    2.3240 C.ar   75  TRP75       0.0152
     69  NE1        1.2240   40.2370    2.9550 N.ar   75  TRP75      -0.2442
     70  CE2        0.0130   40.6610    3.4350 C.ar   75  TRP75       0.0810
     71  CE3       -2.0810   41.4910    2.5450 C.ar   75  TRP75       0.0012
     72  CZ2       -0.4440   40.7780    4.7450 C.ar   75  TRP75       0.0191
     73  CZ3       -2.5340   41.6060    3.8480 C.ar   75  TRP75       0.0001
     74  CH2       -1.7170   41.2560    4.9310 C.ar   75  TRP75       0.0015
     75  N         -2.9360   39.2540    0.4550 N.am   76  TRP76      -0.1976
     76  CA        -3.7670   38.6470    1.4860 C.3    76  TRP76       0.1640
     77  C         -3.9190   37.1390    1.2580 C.2    76  TRP76       0.2290
     78  O         -3.7400   36.3350    2.1820 O.2    76  TRP76      -0.2864
     79  CB        -5.1420   39.3330    1.5680 C.3    76  TRP76       0.0576
     80  CG        -5.8280   39.0100    2.8440 C.ar   76  TRP76       0.0006
     81  CD1       -5.8040   39.7390    3.9880 C.ar   76  TRP76       0.0946
     82  CD2       -6.5870   37.8350    3.1320 C.ar   76  TRP76       0.0152
     83  NE1       -6.5120   39.1000    4.9740 N.ar   76  TRP76      -0.2442
     84  CE2       -7.0040   37.9260    4.4740 C.ar   76  TRP76       0.0810
     85  CE3       -6.9630   36.7180    2.3860 C.ar   76  TRP76       0.0012
     86  CZ2       -7.7780   36.9410    5.0840 C.ar   76  TRP76       0.0191
     87  CZ3       -7.7350   35.7400    2.9910 C.ar   76  TRP76       0.0001
     88  CH2       -8.1370   35.8640    4.3280 C.ar   76  TRP76       0.0015
@<TRIPOS>BOND
     1    14    15    1
     2    14    11    1
     3    15    16    1
     4    16    18   ar
     5    16    17   ar
     6    12    11    1
     7    12    13    2
     8    11    10    1
     9    10     3   am
    10     1     2    1
    11    19    20    1
    12     3     2    1
    13     3     4    2
    14     2     5    1
    15    20    21    1
    16    20    23    1
    17     5     6    1
    18    21    24   am
    19    21    22    2
    20    26    25    1
    21    26    27    2
    22    24    25    1
    23     6     7    1
    24    44    45    1
    25    46    45    1
    26    46    47    2
    27    25    28    1
    28    28    29    1
    29    31    33   ar
    30    31    29   ar
    31    48    45    1
    32    48    49    1
    33    48    50    1
    34    36    37    1
    35    33    34   ar
    36    29    30   ar
    37     7     8    2
    38     7     9   am
    39    60    57    1
    40    37    38    1
    41    37    40    1
    42    38    39    2
    43    51    52    1
    44    34    35    1
    45    34    32   ar
    46    30    32   ar
    47    58    57    1
    48    58    59    2
    49    56    57    1
    50    56    53   am
    51    40    41    1
    52    61    62    1
    53    41    42    1
    54    41    43    1
    55    52    53    1
    56    52    55    1
    57    53    54    2
    58    62    65    1
    59    62    63    1
    60    65    66    1
    61    63    75   am
    62    63    64    2
    63    75    76    1
    64    66    67   ar
    65    66    68   ar
    66    77    76    1
    67    77    78    2
    68    76    79    1
    69    79    80    1
    70    67    69   ar
    71    68    71   ar
    72    68    70   ar
    73    85    87   ar
    74    85    82   ar
    75    71    73   ar
    76    80    82   ar
    77    80    81   ar
    78    69    70   ar
    79    87    88   ar
    80    82    84   ar
    81    70    72   ar
    82    73    74   ar
    83    81    83   ar
    84    88    86   ar
    85    84    83   ar
    86    84    86   ar
    87    72    74   ar
