@<TRIPOS>MOLECULE
tmp/4cj8K00.pdb
 156 151 0 0 0
SMALL
GASTEIGER

@<TRIPOS>ATOM
      1  N        -42.1530   16.0680   47.0230 N.3     9  ILE9       -0.1231
      2  CA       -41.6350   14.9630   46.2250 C.3     9  ILE9        0.1692
      3  C        -41.6370   13.6730   47.0410 C.2     9  ILE9        0.2592
      4  O        -41.2170   13.6640   48.1980 O.2     9  ILE9       -0.2718
      5  CB       -40.2060   15.2530   45.7190 C.3     9  ILE9        0.0266
      6  CG1      -40.1630   16.5870   44.9710 C.3     9  ILE9        0.0019
      7  CG2      -39.7070   14.1240   44.8280 C.3     9  ILE9        0.0020
      8  CD1      -38.7890   16.9520   44.4510 C.3     9  ILE9        0.0001
      9  N        -42.1100   12.5860   46.4390 N.am   10  CYS10      -0.1956
     10  CA       -42.1300   11.2930   47.1150 C.3    10  CYS10       0.1843
     11  C        -42.0030   10.1390   46.1250 C.2    10  CYS10       0.2626
     12  O        -42.9170    9.3280   45.9760 O.2    10  CYS10      -0.2714
     13  CB       -43.4080   11.1450   47.9450 C.3    10  CYS10       0.0997
     14  SG       -44.9410   11.4900   47.0540 S.3    10  CYS10      -0.0797
     15  N        -40.8560   10.0690   45.4560 N.am   11  THR11      -0.1936
     16  CA       -40.5980    9.0180   44.4790 C.3    11  THR11       0.2028
     17  C        -40.0840    7.7480   45.1470 C.2    11  THR11       0.2643
     18  O        -39.2150    7.8020   46.0170 O.2    11  THR11      -0.2714
     19  CB       -39.5760    9.4730   43.4210 C.3    11  THR11       0.1808
     20  OG1      -38.3190    9.7450   44.0530 O.3    11  THR11      -0.2208
     21  CG2      -40.0650   10.7250   42.7100 C.3    11  THR11       0.0379
     22  N        -40.6240    6.6060   44.7350 N.am   12  GLY12      -0.1939
     23  CA       -40.1940    5.3240   45.2620 C.3    12  GLY12       0.2014
     24  C        -40.9500    4.8970   46.5050 C.2    12  GLY12       0.2639
     25  O        -42.1770    4.7930   46.4940 O.2    12  GLY12      -0.2714
     26  N        -40.2130    4.6500   47.5830 N.am   13  LYS13      -0.1963
     27  CA       -40.8070    4.1900   48.8340 C.3    13  LYS13       0.1728
     28  C        -41.1780    5.3530   49.7490 C.2    13  LYS13       0.2616
     29  O        -41.5690    5.1470   50.8980 O.2    13  LYS13      -0.2715
     30  CB       -39.8480    3.2460   49.5640 C.3    13  LYS13       0.0311
     31  CG       -39.4710    2.0020   48.7770 C.3    13  LYS13       0.0038
     32  CD       -38.5110    1.1250   49.5670 C.3    13  LYS13       0.0206
     33  CE       -38.1550   -0.1370   48.8010 C.3    13  LYS13       0.1093
     34  NZ       -37.2210   -1.0050   49.5690 N.3    13  LYS13      -0.1314
     35  N        -41.0550    6.5720   49.2360 N.am   14  TYR14      -0.1974
     36  CA       -41.3300    7.7670   50.0250 C.3    14  TYR14       0.1639
     37  C        -42.7880    8.2020   49.9100 C.2    14  TYR14       0.2290
     38  O        -43.1860    9.2220   50.4740 O.2    14  TYR14      -0.2864
     39  CB       -40.4060    8.9100   49.5980 C.3    14  TYR14       0.0560
     40  CG       -39.0240    8.8490   50.2130 C.ar   14  TYR14      -0.0198
     41  CD1      -38.2140    7.7310   50.0470 C.ar   14  TYR14      -0.0009
     42  CD2      -38.5340    9.9060   50.9690 C.ar   14  TYR14      -0.0009
     43  CE1      -36.9540    7.6710   50.6130 C.ar   14  TYR14       0.0417
     44  CE2      -37.2730    9.8570   51.5360 C.ar   14  TYR14       0.0417
     45  CZ       -36.4890    8.7370   51.3550 C.ar   14  TYR14       0.1957
     46  OH       -35.2340    8.6830   51.9190 O.3    14  TYR14      -0.2866
     47  N        -38.0430    7.6110   39.3910 N.3    64  ASN64      -0.1240
     48  CA       -37.0160    7.5300   40.4220 C.3    64  ASN64       0.1653
     49  C        -35.6170    7.6390   39.8210 C.2    64  ASN64       0.2266
     50  O        -35.1870    6.7620   39.0730 O.2    64  ASN64      -0.2867
     51  CB       -37.1520    6.2220   41.2050 C.3    64  ASN64       0.1155
     52  CG       -36.2470    6.1710   42.4200 C.2    64  ASN64       0.2627
     53  OD1      -36.0540    7.1720   43.1050 O.2    64  ASN64      -0.2716
     54  ND2      -35.6850    5.0010   42.6920 N.am   64  ASN64      -0.0877
     55  N        -32.9240    7.8100   41.6660 N.3    66  GLY66      -0.1210
     56  CA       -31.9970    7.2200   42.6130 C.3    66  GLY66       0.1956
     57  C        -31.0630    8.2630   43.1950 C.2    66  GLY66       0.2611
     58  O        -31.3310    9.4600   43.1100 O.2    66  GLY66      -0.2717
     59  N        -29.9610    7.8100   43.7830 N.am   67  TRP67      -0.1976
     60  CA       -28.9920    8.7160   44.3890 C.3    67  TRP67       0.1640
     61  C        -27.9310    9.1340   43.3700 C.2    67  TRP67       0.2290
     62  O        -27.4820    8.3120   42.5720 O.2    67  TRP67      -0.2864
     63  CB       -28.3350    8.0550   45.6060 C.3    67  TRP67       0.0576
     64  CG       -27.6590    9.0270   46.5180 C.ar   67  TRP67       0.0006
     65  CD1      -26.3170    9.2250   46.6600 C.ar   67  TRP67       0.0946
     66  CD2      -28.2970    9.9520   47.4040 C.ar   67  TRP67       0.0152
     67  NE1      -26.0790   10.2110   47.5870 N.ar   67  TRP67      -0.2442
     68  CE2      -27.2810   10.6750   48.0580 C.ar   67  TRP67       0.0810
     69  CE3      -29.6320   10.2390   47.7110 C.ar   67  TRP67       0.0012
     70  CZ2      -27.5540   11.6640   48.9980 C.ar   67  TRP67       0.0191
     71  CZ3      -29.9020   11.2210   48.6460 C.ar   67  TRP67       0.0001
     72  CH2      -28.8690   11.9210   49.2790 C.ar   67  TRP67       0.0015
     73  N        -31.9970   12.3700   43.0310 N.3    70  ASN70      -0.1225
     74  CA       -33.3250   12.4730   43.6190 C.3    70  ASN70       0.1785
     75  C        -33.4170   13.6760   44.5480 C.2    70  ASN70       0.2597
     76  O        -34.5060   14.1680   44.8410 O.2    70  ASN70      -0.2718
     77  CB       -33.6790   11.1950   44.3780 C.3    70  ASN70       0.1169
     78  CG       -35.1320   10.8010   44.2050 C.2    70  ASN70       0.2627
     79  OD1      -35.4830    9.6270   44.2970 O.2    70  ASN70      -0.2716
     80  ND2      -35.9820   11.7820   43.9340 N.am   70  ASN70      -0.0877
     81  N        -32.2610   14.1450   45.0060 N.am   71  THR71      -0.1953
     82  CA       -32.1910   15.3040   45.8850 C.3    71  THR71       0.1897
     83  C        -31.3440   16.4080   45.2580 C.2    71  THR71       0.2313
     84  O        -31.5210   17.5880   45.5600 O.2    71  THR71      -0.2863
     85  CB       -31.6050   14.9350   47.2610 C.3    71  THR71       0.1794
     86  OG1      -30.2830   14.4090   47.0940 O.3    71  THR71      -0.2208
     87  CG2      -32.4740   13.8950   47.9510 C.3    71  THR71       0.0378
     88  N        -33.2750   18.2080   42.3510 N.3    74  ARG74      -0.1245
     89  CA       -34.5560   18.5850   42.9350 C.3    74  ARG74       0.1563
     90  C        -35.1630   19.7950   42.2330 C.2    74  ARG74       0.2260
     91  O        -36.3560   19.8160   41.9280 O.2    74  ARG74      -0.2867
     92  CB       -34.3870   18.8750   44.4270 C.3    74  ARG74       0.0307
     93  CG       -35.6240   19.4310   45.1080 C.3    74  ARG74       0.0489
     94  CD       -35.2950   19.9130   46.5130 C.3    74  ARG74       0.2205
     95  NE       -34.7740   18.8370   47.3520 N.pl3  74  ARG74      -0.0865
     96  CZ       -34.2430   19.0190   48.5570 C.cat  74  ARG74       0.5346
     97  NH1      -34.1540   20.2400   49.0680 N.pl3  74  ARG74       0.1354
     98  NH2      -33.7970   17.9810   49.2500 N.pl3  74  ARG74       0.1354
     99  N        -41.2420   24.3890   49.7350 N.3    94  PHE94      -0.1241
    100  CA       -40.8280   22.9940   49.6390 C.3    94  PHE94       0.1605
    101  C        -40.7030   22.3510   51.0150 C.2    94  PHE94       0.2264
    102  O        -40.0170   22.8700   51.8950 O.2    94  PHE94      -0.2867
    103  CB       -39.5000   22.8700   48.8900 C.3    94  PHE94       0.0534
    104  CG       -38.9010   21.4910   48.9470 C.ar   94  PHE94      -0.0203
    105  CD1      -39.4140   20.4660   48.1710 C.ar   94  PHE94      -0.0042
    106  CD2      -37.8260   21.2200   49.7790 C.ar   94  PHE94      -0.0042
    107  CE1      -38.8680   19.1970   48.2220 C.ar   94  PHE94      -0.0003
    108  CE2      -37.2760   19.9530   49.8350 C.ar   94  PHE94      -0.0003
    109  CZ       -37.7980   18.9410   49.0550 C.ar   94  PHE94      -0.0000
    110  N        -39.8080   18.6490   53.0740 N.3    96  ASN96      -0.1225
    111  CA       -39.2270   17.3180   52.9860 C.3    96  ASN96       0.1785
    112  C        -40.3240   16.2710   53.1000 C.2    96  ASN96       0.2597
    113  O        -41.4330   16.5720   53.5400 O.2    96  ASN96      -0.2718
    114  CB       -38.1810   17.1120   54.0810 C.3    96  ASN96       0.1169
    115  CG       -36.9170   16.4550   53.5630 C.2    96  ASN96       0.2627
    116  OD1      -36.5370   15.3740   54.0120 O.2    96  ASN96      -0.2716
    117  ND2      -36.2590   17.1060   52.6110 N.am   96  ASN96      -0.0877
    118  N        -40.0180   15.0420   52.7020 N.am   97  ALA97      -0.1966
    119  CA       -41.0100   13.9700   52.7440 C.3    97  ALA97       0.1728
    120  C        -41.4130   13.5930   54.1680 C.2    97  ALA97       0.2616
    121  O        -42.5990   13.5530   54.4940 O.2    97  ALA97      -0.2715
    122  CB       -40.4860   12.7470   52.0090 C.3    97  ALA97       0.0334
    123  N        -40.4230   13.3240   55.0120 N.am   98  ASN98      -0.1972
    124  CA       -40.6770   12.8630   56.3730 C.3    98  ASN98       0.1688
    125  C        -41.0230   13.9820   57.3550 C.2    98  ASN98       0.2292
    126  O        -40.7290   13.8820   58.5460 O.2    98  ASN98      -0.2864
    127  CB       -39.4650   12.0870   56.8920 C.3    98  ASN98       0.1181
    128  CG       -38.1640   12.8300   56.6750 C.2    98  ASN98       0.2629
    129  OD1      -38.0220   13.5850   55.7140 O.2    98  ASN98      -0.2716
    130  ND2      -37.2050   12.6210   57.5680 N.am   98  ASN98      -0.0877
    131  N        -27.7150   18.6760   49.2460 N.3   192  ASP192     -0.1225
    132  CA       -29.0180   19.1300   49.7210 C.3   192  ASP192      0.1805
    133  C        -28.8770   20.2870   50.7070 C.2   192  ASP192      0.2597
    134  O        -29.8330   21.0230   50.9520 O.2   192  ASP192     -0.2718
    135  CB       -29.7910   17.9780   50.3690 C.3   192  ASP192      0.1424
    136  CG       -30.0220   18.1890   51.8560 C.2   192  ASP192      0.3668
    137  OD1      -29.1400   17.8080   52.6540 O.co2 192  ASP192     -0.2456
    138  OD2      -31.0810   18.7390   52.2270 O.co2 192  ASP192     -0.2456
    139  N        -27.6920   20.4100   51.3070 N.am  193  GLN193     -0.1979
    140  CA       -27.4190   21.4750   52.2770 C.3   193  GLN193      0.1601
    141  C        -26.3460   22.5010   51.8730 C.2   193  GLN193      0.2287
    142  O        -26.2930   23.5940   52.4370 O.2   193  GLN193     -0.2864
    143  CB       -27.0630   20.8720   53.6400 C.3   193  GLN193      0.0394
    144  CG       -27.6210   19.4770   53.8710 C.3   193  GLN193      0.0908
    145  CD       -28.4550   19.3840   55.1330 C.2   193  GLN193      0.2608
    146  OE1      -29.5930   19.8510   55.1730 O.2   193  GLN193     -0.2717
    147  NE2      -27.8920   18.7780   56.1710 N.am  193  GLN193     -0.0878
    148  N        -37.1140    8.2490   59.8830 N.3   232  LYS232     -0.1245
    149  CA       -37.2370    7.4020   58.7030 C.3   232  LYS232      0.1561
    150  C        -36.9170    5.9410   59.0050 C.2   232  LYS232      0.2260
    151  O        -37.2640    5.0500   58.2300 O.2   232  LYS232     -0.2867
    152  CB       -36.3230    7.9160   57.5900 C.3   232  LYS232      0.0271
    153  CG       -36.6520    9.3240   57.1220 C.3   232  LYS232      0.0035
    154  CD       -35.5260    9.9020   56.2840 C.3   232  LYS232      0.0206
    155  CE       -34.2530   10.0300   57.1030 C.3   232  LYS232      0.1093
    156  NZ       -33.1320   10.5910   56.3050 N.3   232  LYS232     -0.1314
@<TRIPOS>BOND
     1    50    49    2
     2    47    48    1
     3    49    48    1
     4    48    51    1
     5    51    52    1
     6    55    56    1
     7    91    90    2
     8    90    89    1
     9    88    89    1
    10    52    54   am
    11    52    53    2
    12    62    61    2
    13    56    57    1
    14    21    19    1
    15    89    92    1
    16    73    74    1
    17    58    57    2
    18    57    59   am
    19    61    60    1
    20    19    20    1
    21    19    16    1
    22    74    77    1
    23    74    75    1
    24    59    60    1
    25    80    78   am
    26    78    79    2
    27    78    77    1
    28    60    63    1
    29    92    93    1
    30     8     6    1
    31    16    17    1
    32    16    15    1
    33    75    76    2
    34    75    81   am
    35    22    17   am
    36    22    23    1
    37     7     5    1
    38     6     5    1
    39    81    82    1
    40    93    94    1
    41    17    18    2
    42    83    84    2
    43    83    82    1
    44    23    24    1
    45    15    11   am
    46    63    64    1
    47     5     2    1
    48    82    85    1
    49    12    11    2
    50    11    10    1
    51     2     1    1
    52     2     3    1
    53     9     3   am
    54     9    10    1
    55    25    24    2
    56    24    26   am
    57    94    95    1
    58    64    65   ar
    59    64    66   ar
    60    65    67   ar
    61     3     4    2
    62    14    13    1
    63    86    85    1
    64    10    13    1
    65    85    87    1
    66    95    96    2
    67    66    69   ar
    68    66    68   ar
    69    26    27    1
    70    67    68   ar
    71    69    71   ar
    72    68    70   ar
    73   105   107   ar
    74   105   104   ar
    75   107   109   ar
    76    96    97    1
    77    96    98    1
    78    71    72   ar
    79    31    30    1
    80    31    32    1
    81    33    32    1
    82    33    34    1
    83    27    30    1
    84    27    28    1
    85   103   104    1
    86   103   100    1
    87   104   106   ar
    88    70    72   ar
    89   109   108   ar
    90    35    28   am
    91    35    36    1
    92   131   132    1
    93    39    36    1
    94    39    40    1
    95   100    99    1
    96   100   101    1
    97   132   135    1
    98   132   133    1
    99    28    29    2
   100   106   108   ar
   101    37    36    1
   102    37    38    2
   103    41    40   ar
   104    41    43   ar
   105    40    42   ar
   106   135   136    1
   107    43    45   ar
   108   133   134    2
   109   133   139   am
   110    42    44   ar
   111   101   102    2
   112   139   140    1
   113    45    44   ar
   114    45    46    1
   115   136   138   ar
   116   136   137   ar
   117   141   140    1
   118   141   142    2
   119   122   119    1
   120   140   143    1
   121   117   115   am
   122   118   119    1
   123   118   112   am
   124   119   120    1
   125   111   110    1
   126   111   112    1
   127   111   114    1
   128   112   113    2
   129   115   116    2
   130   115   114    1
   131   143   144    1
   132   144   145    1
   133   120   121    2
   134   120   123   am
   135   123   124    1
   136   145   146    2
   137   145   147   am
   138   129   128    2
   139   154   155    1
   140   154   153    1
   141   156   155    1
   142   124   127    1
   143   124   125    1
   144   128   127    1
   145   128   130   am
   146   153   152    1
   147   125   126    2
   148   152   149    1
   149   151   150    2
   150   149   150    1
   151   149   148    1
