@<TRIPOS>MOLECULE
tmp/4cj8M01.pdb
 143 140 0 0 0
SMALL
GASTEIGER

@<TRIPOS>ATOM
      1  N        -62.0920    2.3270   93.9100 N.3    66  TRP66      -0.1241
      2  CA       -60.7770    2.9580   93.9450 C.3    66  TRP66       0.1605
      3  C        -60.2040    2.9150   95.3590 C.2    66  TRP66       0.2264
      4  O        -60.9360    3.1040   96.3300 O.2    66  TRP66      -0.2867
      5  CB       -60.8640    4.4030   93.4450 C.3    66  TRP66       0.0550
      6  CG       -59.5490    4.9760   93.0150 C.ar   66  TRP66       0.0003
      7  CD1      -58.7420    5.8080   93.7330 C.ar   66  TRP66       0.0946
      8  CD2      -58.8820    4.7440   91.7690 C.ar   66  TRP66       0.0152
      9  NE1      -57.6150    6.1150   93.0080 N.ar   66  TRP66      -0.2442
     10  CE2      -57.6760    5.4730   91.7990 C.ar   66  TRP66       0.0810
     11  CE3      -59.1880    3.9930   90.6300 C.ar   66  TRP66       0.0012
     12  CZ2      -56.7790    5.4740   90.7340 C.ar   66  TRP66       0.0191
     13  CZ3      -58.2960    3.9950   89.5750 C.ar   66  TRP66       0.0001
     14  CH2      -57.1060    4.7310   89.6340 C.ar   66  TRP66       0.0015
     15  N        -57.2440   -0.6650   90.5520 N.3    70  THR70      -0.1218
     16  CA       -55.9890   -0.5540   89.8180 C.3    70  THR70       0.1862
     17  C        -54.7850   -1.0190   90.6320 C.2    70  THR70       0.2287
     18  O        -53.7770   -1.4280   90.0620 O.2    70  THR70      -0.2866
     19  CB       -55.7380    0.8950   89.3490 C.3    70  THR70       0.1770
     20  OG1      -54.6080    0.9260   88.4670 O.3    70  THR70      -0.2211
     21  CG2      -55.4750    1.8100   90.5370 C.3    70  THR70       0.0375
     22  N        -54.4800   -4.7900   90.6960 N.3    73  ARG73      -0.1245
     23  CA       -54.5660   -5.1700   89.2910 C.3    73  ARG73       0.1563
     24  C        -53.9220   -6.5270   89.0270 C.2    73  ARG73       0.2260
     25  O        -54.4880   -7.3680   88.3290 O.2    73  ARG73      -0.2867
     26  CB       -53.9030   -4.1010   88.4230 C.3    73  ARG73       0.0307
     27  CG       -53.8700   -4.4050   86.9370 C.3    73  ARG73       0.0489
     28  CD       -52.8640   -3.5070   86.2350 C.3    73  ARG73       0.2205
     29  NE       -53.0770   -2.0970   86.5510 N.pl3  73  ARG73      -0.0865
     30  CZ       -52.2420   -1.1200   86.2090 C.cat  73  ARG73       0.5346
     31  NH1      -51.1320   -1.3980   85.5390 N.pl3  73  ARG73       0.1354
     32  NH2      -52.5160    0.1340   86.5390 N.pl3  73  ARG73       0.1354
     33  N        -54.1290    0.6370   79.2050 N.3    95  ASN95      -0.1240
     34  CA       -55.1880    1.3550   79.8980 C.3    95  ASN95       0.1653
     35  C        -56.4320    1.4430   79.0230 C.2    95  ASN95       0.2266
     36  O        -56.3520    1.3050   77.8030 O.2    95  ASN95      -0.2867
     37  CB       -54.7180    2.7560   80.2920 C.3    95  ASN95       0.1155
     38  CG       -54.4240    2.8760   81.7730 C.2    95  ASN95       0.2627
     39  OD1      -53.3550    2.4810   82.2400 O.2    95  ASN95      -0.2716
     40  ND2      -55.3730    3.4240   82.5230 N.am   95  ASN95      -0.0877
     41  N        -58.3520    4.0600   78.3930 N.3    97  ASN97      -0.1225
     42  CA       -58.3580    5.2770   77.5880 C.3    97  ASN97       0.1785
     43  C        -57.2680    5.3200   76.5180 C.2    97  ASN97       0.2597
     44  O        -57.0380    6.3610   75.9020 O.2    97  ASN97      -0.2718
     45  CB       -58.2240    6.4990   78.4970 C.3    97  ASN97       0.1169
     46  CG       -57.0910    6.3590   79.4920 C.2    97  ASN97       0.2627
     47  OD1      -56.7260    5.2500   79.8810 O.2    97  ASN97      -0.2716
     48  ND2      -56.5310    7.4850   79.9160 N.am   97  ASN97      -0.0877
     49  N        -56.5980    4.1940   76.2980 N.am   98  LEU98      -0.1980
     50  CA       -55.5580    4.1180   75.2780 C.3    98  LEU98       0.1596
     51  C        -56.1660    3.8840   73.8980 C.2    98  LEU98       0.2287
     52  O        -57.2270    3.2730   73.7730 O.2    98  LEU98      -0.2864
     53  CB       -54.5530    3.0140   75.6140 C.3    98  LEU98       0.0297
     54  CG       -53.2390    3.4630   76.2580 C.3    98  LEU98       0.0022
     55  CD1      -53.4930    4.4150   77.4120 C.3    98  LEU98       0.0001
     56  CD2      -52.4300    2.2630   76.7270 C.3    98  LEU98       0.0001
     57  N        -43.0560    7.5030   81.3500 N.3   122  HIS122     -0.1227
     58  CA       -44.1520    8.4200   81.6360 C.3   122  HIS122      0.1737
     59  C        -43.9550    9.7140   80.8530 C.2   122  HIS122      0.2438
     60  O        -42.8800   10.3140   80.9020 O.2   122  HIS122     -0.2733
     61  CB       -44.2470    8.7080   83.1360 C.3   122  HIS122      0.0758
     62  CG       -45.5490    9.3200   83.5550 C.ar  122  HIS122      0.0818
     63  ND1      -45.8560   10.6450   83.3320 N.ar  122  HIS122     -0.2268
     64  CD2      -46.6210    8.7880   84.1880 C.ar  122  HIS122      0.1154
     65  CE1      -47.0620   10.9020   83.8060 C.ar  122  HIS122      0.1986
     66  NE2      -47.5480    9.7920   84.3320 N.ar  122  HIS122     -0.2212
     67  N        -44.9950   10.1440   80.1230 N.am  123  PRO123     -0.2729
     68  CA       -44.9490   11.3130   79.2350 C.3   123  PRO123      0.1401
     69  C        -44.5860   12.6100   79.9520 C.2   123  PRO123      0.2269
     70  O        -44.0520   13.5260   79.3270 O.2   123  PRO123     -0.2865
     71  CB       -46.3780   11.3930   78.6850 C.3   123  PRO123      0.0296
     72  CG       -46.9280   10.0210   78.8460 C.3   123  PRO123      0.0237
     73  CD       -46.3150    9.4920   80.1020 C.3   123  PRO123      0.0939
     74  N        -44.5090    4.4340   83.3680 N.3   155  ALA155     -0.1231
     75  CA       -45.9250    4.6090   83.6650 C.3   155  ALA155      0.1694
     76  C        -46.6280    3.2580   83.7220 C.2   155  ALA155      0.2593
     77  O        -46.1770    2.2870   83.1140 O.2   155  ALA155     -0.2718
     78  CB       -46.5800    5.5090   82.6310 C.3   155  ALA155      0.0304
     79  N        -47.7330    3.2010   84.4570 N.am  156  GLY156     -0.1942
     80  CA       -48.4880    1.9710   84.6000 C.3   156  GLY156      0.2014
     81  C        -49.4890    1.7660   83.4800 C.2   156  GLY156      0.2639
     82  O        -50.2000    0.7620   83.4470 O.2   156  GLY156     -0.2714
     83  N        -49.5440    2.7230   82.5600 N.am  157  GLY157     -0.1954
     84  CA       -50.4710    2.6590   81.4450 C.3   157  GLY157      0.1869
     85  C        -50.1220    1.5740   80.4460 C.2   157  GLY157      0.2309
     86  O        -51.0070    0.9510   79.8590 O.2   157  GLY157     -0.2863
     87  N        -47.9760    7.0610   93.4110 N.3   189  TRP189     -0.1227
     88  CA       -49.0590    6.3430   92.7440 C.3   189  TRP189      0.1737
     89  C        -48.9540    4.8320   92.9400 C.2   189  TRP189      0.2595
     90  O        -47.8620    4.2690   92.9260 O.2   189  TRP189     -0.2718
     91  CB       -49.0740    6.6840   91.2510 C.3   189  TRP189      0.0564
     92  CG       -49.5870    8.0640   90.9580 C.ar  189  TRP189      0.0003
     93  CD1      -50.8050    8.3900   90.4370 C.ar  189  TRP189      0.0946
     94  CD2      -48.9020    9.3040   91.1800 C.ar  189  TRP189      0.0152
     95  NE1      -50.9190    9.7530   90.3140 N.ar  189  TRP189     -0.2442
     96  CE2      -49.7650   10.3370   90.7640 C.ar  189  TRP189      0.0810
     97  CE3      -47.6430    9.6390   91.6860 C.ar  189  TRP189      0.0012
     98  CZ2      -49.4090   11.6820   90.8400 C.ar  189  TRP189      0.0191
     99  CZ3      -47.2930   10.9740   91.7610 C.ar  189  TRP189      0.0001
    100  CH2      -48.1720   11.9790   91.3400 C.ar  189  TRP189      0.0015
    101  N        -50.1060    4.1920   93.1190 N.am  190  HIS190     -0.1961
    102  CA       -50.1850    2.7880   93.5160 C.3   190  HIS190      0.1787
    103  C        -49.4330    1.8380   92.5880 C.2   190  HIS190      0.2620
    104  O        -48.7090    0.9580   93.0470 O.2   190  HIS190     -0.2715
    105  CB       -51.6490    2.3560   93.5970 C.3   190  HIS190      0.0785
    106  CG       -52.5900    3.4750   93.9200 C.ar  190  HIS190      0.0821
    107  ND1      -52.7780    3.9440   95.2010 N.ar  190  HIS190     -0.2267
    108  CD2      -53.3960    4.2160   93.1240 C.ar  190  HIS190      0.1154
    109  CE1      -53.6610    4.9280   95.1810 C.ar  190  HIS190      0.1986
    110  NE2      -54.0510    5.1120   93.9340 N.ar  190  HIS190     -0.2212
    111  N        -49.6100    2.0130   91.2840 N.am  191  ASP191     -0.1957
    112  CA       -49.0110    1.1040   90.3150 C.3   191  ASP191      0.1840
    113  C        -47.6700    1.6100   89.8060 C.2   191  ASP191      0.2621
    114  O        -46.7250    0.8380   89.6470 O.2   191  ASP191     -0.2715
    115  CB       -49.9650    0.8830   89.1410 C.3   191  ASP191      0.1450
    116  CG       -51.3050    0.3420   89.5830 C.2   191  ASP191      0.3671
    117  OD1      -51.3360   -0.3850   90.5970 O.co2 191  ASP191     -0.2456
    118  OD2      -52.3220    0.6470   88.9240 O.co2 191  ASP191     -0.2456
    119  N        -47.6060    2.9090   89.5320 N.am  192  GLN192     -0.1977
    120  CA       -46.4060    3.5210   88.9780 C.3   192  GLN192      0.1601
    121  C        -45.2220    3.4010   89.9300 C.2   192  GLN192      0.2287
    122  O        -44.1070    3.0940   89.5070 O.2   192  GLN192     -0.2864
    123  CB       -46.6630    4.9900   88.6350 C.3   192  GLN192      0.0394
    124  CG       -46.9890    5.2350   87.1710 C.3   192  GLN192      0.0908
    125  CD       -47.9060    6.4260   86.9690 C.2   192  GLN192      0.2608
    126  OE1      -47.4600    7.5730   86.9600 O.2   192  GLN192     -0.2717
    127  NE2      -49.1960    6.1580   86.8040 N.am  192  GLN192     -0.0878
    128  N        -47.2500    6.5900   74.5530 N.3   213  LEU213     -0.1245
    129  CA       -48.2470    7.0340   75.5210 C.3   213  LEU213      0.1561
    130  C        -48.5470    8.5160   75.3340 C.2   213  LEU213      0.2260
    131  O        -48.6780    9.2560   76.3070 O.2   213  LEU213     -0.2867
    132  CB       -47.7780    6.7700   76.9540 C.3   213  LEU213      0.0270
    133  CG       -47.9810    5.3620   77.5190 C.3   213  LEU213      0.0019
    134  CD1      -47.5350    5.2980   78.9710 C.3   213  LEU213      0.0001
    135  CD2      -49.4330    4.9270   77.3810 C.3   213  LEU213      0.0001
    136  N        -53.0950    8.0170   74.4250 N.3   228  ILE228     -0.1245
    137  CA       -53.9450    7.9400   75.6030 C.3   228  ILE228      0.1561
    138  C        -54.9610    9.0790   75.5570 C.2   228  ILE228      0.2260
    139  O        -54.6010   10.2560   75.6170 O.2   228  ILE228     -0.2867
    140  CB       -53.1180    7.9910   76.9100 C.3   228  ILE228      0.0252
    141  CG1      -53.9900    8.4200   78.0920 C.3   228  ILE228      0.0019
    142  CG2      -51.9240    8.9160   76.7600 C.3   228  ILE228      0.0019
    143  CD1      -53.2280    8.5550   79.3930 C.3   228  ILE228      0.0001
@<TRIPOS>BOND
     1    52    51    2
     2    51    50    1
     3   136   137    1
     4   128   129    1
     5    50    53    1
     6    50    49    1
     7   130   129    1
     8   130   131    2
     9   129   132    1
    10   138   137    1
    11   138   139    2
    12   137   140    1
    13    53    54    1
    14    44    43    2
    15    54    56    1
    16    54    55    1
    17    49    43   am
    18    43    42    1
    19   142   140    1
    20   140   141    1
    21   132   133    1
    22   135   133    1
    23   133   134    1
    24    42    41    1
    25    42    45    1
    26    36    35    2
    27   141   143    1
    28    45    46    1
    29    71    72    1
    30    71    68    1
    31    72    73    1
    32    35    34    1
    33    33    34    1
    34    68    69    1
    35    68    67    1
    36    70    69    2
    37    46    47    2
    38    46    48   am
    39    86    85    2
    40    34    37    1
    41    73    67    1
    42    67    59   am
    43    37    38    1
    44    85    84    1
    45    59    60    2
    46    59    58    1
    47    57    58    1
    48    84    83    1
    49    58    61    1
    50    38    39    2
    51    38    40   am
    52    83    81   am
    53    78    75    1
    54    77    76    2
    55    61    62    1
    56    63    62   ar
    57    63    65   ar
    58    74    75    1
    59    82    81    2
    60    81    80    1
    61    62    64   ar
    62    75    76    1
    63    76    79   am
    64    65    66   ar
    65    64    66   ar
    66    79    80    1
    67    31    30    1
    68    30    32    1
    69    30    29    2
    70    28    29    1
    71    28    27    1
    72   127   125   am
    73    27    26    1
    74   126   125    2
    75   125   124    1
    76   124   123    1
    77    25    24    2
    78    26    23    1
    79    20    19    1
    80   123   120    1
    81   118   116   ar
    82   120   119    1
    83   120   121    1
    84    24    23    1
    85   115   116    1
    86   115   112    1
    87    23    22    1
    88    19    16    1
    89    19    21    1
    90   122   121    2
    91   119   113   am
    92    13    14   ar
    93    13    11   ar
    94   116   117   ar
    95    14    12   ar
    96   114   113    2
    97   113   112    1
    98    16    15    1
    99    16    17    1
   100    18    17    2
   101    95    93   ar
   102    95    96   ar
   103   112   111    1
   104    93    92   ar
   105    11     8   ar
   106    12    10   ar
   107    96    98   ar
   108    96    94   ar
   109    98   100   ar
   110    92    94   ar
   111    92    91    1
   112    94    97   ar
   113    91    88    1
   114   111   103   am
   115   100    99   ar
   116    97    99   ar
   117     8    10   ar
   118     8     6   ar
   119    10     9   ar
   120   103   104    2
   121   103   102    1
   122    88    89    1
   123    88    87    1
   124    90    89    2
   125    89   101   am
   126     9     7   ar
   127     6     5    1
   128     6     7   ar
   129   101   102    1
   130   108   106   ar
   131   108   110   ar
   132     5     2    1
   133   102   105    1
   134   105   106    1
   135     1     2    1
   136   106   107   ar
   137   110   109   ar
   138     2     3    1
   139   109   107   ar
   140     3     4    2
