@<TRIPOS>MOLECULE
tmp/4cjeA01.pdb
 88 87 0 0 0
SMALL
GASTEIGER

@<TRIPOS>ATOM
      1  N         10.8080  -46.7670    4.4640 N.3    39  GLN39      -0.1231
      2  CA        11.5920  -46.2640    5.5950 C.3    39  GLN39       0.1698
      3  C         12.3890  -45.0020    5.2490 C.2    39  GLN39       0.2592
      4  O         12.3650  -44.0240    6.0000 O.2    39  GLN39      -0.2718
      5  CB        12.5180  -47.3460    6.1360 C.3    39  GLN39       0.0381
      6  CG        11.8290  -48.2800    7.1170 C.3    39  GLN39       0.0905
      7  CD        12.7990  -49.2370    7.7780 C.2    39  GLN39       0.2608
      8  OE1       12.7710  -50.4400    7.5230 O.2    39  GLN39      -0.2717
      9  NE2       13.6730  -48.7030    8.6220 N.am   39  GLN39      -0.0878
     10  N         13.0800  -45.0230    4.1140 N.am   40  GLU40      -0.1979
     11  CA        13.8350  -43.8370    3.6490 C.3    40  GLU40       0.1602
     12  C         12.9180  -42.6330    3.4080 C.2    40  GLU40       0.2287
     13  O         13.2160  -41.5070    3.8240 O.2    40  GLU40      -0.2864
     14  CB        14.6220  -44.1450    2.3710 C.3    40  GLU40       0.0415
     15  CG        15.7730  -45.1210    2.5620 C.3    40  GLU40       0.1163
     16  CD        17.0010  -44.5120    3.2200 C.2    40  GLU40       0.3649
     17  OE1       16.9870  -43.3250    3.6080 O.co2  40  GLU40      -0.2457
     18  OE2       18.0030  -45.2380    3.3540 O.co2  40  GLU40      -0.2457
     19  N          9.9210  -42.1390    4.7380 N.3    42  ALA42      -0.1231
     20  CA         9.4050  -41.7510    6.0470 C.3    42  ALA42       0.1694
     21  C         10.3870  -40.8600    6.8080 C.2    42  ALA42       0.2592
     22  O          9.9980  -39.8290    7.3660 O.2    42  ALA42      -0.2718
     23  CB         9.0620  -42.9840    6.8690 C.3    42  ALA42       0.0304
     24  N         11.6540  -41.2590    6.8160 N.am   43  TYR43      -0.1976
     25  CA        12.7020  -40.5030    7.5020 C.3    43  TYR43       0.1639
     26  C         12.8640  -39.1170    6.8720 C.2    43  TYR43       0.2290
     27  O         12.9750  -38.1110    7.5720 O.2    43  TYR43      -0.2864
     28  CB        14.0230  -41.2720    7.4780 C.3    43  TYR43       0.0560
     29  CG        15.1310  -40.5550    8.2000 C.ar   43  TYR43      -0.0198
     30  CD1       15.1080  -40.4110    9.5810 C.ar   43  TYR43      -0.0009
     31  CD2       16.2010  -39.9970    7.5010 C.ar   43  TYR43      -0.0009
     32  CE1       16.1220  -39.7370   10.2490 C.ar   43  TYR43       0.0417
     33  CE2       17.2190  -39.3280    8.1590 C.ar   43  TYR43       0.0417
     34  CZ        17.1750  -39.1940    9.5340 C.ar   43  TYR43       0.1957
     35  OH        18.1830  -38.5170   10.1970 O.3    43  TYR43      -0.2866
     36  N         10.0120  -36.8180    7.9510 N.3    46  LEU46      -0.1245
     37  CA        10.2370  -36.3770    9.3260 C.3    46  LEU46       0.1561
     38  C         11.2050  -35.1990    9.3560 C.2    46  LEU46       0.2260
     39  O         10.9700  -34.2100   10.0620 O.2    46  LEU46      -0.2867
     40  CB        10.7760  -37.5160   10.2060 C.3    46  LEU46       0.0270
     41  CG         9.7780  -38.5750   10.6790 C.3    46  LEU46       0.0019
     42  CD1       10.4890  -39.6990   11.4230 C.3    46  LEU46       0.0001
     43  CD2        8.7040  -37.9600   11.5690 C.3    46  LEU46       0.0001
     44  N          5.2020  -47.4230    7.2940 N.3    69  THR69      -0.1218
     45  CA         6.2100  -46.5350    7.8880 C.3    69  THR69       0.1862
     46  C          5.9940  -45.0880    7.4500 C.2    69  THR69       0.2287
     47  O          6.0820  -44.1720    8.2690 O.2    69  THR69      -0.2866
     48  CB         7.6400  -46.9990    7.5740 C.3    69  THR69       0.1770
     49  OG1        7.7630  -48.3850    7.8960 O.3    69  THR69      -0.2211
     50  CG2        8.6570  -46.2260    8.3950 C.3    69  THR69       0.0375
     51  N          3.0520  -43.8960    9.3120 N.3    72  ALA72      -0.1231
     52  CA         3.4570  -43.6200   10.6980 C.3    72  ALA72       0.1694
     53  C          4.1310  -42.2560   10.8210 C.2    72  ALA72       0.2591
     54  O          3.8420  -41.4930   11.7430 O.2    72  ALA72      -0.2718
     55  CB         4.3590  -44.7180   11.2300 C.3    72  ALA72       0.0304
     56  N          5.0160  -41.9490    9.8790 N.am   73  ALA73      -0.1980
     57  CA         5.7240  -40.6660    9.8780 C.3    73  ALA73       0.1597
     58  C          4.7730  -39.4960    9.6480 C.2    73  ALA73       0.2287
     59  O          4.8970  -38.4570   10.2900 O.2    73  ALA73      -0.2864
     60  CB         6.8260  -40.6600    8.8250 C.3    73  ALA73       0.0319
     61  N          1.5160  -39.4750   10.3320 N.3    75  TRP75      -0.1227
     62  CA         0.7690  -39.3600   11.5880 C.3    75  TRP75       0.1737
     63  C          1.5900  -38.5980   12.6300 C.2    75  TRP75       0.2595
     64  O          1.1200  -37.6360   13.2250 O.2    75  TRP75      -0.2718
     65  CB         0.3820  -40.7340   12.1540 C.3    75  TRP75       0.0564
     66  CG        -0.0550  -40.5920   13.5760 C.ar   75  TRP75       0.0003
     67  CD1       -1.2660  -40.1380   14.0200 C.ar   75  TRP75       0.0946
     68  CD2        0.7400  -40.8240   14.7420 C.ar   75  TRP75       0.0152
     69  NE1       -1.2790  -40.0970   15.3950 N.ar   75  TRP75      -0.2442
     70  CE2       -0.0600  -40.5100   15.8610 C.ar   75  TRP75       0.0810
     71  CE3        2.0480  -41.2800   14.9510 C.ar   75  TRP75       0.0012
     72  CZ2        0.4080  -40.6360   17.1700 C.ar   75  TRP75       0.0191
     73  CZ3        2.5120  -41.4050   16.2480 C.ar   75  TRP75       0.0001
     74  CH2        1.6940  -41.0820   17.3440 C.ar   75  TRP75       0.0015
     75  N          2.8280  -39.0270   12.8340 N.am   76  TRP76      -0.1976
     76  CA         3.6690  -38.4280   13.8710 C.3    76  TRP76       0.1640
     77  C          3.8240  -36.9270   13.6470 C.2    76  TRP76       0.2290
     78  O          3.6860  -36.1440   14.5840 O.2    76  TRP76      -0.2864
     79  CB         5.0360  -39.1100   13.9420 C.3    76  TRP76       0.0576
     80  CG         5.7570  -38.7860   15.2140 C.ar   76  TRP76       0.0006
     81  CD1        5.7640  -39.5190   16.3640 C.ar   76  TRP76       0.0946
     82  CD2        6.5300  -37.6190   15.4770 C.ar   76  TRP76       0.0152
     83  NE1        6.5090  -38.8830   17.3250 N.ar   76  TRP76      -0.2442
     84  CE2        6.9980  -37.7170   16.8020 C.ar   76  TRP76       0.0810
     85  CE3        6.8930  -36.5050   14.7140 C.ar   76  TRP76       0.0012
     86  CZ2        7.7990  -36.7390   17.3830 C.ar   76  TRP76       0.0191
     87  CZ3        7.6880  -35.5390   15.2920 C.ar   76  TRP76       0.0001
     88  CH2        8.1300  -35.6610   16.6160 C.ar   76  TRP76       0.0015
@<TRIPOS>BOND
     1    14    15    1
     2    14    11    1
     3    15    16    1
     4    16    18   ar
     5    16    17   ar
     6    12    11    1
     7    12    13    2
     8    11    10    1
     9    10     3   am
    10     1     2    1
    11    19    20    1
    12     3     2    1
    13     3     4    2
    14     2     5    1
    15    20    21    1
    16    20    23    1
    17     5     6    1
    18    21    24   am
    19    21    22    2
    20    24    25    1
    21    26    25    1
    22    26    27    2
    23     6     7    1
    24    44    45    1
    25    46    45    1
    26    46    47    2
    27    28    25    1
    28    28    29    1
    29    31    33   ar
    30    31    29   ar
    31     8     7    2
    32    48    45    1
    33    48    49    1
    34    48    50    1
    35     7     9   am
    36    36    37    1
    37    33    34   ar
    38    29    30   ar
    39    60    57    1
    40    51    52    1
    41    37    38    1
    42    37    40    1
    43    38    39    2
    44    34    35    1
    45    34    32   ar
    46    30    32   ar
    47    58    57    1
    48    58    59    2
    49    57    56    1
    50    56    53   am
    51    40    41    1
    52    61    62    1
    53    41    42    1
    54    41    43    1
    55    52    53    1
    56    52    55    1
    57    53    54    2
    58    62    65    1
    59    62    63    1
    60    65    66    1
    61    63    75   am
    62    63    64    2
    63    75    76    1
    64    66    67   ar
    65    66    68   ar
    66    77    76    1
    67    77    78    2
    68    76    79    1
    69    79    80    1
    70    67    69   ar
    71    85    87   ar
    72    85    82   ar
    73    68    71   ar
    74    68    70   ar
    75    71    73   ar
    76    80    82   ar
    77    80    81   ar
    78    87    88   ar
    79    69    70   ar
    80    82    84   ar
    81    70    72   ar
    82    73    74   ar
    83    81    83   ar
    84    88    86   ar
    85    84    83   ar
    86    84    86   ar
    87    72    74   ar
