@<TRIPOS>MOLECULE
tmp/4cjqB00.pdb
 88 87 0 0 0
SMALL
GASTEIGER

@<TRIPOS>ATOM
      1  N        -10.8000   46.8750   -8.4420 N.3    39  GLN39      -0.1231
      2  CA       -11.6140   46.4080   -7.3340 C.3    39  GLN39       0.1698
      3  C        -12.3650   45.1130   -7.6730 C.2    39  GLN39       0.2592
      4  O        -12.3070   44.1410   -6.9220 O.2    39  GLN39      -0.2718
      5  CB       -12.6290   47.4690   -6.9510 C.3    39  GLN39       0.0381
      6  CG       -13.4640   47.0950   -5.7440 C.3    39  GLN39       0.0905
      7  CD       -13.1030   47.8490   -4.4770 C.2    39  GLN39       0.2608
      8  OE1      -13.9920   48.2020   -3.7070 O.2    39  GLN39      -0.2717
      9  NE2      -11.8090   48.1010   -4.2470 N.am   39  GLN39      -0.0878
     10  N        -13.0750   45.1120   -8.7940 N.am   40  GLU40      -0.1979
     11  CA       -13.8260   43.9190   -9.2090 C.3    40  GLU40       0.1602
     12  C        -12.9030   42.7310   -9.4620 C.2    40  GLU40       0.2287
     13  O        -13.2270   41.6070   -9.0990 O.2    40  GLU40      -0.2864
     14  CB       -14.6580   44.1850  -10.4670 C.3    40  GLU40       0.0415
     15  CG       -15.8180   45.1660  -10.2740 C.3    40  GLU40       0.1163
     16  CD       -17.0230   44.5870   -9.5370 C.2    40  GLU40       0.3649
     17  OE1      -17.0940   43.3680   -9.2950 O.co2  40  GLU40      -0.2457
     18  OE2      -17.9370   45.3670   -9.1950 O.co2  40  GLU40      -0.2457
     19  N         -9.9230   42.2230   -8.1550 N.3    42  ALA42      -0.1231
     20  CA        -9.3970   41.8180   -6.8580 C.3    42  ALA42       0.1694
     21  C        -10.3870   40.9270   -6.1130 C.2    42  ALA42       0.2592
     22  O        -10.0070   39.8890   -5.5570 O.2    42  ALA42      -0.2718
     23  CB        -9.0560   43.0450   -6.0220 C.3    42  ALA42       0.0304
     24  N        -11.6580   41.3260   -6.1090 N.am   43  TYR43      -0.1976
     25  CA       -12.7040   40.5680   -5.4180 C.3    43  TYR43       0.1639
     26  C        -12.8840   39.1860   -6.0600 C.2    43  TYR43       0.2290
     27  O        -13.0020   38.1690   -5.3750 O.2    43  TYR43      -0.2864
     28  CB       -14.0220   41.3550   -5.4120 C.3    43  TYR43       0.0560
     29  CG       -15.1370   40.6340   -4.7040 C.ar   43  TYR43      -0.0198
     30  CD1      -15.1290   40.4770   -3.3230 C.ar   43  TYR43      -0.0009
     31  CD2      -16.2030   40.1010   -5.4120 C.ar   43  TYR43      -0.0009
     32  CE1      -16.1520   39.8110   -2.6720 C.ar   43  TYR43       0.0417
     33  CE2      -17.2240   39.4300   -4.7700 C.ar   43  TYR43       0.0417
     34  CZ       -17.2030   39.2860   -3.4060 C.ar   43  TYR43       0.1957
     35  OH       -18.2180   38.5950   -2.7780 O.3    43  TYR43      -0.2866
     36  N        -10.0540   36.9220   -4.9910 N.3    46  LEU46      -0.1245
     37  CA       -10.2550   36.4660   -3.6100 C.3    46  LEU46       0.1561
     38  C        -11.2270   35.2890   -3.5810 C.2    46  LEU46       0.2260
     39  O        -10.9900   34.3000   -2.8850 O.2    46  LEU46      -0.2867
     40  CB       -10.7750   37.5930   -2.7100 C.3    46  LEU46       0.0270
     41  CG        -9.7940   38.6920   -2.2850 C.3    46  LEU46       0.0019
     42  CD1      -10.5280   39.7900   -1.5300 C.3    46  LEU46       0.0001
     43  CD2       -8.6740   38.1280   -1.4260 C.3    46  LEU46       0.0001
     44  N         -5.1080   47.4620   -5.6530 N.3    69  THR69      -0.1218
     45  CA        -6.1250   46.5780   -5.0600 C.3    69  THR69       0.1862
     46  C         -5.9170   45.1320   -5.5120 C.2    69  THR69       0.2287
     47  O         -6.0110   44.2000   -4.7140 O.2    69  THR69      -0.2866
     48  CB        -7.5620   47.0370   -5.3780 C.3    69  THR69       0.1770
     49  OG1       -7.7040   48.4350   -5.0850 O.3    69  THR69      -0.2211
     50  CG2       -8.5710   46.2700   -4.5370 C.3    69  THR69       0.0375
     51  N         -2.9600   43.9160   -3.6440 N.3    72  ALA72      -0.1231
     52  CA        -3.3660   43.6340   -2.2580 C.3    72  ALA72       0.1694
     53  C         -4.0630   42.2780   -2.1350 C.2    72  ALA72       0.2591
     54  O         -3.8020   41.5030   -1.2100 O.2    72  ALA72      -0.2718
     55  CB        -4.2640   44.7400   -1.7300 C.3    72  ALA72       0.0304
     56  N         -4.9560   41.9800   -3.0670 N.am   73  ALA73      -0.1980
     57  CA        -5.6600   40.7030   -3.0330 C.3    73  ALA73       0.1597
     58  C         -4.7210   39.5310   -3.2720 C.2    73  ALA73       0.2287
     59  O         -4.8420   38.4840   -2.6360 O.2    73  ALA73      -0.2864
     60  CB        -6.7840   40.6870   -4.0540 C.3    73  ALA73       0.0319
     61  N         -1.4880   39.5220   -2.6060 N.3    75  TRP75      -0.1227
     62  CA        -0.7480   39.3960   -1.3550 C.3    75  TRP75       0.1737
     63  C         -1.5750   38.6320   -0.3160 C.2    75  TRP75       0.2595
     64  O         -1.1100   37.6510    0.2700 O.2    75  TRP75      -0.2718
     65  CB        -0.3400   40.7630   -0.7940 C.3    75  TRP75       0.0564
     66  CG         0.0720   40.6180    0.6270 C.ar   75  TRP75       0.0003
     67  CD1        1.2640   40.1390    1.0860 C.ar   75  TRP75       0.0946
     68  CD2       -0.7290   40.8880    1.7810 C.ar   75  TRP75       0.0152
     69  NE1        1.2600   40.1110    2.4620 N.ar   75  TRP75      -0.2442
     70  CE2        0.0460   40.5550    2.9130 C.ar   75  TRP75       0.0810
     71  CE3       -2.0240   41.3780    1.9690 C.ar   75  TRP75       0.0012
     72  CZ2       -0.4290   40.7110    4.2120 C.ar   75  TRP75       0.0191
     73  CZ3       -2.4960   41.5280    3.2560 C.ar   75  TRP75       0.0001
     74  CH2       -1.6990   41.2010    4.3630 C.ar   75  TRP75       0.0015
     75  N         -2.8070   39.0720   -0.1060 N.am   76  TRP76      -0.1976
     76  CA        -3.6590   38.4730    0.9200 C.3    76  TRP76       0.1640
     77  C         -3.8240   36.9700    0.6920 C.2    76  TRP76       0.2290
     78  O         -3.6760   36.1660    1.6170 O.2    76  TRP76      -0.2864
     79  CB        -5.0250   39.1700    0.9760 C.3    76  TRP76       0.0576
     80  CG        -5.7370   38.8760    2.2490 C.ar   76  TRP76       0.0006
     81  CD1       -5.7380   39.6360    3.3810 C.ar   76  TRP76       0.0946
     82  CD2       -6.5410   37.7270    2.5370 C.ar   76  TRP76       0.0152
     83  NE1       -6.4880   39.0290    4.3580 N.ar   76  TRP76      -0.2442
     84  CE2       -6.9910   37.8540    3.8650 C.ar   76  TRP76       0.0810
     85  CE3       -6.9250   36.6020    1.7990 C.ar   76  TRP76       0.0012
     86  CZ2       -7.8030   36.8910    4.4730 C.ar   76  TRP76       0.0191
     87  CZ3       -7.7350   35.6500    2.4000 C.ar   76  TRP76       0.0001
     88  CH2       -8.1650   35.8040    3.7260 C.ar   76  TRP76       0.0015
@<TRIPOS>BOND
     1    14    15    1
     2    14    11    1
     3    15    16    1
     4    16    17   ar
     5    16    18   ar
     6    12    11    1
     7    12    13    2
     8    11    10    1
     9    10     3   am
    10     1     2    1
    11    19    20    1
    12     3     2    1
    13     3     4    2
    14     2     5    1
    15     5     6    1
    16    20    21    1
    17    20    23    1
    18    21    24   am
    19    21    22    2
    20    24    25    1
    21    26    25    1
    22    26    27    2
    23     6     7    1
    24    44    45    1
    25    46    45    1
    26    46    47    2
    27    25    28    1
    28    28    29    1
    29    31    33   ar
    30    31    29   ar
    31    48    49    1
    32    48    45    1
    33    48    50    1
    34    36    37    1
    35    33    34   ar
    36    29    30   ar
    37     7     9   am
    38     7     8    2
    39    60    57    1
    40    51    52    1
    41    37    38    1
    42    37    40    1
    43    38    39    2
    44    34    35    1
    45    34    32   ar
    46    30    32   ar
    47    58    57    1
    48    58    59    2
    49    56    57    1
    50    56    53   am
    51    40    41    1
    52    61    62    1
    53    41    42    1
    54    41    43    1
    55    52    53    1
    56    52    55    1
    57    53    54    2
    58    62    65    1
    59    62    63    1
    60    65    66    1
    61    63    75   am
    62    63    64    2
    63    75    76    1
    64    66    67   ar
    65    66    68   ar
    66    77    76    1
    67    77    78    2
    68    76    79    1
    69    79    80    1
    70    67    69   ar
    71    68    71   ar
    72    68    70   ar
    73    85    87   ar
    74    85    82   ar
    75    71    73   ar
    76    80    82   ar
    77    80    81   ar
    78    87    88   ar
    79    69    70   ar
    80    82    84   ar
    81    70    72   ar
    82    73    74   ar
    83    81    83   ar
    84    88    86   ar
    85    84    83   ar
    86    84    86   ar
    87    72    74   ar
