@<TRIPOS>MOLECULE
tmp/4cjuB00.pdb
 88 87 0 0 0
SMALL
GASTEIGER

@<TRIPOS>ATOM
      1  N         35.1450  -32.7650    7.0550 N.3    39  GLN39      -0.1231
      2  CA        34.3240  -33.2520    5.9490 C.3    39  GLN39       0.1698
      3  C         32.8310  -33.2610    6.2980 C.2    39  GLN39       0.2592
      4  O         32.0110  -32.7510    5.5340 O.2    39  GLN39      -0.2718
      5  CB        34.7650  -34.6440    5.5070 C.3    39  GLN39       0.0381
      6  CG        34.1490  -35.0580    4.1820 C.3    39  GLN39       0.0905
      7  CD        34.9250  -36.1260    3.4210 C.2    39  GLN39       0.2608
      8  OE1       36.1640  -36.1690    3.4330 O.2    39  GLN39      -0.2717
      9  NE2       34.1900  -36.9770    2.7210 N.am   39  GLN39      -0.0878
     10  N         32.4890  -33.8310    7.4500 N.am   40  GLU40      -0.1979
     11  CA        31.0820  -33.8720    7.8940 C.3    40  GLU40       0.1602
     12  C         30.5370  -32.4690    8.1320 C.2    40  GLU40       0.2287
     13  O         29.4070  -32.1690    7.7630 O.2    40  GLU40      -0.2864
     14  CB        30.9100  -34.7120    9.1620 C.3    40  GLU40       0.0415
     15  CG        31.1850  -36.2020    8.9850 C.3    40  GLU40       0.1163
     16  CD        30.0720  -36.9820    8.2910 C.2    40  GLU40       0.3649
     17  OE1       29.0230  -36.4180    7.9240 O.co2  40  GLU40      -0.2457
     18  OE2       30.2440  -38.2070    8.1190 O.co2  40  GLU40      -0.2457
     19  N         31.5760  -29.6430    6.8050 N.3    42  ALA42      -0.1231
     20  CA        31.4670  -29.0000    5.4900 C.3    42  ALA42       0.1694
     21  C         30.1810  -29.4000    4.7690 C.2    42  ALA42       0.2592
     22  O         29.4530  -28.5490    4.2400 O.2    42  ALA42      -0.2718
     23  CB        32.6760  -29.3500    4.6330 C.3    42  ALA42       0.0304
     24  N         29.9040  -30.6960    4.7470 N.am   43  TYR43      -0.1976
     25  CA        28.6920  -31.2160    4.1060 C.3    43  TYR43       0.1639
     26  C         27.4220  -30.6810    4.7770 C.2    43  TYR43       0.2290
     27  O         26.4630  -30.2760    4.1070 O.2    43  TYR43      -0.2864
     28  CB        28.7060  -32.7450    4.1080 C.3    43  TYR43       0.0560
     29  CG        27.5280  -33.3510    3.4070 C.ar   43  TYR43      -0.0198
     30  CD1       27.3730  -33.2300    2.0310 C.ar   43  TYR43      -0.0009
     31  CD2       26.5470  -34.0290    4.1210 C.ar   43  TYR43      -0.0009
     32  CE1       26.2800  -33.7760    1.3830 C.ar   43  TYR43       0.0417
     33  CE2       25.4530  -34.5790    3.4830 C.ar   43  TYR43       0.0417
     34  CZ        25.3270  -34.4540    2.1140 C.ar   43  TYR43       0.1957
     35  OH        24.2290  -34.9780    1.4810 O.3    43  TYR43      -0.2866
     36  N         26.9060  -27.0800    3.7770 N.3    46  LEU46      -0.1245
     37  CA        26.4140  -27.0160    2.4020 C.3    46  LEU46       0.1561
     38  C         24.9020  -27.2580    2.3790 C.2    46  LEU46       0.2260
     39  O         24.1520  -26.5380    1.7240 O.2    46  LEU46      -0.2867
     40  CB        27.1330  -28.0300    1.5150 C.3    46  LEU46       0.0270
     41  CG        26.5820  -28.1530    0.0950 C.3    46  LEU46       0.0019
     42  CD1       26.6970  -26.8400   -0.6780 C.3    46  LEU46       0.0001
     43  CD2       27.2730  -29.2950   -0.6280 C.3    46  LEU46       0.0001
     44  N         38.5940  -27.9830    4.4350 N.3    69  THR69      -0.1218
     45  CA        37.3420  -28.4830    3.8620 C.3    69  THR69       0.1862
     46  C         36.1560  -27.6140    4.2900 C.2    69  THR69       0.2287
     47  O         35.2850  -27.2850    3.4800 O.2    69  THR69      -0.2866
     48  CB        37.1040  -29.9490    4.2570 C.3    69  THR69       0.1770
     49  OG1       38.3130  -30.6960    4.0480 O.3    69  THR69      -0.2211
     50  CG2       35.9780  -30.5580    3.4300 C.3    69  THR69       0.0375
     51  N         36.4740  -24.4010    2.4160 N.3    72  ALA72      -0.1231
     52  CA        36.0540  -24.6400    1.0220 C.3    72  ALA72       0.1694
     53  C         34.5340  -24.6090    0.8820 C.2    72  ALA72       0.2591
     54  O         33.9870  -24.0120   -0.0470 O.2    72  ALA72      -0.2718
     55  CB        36.6090  -25.9570    0.5120 C.3    72  ALA72       0.0304
     56  N         33.8450  -25.2340    1.8230 N.am   73  ALA73      -0.1980
     57  CA        32.3810  -25.2410    1.7960 C.3    73  ALA73       0.1597
     58  C         31.8080  -23.8500    2.0170 C.2    73  ALA73       0.2287
     59  O         30.8490  -23.4510    1.3560 O.2    73  ALA73      -0.2864
     60  CB        31.8290  -26.2120    2.8250 C.3    73  ALA73       0.0319
     61  N         33.3450  -21.0120    1.3590 N.3    75  TRP75      -0.1227
     62  CA        33.6060  -20.2910    0.1160 C.3    75  TRP75       0.1737
     63  C         32.5450  -20.6500   -0.9360 C.2    75  TRP75       0.2595
     64  O         31.9240  -19.7810   -1.5430 O.2    75  TRP75      -0.2718
     65  CB        34.9990  -20.5860   -0.4380 C.3    75  TRP75       0.0564
     66  CG        35.0890  -20.1100   -1.8470 C.ar   75  TRP75       0.0003
     67  CD1       35.2810  -18.8260   -2.2660 C.ar   75  TRP75       0.0946
     68  CD2       34.9020  -20.8950   -3.0200 C.ar   75  TRP75       0.0152
     69  NE1       35.2480  -18.7670   -3.6390 N.ar   75  TRP75      -0.2442
     70  CE2       35.0080  -20.0240   -4.1280 C.ar   75  TRP75       0.0810
     71  CE3       34.6550  -22.2490   -3.2490 C.ar   75  TRP75       0.0012
     72  CZ2       34.8870  -20.4710   -5.4410 C.ar   75  TRP75       0.0191
     73  CZ3       34.5320  -22.6920   -4.5550 C.ar   75  TRP75       0.0001
     74  CH2       34.6470  -21.8040   -5.6330 C.ar   75  TRP75       0.0015
     75  N         32.3430  -21.9420   -1.1380 N.am   76  TRP76      -0.1976
     76  CA        31.4140  -22.4060   -2.1690 C.3    76  TRP76       0.1640
     77  C         30.0260  -21.8050   -1.9530 C.2    76  TRP76       0.2290
     78  O         29.4090  -21.2690   -2.8800 O.2    76  TRP76      -0.2864
     79  CB        31.3460  -23.9370   -2.1960 C.3    76  TRP76       0.0576
     80  CG        30.7680  -24.4460   -3.4900 C.ar   76  TRP76       0.0006
     81  CD1       31.4620  -24.8570   -4.5860 C.ar   76  TRP76       0.0946
     82  CD2       29.3790  -24.5310   -3.8370 C.ar   76  TRP76       0.0152
     83  NE1       30.5920  -25.2030   -5.5970 N.ar   76  TRP76      -0.2442
     84  CE2       29.3090  -25.0170   -5.1580 C.ar   76  TRP76       0.0810
     85  CE3       28.1870  -24.2640   -3.1530 C.ar   76  TRP76       0.0012
     86  CZ2       28.0980  -25.2330   -5.8050 C.ar   76  TRP76       0.0191
     87  CZ3       26.9870  -24.4740   -3.7970 C.ar   76  TRP76       0.0001
     88  CH2       26.9530  -24.9540   -5.1150 C.ar   76  TRP76       0.0015
@<TRIPOS>BOND
     1    86    84   ar
     2    86    88   ar
     3    74    72   ar
     4    74    73   ar
     5    83    84   ar
     6    83    81   ar
     7    72    70   ar
     8    84    82   ar
     9    88    87   ar
    10    81    80   ar
    11    73    71   ar
    12    70    69   ar
    13    70    68   ar
    14    82    80   ar
    15    82    85   ar
    16    87    85   ar
    17    69    67   ar
    18    80    79    1
    19    71    68   ar
    20    68    66   ar
    21    78    77    2
    22    67    66   ar
    23    79    76    1
    24    76    77    1
    25    76    75    1
    26    66    65    1
    27    64    63    2
    28    75    63   am
    29    63    62    1
    30    42    41    1
    31    43    41    1
    32    65    62    1
    33    54    53    2
    34    41    40    1
    35    62    61    1
    36    55    52    1
    37    53    52    1
    38    53    56   am
    39    52    51    1
    40    59    58    2
    41    32    30   ar
    42    32    34   ar
    43    35    34    1
    44    40    37    1
    45    39    38    2
    46    57    56    1
    47    57    58    1
    48    57    60    1
    49    30    29   ar
    50    34    33   ar
    51    38    37    1
    52    37    36    1
    53     9     7   am
    54    29    28    1
    55    29    31   ar
    56     7     8    2
    57     7     6    1
    58    50    48    1
    59    47    46    2
    60    33    31   ar
    61    45    48    1
    62    45    46    1
    63    45    44    1
    64    49    48    1
    65    25    28    1
    66    25    24    1
    67    25    26    1
    68    27    26    2
    69     6     5    1
    70    22    21    2
    71    23    20    1
    72    24    21   am
    73    21    20    1
    74    20    19    1
    75     5     2    1
    76     4     3    2
    77     2     3    1
    78     2     1    1
    79     3    10   am
    80    10    11    1
    81    13    12    2
    82    11    12    1
    83    11    14    1
    84    17    16   ar
    85    18    16   ar
    86    16    15    1
    87    15    14    1
