@<TRIPOS>MOLECULE
tmp/4cjvA00.pdb
 89 87 0 0 0
SMALL
GASTEIGER

@<TRIPOS>ATOM
      1  N         51.4300   41.8490   -2.8660 N.3    28  TYR28      -0.1241
      2  CA        51.1170   42.9420   -1.9380 C.3    28  TYR28       0.1605
      3  C         52.3700   43.7700   -1.7020 C.2    28  TYR28       0.2264
      4  O         53.4590   43.2150   -1.6240 O.2    28  TYR28      -0.2867
      5  CB        50.6050   42.3710   -0.6160 C.3    28  TYR28       0.0534
      6  CG        50.4150   43.3540    0.5240 C.ar   28  TYR28      -0.0201
      7  CD1       51.4790   43.6940    1.3640 C.ar   28  TYR28      -0.0009
      8  CD2       49.1660   43.9120    0.7950 C.ar   28  TYR28      -0.0009
      9  CE1       51.3070   44.5710    2.4160 C.ar   28  TYR28       0.0417
     10  CE2       48.9830   44.7780    1.8660 C.ar   28  TYR28       0.0417
     11  CZ        50.0570   45.0960    2.6730 C.ar   28  TYR28       0.1957
     12  OH        49.8890   45.9490    3.7250 O.3    28  TYR28      -0.2866
     13  N         54.0820   42.9980    9.4000 N.3    53  TRP53      -0.1241
     14  CA        53.8690   41.6930    8.7690 C.3    53  TRP53       0.1605
     15  C         54.9870   40.7430    9.2200 C.2    53  TRP53       0.2264
     16  O         56.0650   41.2030    9.5740 O.2    53  TRP53      -0.2867
     17  CB        53.9140   41.8100    7.2400 C.3    53  TRP53       0.0550
     18  CG        52.7790   42.5830    6.6450 C.ar   53  TRP53       0.0003
     19  CD1       52.8050   43.8770    6.2360 C.ar   53  TRP53       0.0946
     20  CD2       51.4470   42.1070    6.3920 C.ar   53  TRP53       0.0152
     21  NE1       51.5720   44.2460    5.7490 N.ar   53  TRP53      -0.2442
     22  CE2       50.7190   43.1820    5.8380 C.ar   53  TRP53       0.0810
     23  CE3       50.7980   40.8880    6.5910 C.ar   53  TRP53       0.0012
     24  CZ2       49.3680   43.0730    5.4860 C.ar   53  TRP53       0.0191
     25  CZ3       49.4540   40.7770    6.2410 C.ar   53  TRP53       0.0001
     26  CH2       48.7580   41.8610    5.6870 C.ar   53  TRP53       0.0015
     27  N         47.7110   51.9840   -2.2720 N.3   126  PHE126     -0.1241
     28  CA        46.3090   51.6690   -2.0270 C.3   126  PHE126      0.1605
     29  C         45.6670   51.0170   -3.2640 C.2   126  PHE126      0.2264
     30  O         45.1110   49.9280   -3.1820 O.2   126  PHE126     -0.2867
     31  CB        45.5540   52.9470   -1.6260 C.3   126  PHE126      0.0534
     32  CG        44.0980   52.7230   -1.2870 C.ar  126  PHE126     -0.0203
     33  CD1       43.1780   52.4230   -2.2760 C.ar  126  PHE126     -0.0042
     34  CD2       43.6460   52.8670    0.0150 C.ar  126  PHE126     -0.0042
     35  CE1       41.8470   52.2170   -1.9710 C.ar  126  PHE126     -0.0003
     36  CE2       42.3190   52.6620    0.3320 C.ar  126  PHE126     -0.0003
     37  CZ        41.4140   52.3410   -0.6640 C.ar  126  PHE126     -0.0000
     38  N         47.1700   47.4730   -4.0500 N.3   129  ASN129     -0.1225
     39  CA        46.8000   46.3980   -3.1200 C.3   129  ASN129      0.1785
     40  C         45.3120   46.0370   -3.1440 C.2   129  ASN129      0.2597
     41  O         44.9330   44.9300   -2.7500 O.2   129  ASN129     -0.2718
     42  CB        47.2210   46.7600   -1.7010 C.3   129  ASN129      0.1169
     43  CG        48.7300   46.6910   -1.4980 C.2   129  ASN129      0.2627
     44  OD1       49.4450   46.0190   -2.2370 O.2   129  ASN129     -0.2716
     45  ND2       49.2080   47.3690   -0.4810 N.am  129  ASN129     -0.0877
     46  N         44.4730   46.9630   -3.6000 N.am  130  HIS130     -0.1975
     47  CA        43.0340   46.7100   -3.6770 C.3   130  HIS130      0.1656
     48  C         42.5860   46.1430   -5.0240 C.2   130  HIS130      0.2291
     49  O         41.4860   45.6000   -5.1190 O.2   130  HIS130     -0.2864
     50  CB        42.2440   47.9900   -3.4180 C.3   130  HIS130      0.0771
     51  CG        42.2250   48.4160   -1.9870 C.ar  130  HIS130      0.0820
     52  ND1       43.2810   49.0740   -1.4010 N.ar  130  HIS130     -0.2267
     53  CD2       41.2690   48.3130   -1.0330 C.ar  130  HIS130      0.1154
     54  CE1       42.9850   49.3470   -0.1440 C.ar  130  HIS130      0.1986
     55  NE2       41.7710   48.8930    0.1070 N.ar  130  HIS130     -0.2212
     56  N         42.2580   40.3200   -4.7030 N.3   136  SER136     -0.1217
     57  CA        43.2300   41.4170   -4.6130 C.3   136  SER136      0.1889
     58  C         44.5140   40.9160   -3.9350 C.2   136  SER136      0.2288
     59  O         44.5100   39.8750   -3.2840 O.2   136  SER136     -0.2866
     60  CB        42.6360   42.5920   -3.8350 C.3   136  SER136      0.2089
     61  OG        42.5480   42.2760   -2.4590 O.3   136  SER136     -0.2183
     62  N         45.8970   42.2640   -1.3580 N.3   138  GLY138     -0.1210
     63  CA        45.5830   42.3090    0.0800 C.3   138  GLY138      0.1956
     64  C         44.8790   41.0600    0.5740 C.2   138  GLY138      0.2611
     65  O         45.1800   40.5370    1.6530 O.2   138  GLY138     -0.2717
     66  N         43.9320   40.5800   -0.2230 N.am  139  GLU139     -0.1979
     67  CA        43.2160   39.3470    0.0810 C.3   139  GLU139      0.1602
     68  C         44.1590   38.1540    0.0760 C.2   139  GLU139      0.2287
     69  O         44.0850   37.3010    0.9570 O.2   139  GLU139     -0.2864
     70  CB        42.0710   39.1210   -0.9290 C.3   139  GLU139      0.0415
     71  CG        40.8280   39.9220   -0.5960 C.3   139  GLU139      0.1163
     72  CD        39.7970   39.9940   -1.7200 C.2   139  GLU139      0.3649
     73  OE1       40.1120   39.6620   -2.8800 O.co2 139  GLU139     -0.2457
     74  OE2       38.6570   40.4110   -1.4280 O.co2 139  GLU139     -0.2457
     75  N         47.5640   38.0340    0.4610 N.3   141  ILE141     -0.1231
     76  CA        48.5620   38.0030    1.5370 C.3   141  ILE141      0.1692
     77  C         47.9320   37.5200    2.8450 C.2   141  ILE141      0.2591
     78  O         48.5070   36.6880    3.5360 O.2   141  ILE141     -0.2718
     79  CB        49.3330   39.3390    1.7210 C.3   141  ILE141      0.0266
     80  CG1       50.4290   39.1620    2.7800 C.3   141  ILE141      0.0019
     81  CG2       48.4010   40.4880    2.0820 C.3   141  ILE141      0.0020
     82  CD1       51.4380   40.2960    2.8480 C.3   141  ILE141      0.0001
     83  N         46.7370   38.0030    3.1610 N.am  142  VAL142     -0.1980
     84  CA        46.0470   37.5770    4.3850 C.3   142  VAL142      0.1595
     85  C         45.7190   36.0750    4.3570 C.2   142  VAL142      0.2287
     86  O         45.9520   35.3780    5.3430 O.2   142  VAL142     -0.2864
     87  CB        44.7950   38.4390    4.6350 C.3   142  VAL142      0.0276
     88  CG1       43.8890   37.8220    5.6880 C.3   142  VAL142      0.0022
     89  CG2       45.2170   39.8340    5.0710 C.3   142  VAL142      0.0022
@<TRIPOS>BOND
     1    49    48    2
     2    48    47    1
     3    56    57    1
     4    57    58    1
     5    57    60    1
     6    38    39    1
     7    58    59    2
     8    60    61    1
     9    47    46    1
    10    47    50    1
    11    46    40   am
    12    50    51    1
    13    29    30    2
    14    29    28    1
    15    40    39    1
    16    40    41    2
    17    39    42    1
    18    73    72   ar
    19     1     2    1
    20    33    35   ar
    21    33    32   ar
    22    27    28    1
    23    44    43    2
    24    28    31    1
    25    51    52   ar
    26    51    53   ar
    27    35    37   ar
    28     2     3    1
    29     2     5    1
    30    72    74   ar
    31    72    71    1
    32     3     4    2
    33    42    43    1
    34    31    32    1
    35    43    45   am
    36    52    54   ar
    37    62    63    1
    38    32    34   ar
    39    53    55   ar
    40    70    71    1
    41    70    67    1
    42    37    36   ar
    43     5     6    1
    44    66    67    1
    45    66    64   am
    46    54    55   ar
    47    34    36   ar
    48    68    67    1
    49    68    69    2
    50    63    64    1
    51    75    76    1
    52     6     8   ar
    53     6     7   ar
    54    64    65    2
    55     8    10   ar
    56     7     9   ar
    57    76    79    1
    58    76    77    1
    59    79    81    1
    60    79    80    1
    61    10    11   ar
    62     9    11   ar
    63    11    12    1
    64    80    82    1
    65    77    83   am
    66    77    78    2
    67    83    84    1
    68    85    84    1
    69    85    86    2
    70    84    87    1
    71    87    89    1
    72    87    88    1
    73    24    26   ar
    74    24    22   ar
    75    26    25   ar
    76    21    22   ar
    77    21    19   ar
    78    22    20   ar
    79    19    18   ar
    80    25    23   ar
    81    20    23   ar
    82    20    18   ar
    83    18    17    1
    84    17    14    1
    85    14    15    1
    86    14    13    1
    87    15    16    2
