@<TRIPOS>MOLECULE
tmp/4cjwB02.pdb
 113 104 0 0 0
SMALL
GASTEIGER

@<TRIPOS>ATOM
      1  N         22.1420  -23.6850   14.9640 N.3    21  VAL21      -0.1245
      2  CA        21.1020  -22.8580   15.5600 C.3    21  VAL21       0.1561
      3  C         21.0280  -21.5050   14.8920 C.2    21  VAL21       0.2260
      4  O         22.0490  -20.8280   14.7720 O.2    21  VAL21      -0.2867
      5  CB        21.4410  -22.5420   17.0250 C.3    21  VAL21       0.0252
      6  CG1       20.3270  -21.7220   17.6680 C.3    21  VAL21       0.0019
      7  CG2       21.7130  -23.8120   17.7880 C.3    21  VAL21       0.0019
      8  N         20.4700  -17.9880   15.4050 N.3    23  VAL23      -0.1231
      9  CA        20.6490  -17.3040   16.6840 C.3    23  VAL23       0.1692
     10  C         19.4280  -16.4520   17.0670 C.2    23  VAL23       0.2592
     11  O         18.9520  -16.5140   18.1980 O.2    23  VAL23      -0.2718
     12  CB        21.9480  -16.4590   16.6880 C.3    23  VAL23       0.0266
     13  CG1       22.0180  -15.5670   17.9230 C.3    23  VAL23       0.0020
     14  CG2       23.1700  -17.3740   16.6290 C.3    23  VAL23       0.0020
     15  N         18.9190  -15.6750   16.1230 N.am   24  ALA24      -0.1966
     16  CA        17.7980  -14.7740   16.4060 C.3    24  ALA24       0.1728
     17  C         16.4660  -15.4700   16.7060 C.2    24  ALA24       0.2617
     18  O         15.6170  -14.8750   17.3580 O.2    24  ALA24      -0.2715
     19  CB        17.6200  -13.7900   15.2640 C.3    24  ALA24       0.0334
     20  N         16.2740  -16.7100   16.2410 N.am   25  SER25      -0.1936
     21  CA        14.9870  -17.3980   16.3920 C.3    25  SER25       0.2055
     22  C         15.0170  -18.5910   17.3350 C.2    25  SER25       0.2643
     23  O         13.9940  -18.9660   17.9020 O.2    25  SER25      -0.2714
     24  CB        14.4920  -17.8910   15.0300 C.3    25  SER25       0.2130
     25  OG        15.3440  -18.9170   14.5550 O.3    25  SER25      -0.2179
     26  N         16.1770  -19.2110   17.4900 N.am   26  GLY26      -0.1954
     27  CA        16.2680  -20.4780   18.2020 C.3    26  GLY26       0.1869
     28  C         15.8900  -21.6920   17.3550 C.2    26  GLY26       0.2309
     29  O         15.8080  -22.8040   17.8710 O.2    26  GLY26      -0.2863
     30  N         16.4690  -24.7470   14.8630 N.3    28  ILE28      -0.1245
     31  CA        17.6090  -25.6300   14.6810 C.3    28  ILE28       0.1561
     32  C         17.4610  -26.6290   13.5290 C.2    28  ILE28       0.2260
     33  O         16.3540  -26.9850   13.1020 O.2    28  ILE28      -0.2867
     34  CB        17.9350  -26.4340   15.9620 C.3    28  ILE28       0.0252
     35  CG1       16.8060  -27.4070   16.3070 C.3    28  ILE28       0.0019
     36  CG2       18.2240  -25.4930   17.1220 C.3    28  ILE28       0.0019
     37  CD1       17.1900  -28.4740   17.3180 C.3    28  ILE28       0.0001
     38  N         23.7470  -20.6210   27.2430 N.3    94  VAL94      -0.1245
     39  CA        22.6170  -20.7960   26.3200 C.3    94  VAL94       0.1561
     40  C         22.7650  -22.0870   25.5050 C.2    94  VAL94       0.2260
     41  O         21.8010  -22.8370   25.3520 O.2    94  VAL94      -0.2867
     42  CB        22.4440  -19.5660   25.3940 C.3    94  VAL94       0.0252
     43  CG1       21.6660  -19.9140   24.1280 C.3    94  VAL94       0.0019
     44  CG2       21.7420  -18.4440   26.1470 C.3    94  VAL94       0.0019
     45  N         22.3720  -25.0600   27.8530 N.3    97  SER97      -0.1202
     46  CA        20.9380  -25.2310   28.0960 C.3    97  SER97       0.2020
     47  C         20.2410  -25.8950   26.9120 C.2    97  SER97       0.2618
     48  O         19.3890  -26.7660   27.0930 O.2    97  SER97      -0.2717
     49  CB        20.2690  -23.8860   28.4000 C.3    97  SER97       0.2103
     50  OG        20.4520  -23.5420   29.7570 O.3    97  SER97      -0.2182
     51  N         20.6040  -25.4810   25.7020 N.am   98  MET98      -0.1979
     52  CA        20.0390  -26.0890   24.4980 C.3    98  MET98       0.1605
     53  C         20.3580  -27.5780   24.4140 C.2    98  MET98       0.2287
     54  O         19.4720  -28.3950   24.1480 O.2    98  MET98      -0.2864
     55  CB        20.5670  -25.3910   23.2490 C.3    98  MET98       0.0413
     56  CG        20.1080  -26.0510   21.9640 C.3    98  MET98       0.0598
     57  SD        20.6620  -25.1490   20.5200 S.3    98  MET98      -0.1393
     58  CE        22.3710  -25.6760   20.5180 C.3    98  MET98       0.0692
     59  N         18.3040  -29.4550   26.8810 N.3   101  GLU101     -0.1231
     60  CA        16.9130  -29.5240   26.4210 C.3   101  GLU101      0.1699
     61  C         16.7480  -30.5350   25.2760 C.2   101  GLU101      0.2592
     62  O         15.8060  -31.3310   25.2800 O.2   101  GLU101     -0.2718
     63  CB        16.4130  -28.1430   25.9880 C.3   101  GLU101      0.0402
     64  CG        14.9160  -28.0550   25.6900 C.3   101  GLU101      0.1161
     65  CD        14.0460  -28.5740   26.8270 C.2   101  GLU101      0.3649
     66  OE1       14.3740  -28.3140   28.0060 O.co2 101  GLU101     -0.2457
     67  OE2       13.0290  -29.2450   26.5440 O.co2 101  GLU101     -0.2457
     68  N         17.6680  -30.5110   24.3110 N.am  102  LEU102     -0.1980
     69  CA        17.6180  -31.4490   23.1800 C.3   102  LEU102      0.1596
     70  C         17.6720  -32.8890   23.6470 C.2   102  LEU102      0.2287
     71  O         16.8950  -33.7280   23.1940 O.2   102  LEU102     -0.2864
     72  CB        18.7740  -31.2240   22.1880 C.3   102  LEU102      0.0297
     73  CG        18.4700  -30.4100   20.9300 C.3   102  LEU102      0.0022
     74  CD1       19.7180  -30.2130   20.0860 C.3   102  LEU102      0.0001
     75  CD2       17.3630  -31.0490   20.0930 C.3   102  LEU102      0.0001
     76  N         14.4380  -33.9320   25.2040 N.3   105  ILE105     -0.1245
     77  CA        13.4180  -34.2420   24.2120 C.3   105  ILE105      0.1561
     78  C         13.7160  -35.5970   23.5950 C.2   105  ILE105      0.2260
     79  O         12.8220  -36.4330   23.4520 O.2   105  ILE105     -0.2867
     80  CB        13.2920  -33.1650   23.1170 C.3   105  ILE105      0.0252
     81  CG1       12.9010  -31.8180   23.7360 C.3   105  ILE105      0.0019
     82  CG2       12.2300  -33.5810   22.1070 C.3   105  ILE105      0.0019
     83  CD1       13.0180  -30.6420   22.7950 C.3   105  ILE105      0.0001
     84  N         11.2070  -29.3150   18.9360 N.3   127  HIS127     -0.1241
     85  CA        11.7820  -28.0210   19.2970 C.3   127  HIS127      0.1621
     86  C         11.2710  -26.8960   18.4020 C.2   127  HIS127      0.2264
     87  O         10.8210  -25.8570   18.8930 O.2   127  HIS127     -0.2867
     88  CB        13.3080  -27.9980   19.2260 C.3   127  HIS127      0.0745
     89  CG        13.8620  -26.6210   19.3960 C.ar  127  HIS127      0.0817
     90  ND1       13.8850  -25.9830   20.6190 N.ar  127  HIS127     -0.2268
     91  CD2       14.3110  -25.7190   18.4920 C.ar  127  HIS127      0.1154
     92  CE1       14.3560  -24.7590   20.4630 C.ar  127  HIS127      0.1986
     93  NE2       14.6320  -24.5780   19.1830 N.ar  127  HIS127     -0.2212
     94  N          6.3660  -20.8070   22.4720 N.3   132  LYS132     -0.1245
     95  CA         7.0210  -20.1650   23.6130 C.3   132  LYS132      0.1561
     96  C          6.2670  -18.9080   24.0370 C.2   132  LYS132      0.2260
     97  O          6.6620  -17.7890   23.7000 O.2   132  LYS132     -0.2867
     98  CB         8.4700  -19.8140   23.2580 C.3   132  LYS132      0.0271
     99  CG         9.1680  -21.0250   22.6630 C.3   132  LYS132      0.0035
    100  CD        10.6360  -21.0210   22.9610 C.3   132  LYS132      0.0206
    101  CE        11.1850  -22.4310   22.9080 C.3   132  LYS132      0.1093
    102  NZ        11.3740  -22.9070   21.5220 N.3   132  LYS132     -0.1314
    103  N          9.2710  -17.8430   13.9830 N.3   139  ARG139     -0.1245
    104  CA        10.1750  -16.7100   14.1550 C.3   139  ARG139      0.1563
    105  C         11.1970  -16.6080   13.0260 C.2   139  ARG139      0.2260
    106  O         11.4320  -15.5140   12.5040 O.2   139  ARG139     -0.2867
    107  CB        10.8820  -16.7530   15.5130 C.3   139  ARG139      0.0307
    108  CG         9.9670  -16.4280   16.6850 C.3   139  ARG139      0.0489
    109  CD        10.7410  -16.2140   17.9770 C.3   139  ARG139      0.2205
    110  NE        11.4690  -17.4160   18.3980 N.pl3 139  ARG139     -0.0865
    111  CZ        11.0160  -18.3450   19.2470 C.cat 139  ARG139      0.5346
    112  NH1        9.8070  -18.2550   19.8010 N.pl3 139  ARG139      0.1354
    113  NH2       11.7870  -19.3870   19.5440 N.pl3 139  ARG139      0.1354
@<TRIPOS>BOND
     1   106   105    2
     2   105   104    1
     3    33    32    2
     4    32    31    1
     5   103   104    1
     6   104   107    1
     7    25    24    1
     8    31    30    1
     9    31    34    1
    10     4     3    2
    11     3     2    1
    12     1     2    1
    13    24    21    1
    14    19    16    1
    15     8     9    1
    16   107   108    1
    17     2     5    1
    18    34    35    1
    19    34    36    1
    20    15    16    1
    21    15    10   am
    22    20    21    1
    23    20    17   am
    24    35    37    1
    25    21    22    1
    26    16    17    1
    27    14    12    1
    28     9    12    1
    29     9    10    1
    30   108   109    1
    31    12    13    1
    32    17    18    2
    33     5     6    1
    34     5     7    1
    35    10    11    2
    36    22    26   am
    37    22    23    2
    38    28    29    2
    39    28    27    1
    40    26    27    1
    41   109   110    1
    42   110   111    2
    43    86    87    2
    44    86    85    1
    45    91    93   ar
    46    91    89   ar
    47    84    85    1
    48    93    92   ar
    49    88    85    1
    50    88    89    1
    51   111   113    1
    52   111   112    1
    53    89    90   ar
    54    74    73    1
    55    75    73    1
    56    92    90   ar
    57    58    57    1
    58    57    56    1
    59    73    72    1
    60   102   101    1
    61    56    55    1
    62    82    80    1
    63    72    69    1
    64    94    95    1
    65    99   100    1
    66    99    98    1
    67    83    81    1
    68   101   100    1
    69    80    81    1
    70    80    77    1
    71    69    70    1
    72    69    68    1
    73    71    70    2
    74    55    52    1
    75    98    95    1
    76    79    78    2
    77    78    77    1
    78    95    96    1
    79    97    96    2
    80    43    42    1
    81    54    53    2
    82    77    76    1
    83    68    61   am
    84    53    52    1
    85    52    51    1
    86    61    62    2
    87    61    60    1
    88    41    40    2
    89    42    44    1
    90    42    39    1
    91    40    39    1
    92    64    63    1
    93    64    65    1
    94    51    47   am
    95    63    60    1
    96    39    38    1
    97    60    59    1
    98    67    65   ar
    99    65    66   ar
   100    47    48    2
   101    47    46    1
   102    45    46    1
   103    46    49    1
   104    49    50    1
