@<TRIPOS>MOLECULE
tmp/4cjxB00.pdb
 196 187 0 0 0
SMALL
GASTEIGER

@<TRIPOS>ATOM
      1  N         33.6850   16.0970   27.7800 N.3    10  ARG10      -0.1245
      2  CA        32.6800   16.5520   28.7460 C.3    10  ARG10       0.1563
      3  C         32.2990   18.0080   28.5020 C.2    10  ARG10       0.2260
      4  O         31.1130   18.3460   28.4870 O.2    10  ARG10      -0.2867
      5  CB        33.1510   16.3640   30.1970 C.3    10  ARG10       0.0307
      6  CG        33.7160   14.9720   30.5020 C.3    10  ARG10       0.0489
      7  CD        33.5740   14.5940   31.9700 C.3    10  ARG10       0.2205
      8  NE        34.6670   13.7360   32.4620 N.pl3  10  ARG10      -0.0865
      9  CZ        34.6690   12.3940   32.4910 C.cat  10  ARG10       0.5346
     10  NH1       33.6270   11.6740   32.0280 N.pl3  10  ARG10       0.1354
     11  NH2       35.7340   11.7500   32.9750 N.pl3  10  ARG10       0.1354
     12  N         25.1070    1.8010   33.0860 N.3    51  THR51      -0.1203
     13  CA        25.6840    3.1210   33.1820 C.3    51  THR51       0.1994
     14  C         25.3390    3.9870   31.9820 C.2    51  THR51       0.2617
     15  O         24.9690    5.1390   32.1600 O.2    51  THR51      -0.2717
     16  CB        27.2110    3.0660   33.2880 C.3    51  THR51       0.1784
     17  OG1       27.5550    2.3160   34.4440 O.3    51  THR51      -0.2211
     18  CG2       27.8090    4.4550   33.3960 C.3    51  THR51       0.0376
     19  N         25.4790    3.4560   30.7710 N.am   52  TYR52      -0.1975
     20  CA        25.2990    4.2940   29.5830 C.3    52  TYR52       0.1639
     21  C         23.8350    4.7050   29.4110 C.2    52  TYR52       0.2290
     22  O         23.5330    5.8340   29.0870 O.2    52  TYR52      -0.2864
     23  CB        25.8470    3.6140   28.3190 C.3    52  TYR52       0.0560
     24  CG        27.2890    3.1370   28.4340 C.ar   52  TYR52      -0.0198
     25  CD1       28.2220    3.8190   29.2150 C.ar   52  TYR52      -0.0009
     26  CD2       27.7300    1.9970   27.7430 C.ar   52  TYR52      -0.0009
     27  CE1       29.5410    3.3760   29.3100 C.ar   52  TYR52       0.0417
     28  CE2       29.0540    1.5510   27.8330 C.ar   52  TYR52       0.0417
     29  CZ        29.9490    2.2500   28.6210 C.ar   52  TYR52       0.1957
     30  OH        31.2610    1.8210   28.7710 O.3    52  TYR52      -0.2866
     31  N         23.0880    7.4410   31.8820 N.3    55  LEU55      -0.1231
     32  CA        23.6250    8.7320   31.4760 C.3    55  LEU55       0.1693
     33  C         22.7600    9.3800   30.3810 C.2    55  LEU55       0.2591
     34  O         22.5610   10.5920   30.3660 O.2    55  LEU55      -0.2718
     35  CB        25.0840    8.6030   31.0290 C.3    55  LEU55       0.0284
     36  CG        26.1290    8.2680   32.1050 C.3    55  LEU55       0.0019
     37  CD1       27.4560    7.9070   31.4180 C.3    55  LEU55       0.0001
     38  CD2       26.3360    9.3930   33.1170 C.3    55  LEU55       0.0001
     39  N         22.2680    8.5590   29.4620 N.am   56  LYS56      -0.1980
     40  CA        21.3790    9.0330   28.3930 C.3    56  LYS56       0.1596
     41  C         20.1050    9.6340   28.9900 C.2    56  LYS56       0.2287
     42  O         19.7090   10.7440   28.6390 O.2    56  LYS56      -0.2864
     43  CB        21.0660    7.8990   27.3930 C.3    56  LYS56       0.0298
     44  CG        22.2770    7.4950   26.5300 C.3    56  LYS56       0.0038
     45  CD        22.1280    6.1700   25.7790 C.3    56  LYS56       0.0206
     46  CE        23.4290    5.8070   25.0450 C.3    56  LYS56       0.1093
     47  NZ        23.3180    4.5920   24.1930 N.3    56  LYS56      -0.1314
     48  N         15.8100    3.8320   21.3820 N.3    98  VAL98      -0.1231
     49  CA        17.1600    3.3210   21.5120 C.3    98  VAL98       0.1692
     50  C         17.0950    1.9240   22.1380 C.2    98  VAL98       0.2592
     51  O         16.5860    1.7430   23.2580 O.2    98  VAL98      -0.2718
     52  CB        18.0180    4.2610   22.3890 C.3    98  VAL98       0.0266
     53  CG1       19.3380    3.5970   22.8120 C.3    98  VAL98       0.0020
     54  CG2       18.3120    5.5740   21.6810 C.3    98  VAL98       0.0020
     55  N         17.6130    0.9330   21.4230 N.am   99  VAL99      -0.1966
     56  CA        17.6960   -0.4250   21.9580 C.3    99  VAL99       0.1727
     57  C         19.1680   -0.6400   22.3190 C.2    99  VAL99       0.2616
     58  O         19.9960   -0.8350   21.4420 O.2    99  VAL99      -0.2715
     59  CB        17.1910   -1.4920   20.9440 C.3    99  VAL99       0.0290
     60  CG1       17.4260   -2.9100   21.4630 C.3    99  VAL99       0.0023
     61  CG2       15.7180   -1.2670   20.5970 C.3    99  VAL99       0.0023
     62  N         19.4870   -0.5750   23.6080 N.am  100  GLN100     -0.1963
     63  CA        20.8800   -0.6480   24.0570 C.3   100  GLN100      0.1733
     64  C         21.5200   -2.0070   23.7180 C.2   100  GLN100      0.2616
     65  O         20.9880   -3.0570   24.0210 O.2   100  GLN100     -0.2715
     66  CB        20.9830   -0.3210   25.5540 C.3   100  GLN100      0.0408
     67  CG        22.4010   -0.0930   26.0750 C.3   100  GLN100      0.0908
     68  CD        23.0570    1.1970   25.6090 C.2   100  GLN100      0.2608
     69  OE1       22.3920    2.1810   25.2670 O.2   100  GLN100     -0.2717
     70  NE2       24.3790    1.2070   25.6280 N.am  100  GLN100     -0.0878
     71  N         22.6440   -1.9470   23.0130 N.am  101  LEU101     -0.1964
     72  CA        23.3950   -3.1290   22.6380 C.3   101  LEU101      0.1713
     73  C         24.5830   -3.2710   23.5980 C.2   101  LEU101      0.2458
     74  O         25.0950   -2.2640   24.1120 O.2   101  LEU101     -0.2730
     75  CB        23.9030   -2.9900   21.1860 C.3   101  LEU101      0.0310
     76  CG        22.9260   -2.5500   20.0880 C.3   101  LEU101      0.0022
     77  CD1       23.6330   -2.4090   18.7420 C.3   101  LEU101      0.0001
     78  CD2       21.7810   -3.5350   19.9870 C.3   101  LEU101      0.0001
     79  N         25.0870   -4.4970   23.7850 N.am  102  PRO102     -0.2727
     80  CA        24.6580   -5.7150   23.0960 C.3   102  PRO102      0.1402
     81  C         23.3480   -6.2560   23.6640 C.2   102  PRO102      0.2269
     82  O         23.0550   -6.0590   24.8430 O.2   102  PRO102     -0.2865
     83  CB        25.8160   -6.6960   23.3550 C.3   102  PRO102      0.0296
     84  CG        26.4560   -6.2030   24.6190 C.3   102  PRO102      0.0237
     85  CD        26.3220   -4.7080   24.5770 C.3   102  PRO102      0.0939
     86  N         19.4780    5.5760   16.7210 N.3   123  ASP123     -0.1239
     87  CA        20.8150    5.0280   16.5400 C.3   123  ASP123      0.1674
     88  C         21.2290    4.8520   15.0960 C.2   123  ASP123      0.2266
     89  O         22.3820    4.5330   14.8430 O.2   123  ASP123     -0.2867
     90  CB        20.9500    3.6740   17.2060 C.3   123  ASP123      0.1410
     91  CG        21.0690    3.7710   18.7090 C.2   123  ASP123      0.3668
     92  OD1       21.9840    4.4870   19.2070 O.co2 123  ASP123     -0.2456
     93  OD2       20.2600    3.0980   19.3760 O.co2 123  ASP123     -0.2456
     94  N         20.3870    2.4410   13.0680 N.3   125  LEU125     -0.1245
     95  CA        20.7500    1.0330   12.9620 C.3   125  LEU125      0.1561
     96  C         20.0470    0.3430   11.7700 C.2   125  LEU125      0.2260
     97  O         20.5010   -0.7110   11.3150 O.2   125  LEU125     -0.2867
     98  CB        20.4180    0.3030   14.2730 C.3   125  LEU125      0.0270
     99  CG        21.5290    0.3580   15.3220 C.3   125  LEU125      0.0019
    100  CD1       20.9720   -0.0390   16.6750 C.3   125  LEU125      0.0001
    101  CD2       22.7260   -0.5250   14.9490 C.3   125  LEU125      0.0001
    102  N         25.1960    7.5990   16.5300 N.3   145  CYS145     -0.1221
    103  CA        25.6150    8.5720   17.5230 C.3   145  CYS145      0.1808
    104  C         27.1480    8.5880   17.7340 C.2   145  CYS145      0.2601
    105  O         27.7580    9.6640   17.7920 O.2   145  CYS145     -0.2717
    106  CB        24.8680    8.2950   18.8240 C.3   145  CYS145      0.0970
    107  SG        23.0680    8.2930   18.6070 S.3   145  CYS145     -0.0800
    108  N         27.7440    7.3970   17.8340 N.am  146  THR146     -0.1953
    109  CA        29.1760    7.2850   18.0770 C.3   146  THR146      0.1897
    110  C         29.9610    7.8760   16.9190 C.2   146  THR146      0.2313
    111  O         30.8570    8.7050   17.1320 O.2   146  THR146     -0.2863
    112  CB        29.6280    5.8350   18.3390 C.3   146  THR146      0.1794
    113  OG1       28.8530    5.2680   19.4100 O.3   146  THR146     -0.2208
    114  CG2       31.1040    5.8290   18.7100 C.3   146  THR146      0.0378
    115  N         27.5490    0.7910   14.6750 N.3   174  ILE174     -0.1245
    116  CA        27.3210    2.1940   15.0830 C.3   174  ILE174      0.1561
    117  C         28.5940    3.0180   15.3240 C.2   174  ILE174      0.2260
    118  O         28.5030    4.2080   15.6700 O.2   174  ILE174     -0.2867
    119  CB        26.4160    2.3260   16.3330 C.3   174  ILE174      0.0252
    120  CG1       26.8040    1.3410   17.4370 C.3   174  ILE174      0.0019
    121  CG2       24.9690    2.1110   15.9510 C.3   174  ILE174      0.0019
    122  CD1       25.8990    1.4360   18.6510 C.3   174  ILE174      0.0001
    123  N         35.9910    1.6320   24.7370 N.3   238  THR238     -0.1218
    124  CA        35.5100    1.7390   26.1080 C.3   238  THR238      0.1862
    125  C         35.4620    0.3270   26.6650 C.2   238  THR238      0.2287
    126  O         34.3750   -0.2190   26.8240 O.2   238  THR238     -0.2866
    127  CB        34.0690    2.2890   26.1740 C.3   238  THR238      0.1770
    128  OG1       33.2670    1.6040   25.1950 O.3   238  THR238     -0.2211
    129  CG2       34.0300    3.7840   25.9010 C.3   238  THR238      0.0375
    130  N         35.6560   -2.6210   37.7480 N.3   250  TYR250     -0.1241
    131  CA        36.4170   -2.3850   36.5310 C.3   250  TYR250      0.1605
    132  C         36.5420   -0.8940   36.2730 C.2   250  TYR250      0.2264
    133  O         35.7940   -0.0820   36.8340 O.2   250  TYR250     -0.2867
    134  CB        35.7830   -3.1010   35.3290 C.3   250  TYR250      0.0534
    135  CG        34.4210   -2.5520   34.9700 C.ar  250  TYR250     -0.0201
    136  CD1       34.3010   -1.3840   34.2310 C.ar  250  TYR250     -0.0009
    137  CD2       33.2570   -3.1850   35.3900 C.ar  250  TYR250     -0.0009
    138  CE1       33.0760   -0.8570   33.9080 C.ar  250  TYR250      0.0417
    139  CE2       32.0130   -2.6610   35.0650 C.ar  250  TYR250      0.0417
    140  CZ        31.9350   -1.4960   34.3120 C.ar  250  TYR250      0.1957
    141  OH        30.7150   -0.9420   33.9780 O.3   250  TYR250     -0.2866
    142  N         37.1200    1.7370   32.7330 N.3   252  LEU252     -0.1245
    143  CA        37.0560    1.8090   31.2700 C.3   252  LEU252      0.1561
    144  C         38.3840    2.2470   30.6840 C.2   252  LEU252      0.2260
    145  O         38.9170    3.2860   31.0710 O.2   252  LEU252     -0.2867
    146  CB        35.9510    2.7740   30.8320 C.3   252  LEU252      0.0270
    147  CG        34.5530    2.2970   31.2040 C.3   252  LEU252      0.0019
    148  CD1       33.5220    3.2750   30.6570 C.3   252  LEU252      0.0001
    149  CD2       34.2420    0.8700   30.7380 C.3   252  LEU252      0.0001
    150  N         40.0270    8.5830   27.5520 N.3   271  VAL271     -0.1231
    151  CA        39.0130    7.6230   27.9370 C.3   271  VAL271      0.1678
    152  C         39.1950    7.3120   29.4200 C.2   271  VAL271      0.2434
    153  O         40.2400    6.7950   29.8050 O.2   271  VAL271     -0.2733
    154  CB        39.1650    6.3150   27.1480 C.3   271  VAL271      0.0265
    155  CG1       38.2700    5.2380   27.7380 C.3   271  VAL271      0.0020
    156  CG2       38.8370    6.5450   25.6610 C.3   271  VAL271      0.0020
    157  N         38.1810    7.5970   30.2590 N.am  272  PRO272     -0.2718
    158  CA        36.8780    8.2100   29.9540 C.3   272  PRO272      0.1535
    159  C         37.0030    9.6930   29.6690 C.2   272  PRO272      0.2599
    160  O         38.0810   10.2820   29.8220 O.2   272  PRO272     -0.2715
    161  CB        36.0810    7.9740   31.2330 C.3   272  PRO272      0.0310
    162  CG        37.1280    8.0200   32.3120 C.3   272  PRO272      0.0237
    163  CD        38.3520    7.3780   31.7100 C.3   272  PRO272      0.0939
    164  N         35.9170   10.2790   29.1910 N.am  273  GLY273     -0.1941
    165  CA        35.7940   11.7200   29.0750 C.3   273  GLY273      0.2014
    166  C         36.0410   12.3080   27.7060 C.2   273  GLY273      0.2639
    167  O         36.2200   13.5230   27.5950 O.2   273  GLY273     -0.2714
    168  N         36.0450   11.4680   26.6620 N.am  274  GLY274     -0.1954
    169  CA        36.3240   11.9300   25.3030 C.3   274  GLY274      0.1869
    170  C         35.1200   11.6820   24.4340 C.2   274  GLY274      0.2309
    171  O         34.1660   12.4670   24.4520 O.2   274  GLY274     -0.2863
    172  N         32.7650    9.3320   24.6530 N.3   276  GLY276     -0.1210
    173  CA        31.5890    8.8600   25.3220 C.3   276  GLY276      0.1940
    174  C         30.5370    9.9110   25.6560 C.2   276  GLY276      0.2453
    175  O         29.3470    9.7270   25.3560 O.2   276  GLY276     -0.2732
    176  N         30.9580   11.0050   26.3010 N.am  277  PRO277     -0.2728
    177  CA        29.9410   11.9970   26.6310 C.3   277  PRO277      0.1401
    178  C         29.3250   12.6230   25.3740 C.2   277  PRO277      0.2269
    179  O         28.1100   12.8990   25.3600 O.2   277  PRO277     -0.2865
    180  CB        30.6990   13.0300   27.4870 C.3   277  PRO277      0.0296
    181  CG        31.9040   12.2760   27.9820 C.3   277  PRO277      0.0237
    182  CD        32.2620   11.3150   26.9060 C.3   277  PRO277      0.0939
    183  N         28.9810   11.1020   22.4450 N.3   279  THR279     -0.1203
    184  CA        28.0530   10.1060   21.9500 C.3   279  THR279      0.1994
    185  C         26.6320   10.2810   22.5350 C.2   279  THR279      0.2617
    186  O         25.6480   10.2200   21.7990 O.2   279  THR279     -0.2717
    187  CB        28.5810    8.6840   22.2160 C.3   279  THR279      0.1784
    188  OG1       29.7750    8.5030   21.4580 O.3   279  THR279     -0.2211
    189  CG2       27.5650    7.6290   21.8090 C.3   279  THR279      0.0376
    190  N         26.5400   10.5170   23.8400 N.am  280  VAL280     -0.1979
    191  CA        25.2500   10.7980   24.4750 C.3   280  VAL280      0.1595
    192  C         24.6210   12.0710   23.9110 C.2   280  VAL280      0.2287
    193  O         23.4090   12.1050   23.6490 O.2   280  VAL280     -0.2864
    194  CB        25.3720   10.9380   26.0120 C.3   280  VAL280      0.0276
    195  CG1       24.0460   11.3560   26.6370 C.3   280  VAL280      0.0022
    196  CG2       25.8740    9.6470   26.6420 C.3   280  VAL280      0.0022
@<TRIPOS>BOND
     1    97    96    2
     2    96    95    1
     3    95    94    1
     4    95    98    1
     5    98    99    1
     6   115   116    1
     7    89    88    2
     8   101    99    1
     9   116   117    1
    10   116   119    1
    11    88    87    1
    12    99   100    1
    13   117   118    2
    14   121   119    1
    15   119   120    1
    16   102   103    1
    17    87    86    1
    18    87    90    1
    19   110   111    2
    20   110   109    1
    21    90    91    1
    22   120   122    1
    23   103   104    1
    24   103   106    1
    25   104   105    2
    26   104   108   am
    27   108   109    1
    28   109   112    1
    29   112   114    1
    30   112   113    1
    31   107   106    1
    32    91    92   ar
    33    91    93   ar
    34    77    76    1
    35    78    76    1
    36    76    75    1
    37    61    59    1
    38    59    60    1
    39    59    56    1
    40    75    72    1
    41    48    49    1
    42    55    56    1
    43    55    50   am
    44    58    57    2
    45   188   187    1
    46    49    50    1
    47    49    52    1
    48    54    52    1
    49   186   185    2
    50   189   187    1
    51   184   187    1
    52   184   183    1
    53   184   185    1
    54    56    57    1
    55    50    51    2
    56    57    62   am
    57    52    53    1
    58   185   190   am
    59    72    71    1
    60    72    73    1
    61    71    64   am
    62    80    83    1
    63    80    81    1
    64    80    79    1
    65    83    84    1
    66    73    79   am
    67    73    74    2
    68    62    63    1
    69   193   192    2
    70    81    82    2
    71    64    65    2
    72    64    63    1
    73    79    85    1
    74   190   191    1
    75   192   191    1
    76    63    66    1
    77    47    46    1
    78   170   171    2
    79   170   169    1
    80   191   194    1
    81    85    84    1
    82   172   173    1
    83   123   124    1
    84    46    45    1
    85   128   127    1
    86    69    68    2
    87   169   168    1
    88   173   174    1
    89   175   174    2
    90   179   178    2
    91   178   177    1
    92    66    67    1
    93    68    70   am
    94    68    67    1
    95   174   176   am
    96   156   154    1
    97    45    44    1
    98   129   127    1
    99   194   195    1
   100   194   196    1
   101   124   127    1
   102   124   125    1
   103   176   177    1
   104   176   182    1
   105    44    43    1
   106   177   180    1
   107   168   166   am
   108   125   126    2
   109   182   181    1
   110   154   155    1
   111   154   151    1
   112    43    40    1
   113   180   181    1
   114   150   151    1
   115   167   166    2
   116   166   165    1
   117    26    28   ar
   118    26    24   ar
   119     1     2    1
   120    28    29   ar
   121   151   152    1
   122    23    24    1
   123    23    20    1
   124    40    41    1
   125    40    39    1
   126    24    25   ar
   127     4     3    2
   128     3     2    1
   129    29    30    1
   130    29    27   ar
   131    42    41    2
   132     2     5    1
   133   165   164    1
   134    22    21    2
   135   164   159   am
   136    25    27   ar
   137    21    20    1
   138   152   153    2
   139   152   157   am
   140    39    33   am
   141    20    19    1
   142   159   160    2
   143   159   158    1
   144   158   157    1
   145   158   161    1
   146     5     6    1
   147   157   163    1
   148    34    33    2
   149    33    32    1
   150     6     7    1
   151   148   147    1
   152   144   145    2
   153   144   143    1
   154   149   147    1
   155    19    14   am
   156   146   147    1
   157   146   143    1
   158    35    32    1
   159    35    36    1
   160   161   162    1
   161   143   142    1
   162    37    36    1
   163    32    31    1
   164   163   162    1
   165     7     8    1
   166    14    15    2
   167    14    13    1
   168    10     9    1
   169    36    38    1
   170     8     9    2
   171     9    11    1
   172    12    13    1
   173    13    16    1
   174    16    18    1
   175    16    17    1
   176   138   136   ar
   177   138   140   ar
   178   141   140    1
   179   136   135   ar
   180   140   139   ar
   181   135   134    1
   182   135   137   ar
   183   139   137   ar
   184   134   131    1
   185   132   131    1
   186   132   133    2
   187   131   130    1
