@<TRIPOS>MOLECULE
tmp/4cjxA00.pdb
 76 71 0 0 0
SMALL
GASTEIGER

@<TRIPOS>ATOM
      1  N         20.5750   11.6540  -10.8580 N.3   109  LYS109     -0.1231
      2  CA        20.7170   10.1920  -10.7030 C.3   109  LYS109      0.1693
      3  C         20.0910    9.6570   -9.4210 C.2   109  LYS109      0.2591
      4  O         19.3460    8.6980   -9.4570 O.2   109  LYS109     -0.2718
      5  CB        22.1910    9.7940  -10.7390 C.3   109  LYS109      0.0285
      6  CG        22.5000    8.3500  -10.4260 C.3   109  LYS109      0.0035
      7  CD        24.0140    8.0950  -10.5150 C.3   109  LYS109      0.0206
      8  CE        24.7610    8.5180   -9.2630 C.3   109  LYS109      0.1093
      9  NZ        26.0830    7.8230   -9.1270 N.3   109  LYS109     -0.1314
     10  N         20.3880   10.2960   -8.3060 N.am  110  VAL110     -0.1980
     11  CA        19.8560    9.8720   -7.0140 C.3   110  VAL110      0.1595
     12  C         18.2980    9.9270   -6.9910 C.2   110  VAL110      0.2287
     13  O         17.6450    8.9510   -6.6150 O.2   110  VAL110     -0.2864
     14  CB        20.5020   10.7030   -5.8830 C.3   110  VAL110      0.0276
     15  CG1       19.8720   10.4020   -4.5330 C.3   110  VAL110      0.0022
     16  CG2       22.0080   10.4290   -5.8100 C.3   110  VAL110      0.0022
     17  N         16.8860    7.1080   -9.3200 N.3   113  LEU113     -0.1231
     18  CA        17.0110    5.7470   -8.8090 C.3   113  LEU113      0.1693
     19  C         16.1160    5.5180   -7.5810 C.2   113  LEU113      0.2592
     20  O         15.5720    4.4140   -7.3830 O.2   113  LEU113     -0.2718
     21  CB        18.4560    5.4150   -8.4890 C.3   113  LEU113      0.0284
     22  CG        19.3720    5.4040   -9.7080 C.3   113  LEU113      0.0019
     23  CD1       20.8330    5.3930   -9.2590 C.3   113  LEU113      0.0001
     24  CD2       19.0850    4.2360  -10.6460 C.3   113  LEU113      0.0001
     25  N         15.9240    6.5720   -6.7970 N.am  114  SER114     -0.1952
     26  CA        15.0660    6.5150   -5.6200 C.3   114  SER114      0.1924
     27  C         13.5860    6.1270   -5.9330 C.2   114  SER114      0.2314
     28  O         12.8620    5.7930   -5.0270 O.2   114  SER114     -0.2863
     29  CB        15.0720    7.8560   -4.9040 C.3   114  SER114      0.2116
     30  OG        14.0270    8.6840   -5.4100 O.3   114  SER114     -0.2180
     31  N         21.2280   -0.6030   -5.5190 N.3   125  LEU125     -0.1231
     32  CA        21.6420    0.8070   -5.4460 C.3   125  LEU125      0.1693
     33  C         20.9400    1.6090   -4.3610 C.2   125  LEU125      0.2592
     34  O         21.4800    2.6260   -3.9210 O.2   125  LEU125     -0.2718
     35  CB        21.4210    1.4960   -6.8020 C.3   125  LEU125      0.0284
     36  CG        22.3550    1.0520   -7.9390 C.3   125  LEU125      0.0019
     37  CD1       21.9300    1.6970   -9.2280 C.3   125  LEU125      0.0001
     38  CD2       23.7790    1.4380   -7.6590 C.3   125  LEU125      0.0001
     39  N         19.7700    1.1480   -3.8980 N.am  126  LEU126     -0.1966
     40  CA        18.9780    1.9300   -2.9440 C.3   126  LEU126      0.1713
     41  C         19.4920    1.7710   -1.5190 C.2   126  LEU126      0.2458
     42  O         20.0320    0.7270   -1.1680 O.2   126  LEU126     -0.2730
     43  CB        17.5100    1.5010   -2.9700 C.3   126  LEU126      0.0310
     44  CG        16.8020    1.4850   -4.3120 C.3   126  LEU126      0.0022
     45  CD1       15.4610    0.7540   -4.1730 C.3   126  LEU126      0.0001
     46  CD2       16.6290    2.8920   -4.8490 C.3   126  LEU126      0.0001
     47  N         19.3110    2.8030   -0.6890 N.am  127  PRO127     -0.2727
     48  CA        19.7290    2.7390    0.7120 C.3   127  PRO127      0.1402
     49  C         19.2420    1.4980    1.4490 C.2   127  PRO127      0.2269
     50  O         20.0300    0.9030    2.1770 O.2   127  PRO127     -0.2865
     51  CB        19.1160    3.9990    1.3220 C.3   127  PRO127      0.0296
     52  CG        19.0560    4.9630    0.1870 C.3   127  PRO127      0.0237
     53  CD        18.9280    4.1670   -1.0820 C.3   127  PRO127      0.0939
     54  N         21.5290   -1.2360    0.0790 N.3   130  VAL130     -0.1245
     55  CA        22.9460   -0.9540    0.4090 C.3   130  VAL130      0.1561
     56  C         23.1750   -1.2380    1.9020 C.2   130  VAL130      0.2260
     57  O         24.1830   -1.8560    2.3030 O.2   130  VAL130     -0.2867
     58  CB        23.3480    0.4960    0.0310 C.3   130  VAL130      0.0252
     59  CG1       24.6950    0.8790    0.6390 C.3   130  VAL130      0.0019
     60  CG2       23.4250    0.6220   -1.4860 C.3   130  VAL130      0.0019
     61  N         29.3170    4.1250   -7.1710 N.3   173  ASP173     -0.1239
     62  CA        28.2390    3.3440   -6.5680 C.3   173  ASP173      0.1674
     63  C         28.0410    1.9790   -7.2070 C.2   173  ASP173      0.2266
     64  O         27.5260    1.0400   -6.5680 O.2   173  ASP173     -0.2867
     65  CB        26.9320    4.1590   -6.5380 C.3   173  ASP173      0.1410
     66  CG        26.4580    4.6100   -7.9130 C.2   173  ASP173      0.3668
     67  OD1       27.0040    4.1690   -8.9520 O.co2 173  ASP173     -0.2456
     68  OD2       25.5250    5.4350   -7.9630 O.co2 173  ASP173     -0.2456
     69  N         32.5980    1.4670   -4.4320 N.3   177  LEU177     -0.1245
     70  CA        31.9180    1.4400   -3.1440 C.3   177  LEU177      0.1561
     71  C         31.5190    0.0420   -2.6540 C.2   177  LEU177      0.2260
     72  O         32.0360   -0.3880   -1.6330 O.2   177  LEU177     -0.2867
     73  CB        30.6930    2.3710   -3.1540 C.3   177  LEU177      0.0270
     74  CG        29.9420    2.4800   -1.8230 C.3   177  LEU177      0.0019
     75  CD1       30.8270    3.1770   -0.7990 C.3   177  LEU177      0.0001
     76  CD2       28.6130    3.2080   -1.9760 C.3   177  LEU177      0.0001
@<TRIPOS>BOND
     1     1     2    1
     2     5     2    1
     3     5     6    1
     4     2     3    1
     5    24    22    1
     6     7     6    1
     7     7     8    1
     8    22    23    1
     9    22    21    1
    10     4     3    2
    11     3    10   am
    12    17    18    1
    13     8     9    1
    14    37    36    1
    15    67    66   ar
    16    18    21    1
    17    18    19    1
    18    10    11    1
    19    68    66   ar
    20    36    38    1
    21    36    35    1
    22    66    65    1
    23    19    20    2
    24    19    25   am
    25    63    62    1
    26    63    64    2
    27    61    62    1
    28    11    12    1
    29    11    14    1
    30    12    13    2
    31    35    32    1
    32    25    26    1
    33    62    65    1
    34    27    26    1
    35    27    28    2
    36    14    16    1
    37    14    15    1
    38    26    29    1
    39    31    32    1
    40    32    33    1
    41    30    29    1
    42    46    44    1
    43    69    70    1
    44    33    34    2
    45    33    39   am
    46    44    45    1
    47    44    43    1
    48    39    40    1
    49    73    70    1
    50    73    74    1
    51    70    71    1
    52    43    40    1
    53    40    41    1
    54    71    72    2
    55    76    74    1
    56    74    75    1
    57    41    42    2
    58    41    47   am
    59    60    58    1
    60    53    47    1
    61    53    52    1
    62    47    48    1
    63    58    55    1
    64    58    59    1
    65    54    55    1
    66    52    51    1
    67    55    56    1
    68    48    51    1
    69    48    49    1
    70    49    50    2
    71    56    57    2
