@<TRIPOS>MOLECULE
tmp/4ck2B02.pdb
 89 86 0 0 0
SMALL
GASTEIGER

@<TRIPOS>ATOM
      1  N         46.3850   45.0140   17.3120 N.3    28  TYR28      -0.1241
      2  CA        47.4900   45.2890   16.3870 C.3    28  TYR28       0.1605
      3  C         47.5940   46.7950   16.1680 C.2    28  TYR28       0.2264
      4  O         46.5740   47.4700   16.0820 O.2    28  TYR28      -0.2867
      5  CB        47.2440   44.5720   15.0650 C.3    28  TYR28       0.0534
      6  CG        48.1900   44.9070   13.9250 C.ar   28  TYR28      -0.0201
      7  CD1       47.9350   45.9870   13.0820 C.ar   28  TYR28      -0.0009
      8  CD2       49.3000   44.1080   13.6500 C.ar   28  TYR28      -0.0009
      9  CE1       48.7700   46.2900   12.0210 C.ar   28  TYR28       0.0417
     10  CE2       50.1450   44.3980   12.5770 C.ar   28  TYR28       0.0417
     11  CZ        49.8680   45.4920   11.7670 C.ar   28  TYR28       0.1957
     12  OH        50.6730   45.8000   10.6980 O.3    28  TYR28      -0.2866
     13  N         45.9250   47.9230    5.0770 N.3    53  TRP53      -0.1241
     14  CA        44.9270   47.0550    5.7200 C.3    53  TRP53       0.1605
     15  C         43.5300   47.5380    5.3150 C.2    53  TRP53       0.2264
     16  O         43.3850   48.7030    4.9870 O.2    53  TRP53      -0.2867
     17  CB        45.0430   47.1520    7.2360 C.3    53  TRP53       0.0550
     18  CG        46.2880   46.5470    7.7970 C.ar   53  TRP53       0.0003
     19  CD1       47.4070   47.2070    8.2050 C.ar   53  TRP53       0.0946
     20  CD2       46.5340   45.1610    8.0200 C.ar   53  TRP53       0.0152
     21  NE1       48.3440   46.3180    8.6550 N.ar   53  TRP53      -0.2442
     22  CE2       47.8320   45.0510    8.5660 C.ar   53  TRP53       0.0810
     23  CE3       45.7810   44.0010    7.8270 C.ar   53  TRP53       0.0012
     24  CZ2       48.3980   43.8230    8.9050 C.ar   53  TRP53       0.0191
     25  CZ3       46.3440   42.7830    8.1540 C.ar   53  TRP53       0.0001
     26  CH2       47.6350   42.7020    8.6990 C.ar   53  TRP53       0.0015
     27  N         53.4050   44.0600   18.4140 N.3   129  ASN129     -0.1225
     28  CA        52.6590   43.2350   17.4690 C.3   129  ASN129      0.1785
     29  C         53.0670   41.7610   17.4880 C.2   129  ASN129      0.2597
     30  O         52.2740   40.9020   17.0990 O.2   129  ASN129     -0.2718
     31  CB        52.7760   43.7920   16.0420 C.3   129  ASN129      0.1169
     32  CG        51.9590   45.0590   15.8340 C.2   129  ASN129      0.2627
     33  OD1       51.0270   45.3440   16.5860 O.2   129  ASN129     -0.2716
     34  ND2       52.3010   45.8220   14.8000 N.am  129  ASN129     -0.0877
     35  N         54.2890   41.4740   17.9290 N.am  130  HIS130     -0.1975
     36  CA        54.7850   40.0960   17.9900 C.3   130  HIS130      0.1656
     37  C         54.5740   39.4310   19.3580 C.2   130  HIS130      0.2291
     38  O         54.7420   38.2150   19.4850 O.2   130  HIS130     -0.2864
     39  CB        56.2730   40.0530   17.6520 C.3   130  HIS130      0.0771
     40  CG        56.5760   40.3010   16.2080 C.ar  130  HIS130      0.0820
     41  ND1       56.7760   39.2790   15.3050 N.ar  130  HIS130     -0.2267
     42  CD2       56.7370   41.4520   15.5160 C.ar  130  HIS130      0.1154
     43  CE1       57.0430   39.7910   14.1170 C.ar  130  HIS130      0.1986
     44  NE2       57.0270   41.1090   14.2190 N.ar  130  HIS130     -0.2212
     45  N         53.4070   37.4770   22.3450 N.3   132  ARG132     -0.1245
     46  CA        52.5030   36.3450   22.5060 C.3   132  ARG132      0.1563
     47  C         51.7030   36.5430   23.7950 C.2   132  ARG132      0.2260
     48  O         52.2930   36.7530   24.8560 O.2   132  ARG132     -0.2867
     49  CB        53.3510   35.0630   22.6140 C.3   132  ARG132      0.0307
     50  CG        52.6050   33.7310   22.5340 C.3   132  ARG132      0.0489
     51  CD        52.1170   33.4370   21.1340 C.3   132  ARG132      0.2205
     52  NE        53.2080   33.3980   20.1670 N.pl3 132  ARG132     -0.0865
     53  CZ        53.0400   33.1870   18.8670 C.cat 132  ARG132      0.5346
     54  NH1       51.8250   32.9790   18.3800 N.pl3 132  ARG132      0.1354
     55  NH2       54.0860   33.1740   18.0530 N.pl3 132  ARG132      0.1354
     56  N         49.6710   36.2640   18.9570 N.3   135  SER135     -0.1217
     57  CA        50.0790   37.6680   18.9650 C.3   135  SER135      0.1889
     58  C         49.0050   38.5310   18.2950 C.2   135  SER135      0.2288
     59  O         48.1200   38.0180   17.6120 O.2   135  SER135     -0.2866
     60  CB        51.4130   37.8380   18.2420 C.3   135  SER135      0.2089
     61  OG        51.2680   37.5840   16.8570 O.3   135  SER135     -0.2183
     62  N         49.5150   40.4610   15.7790 N.3   137  GLY137     -0.1210
     63  CA        49.7340   40.2770   14.3400 C.3   137  GLY137      0.1956
     64  C         49.0460   39.0370   13.7910 C.2   137  GLY137      0.2611
     65  O         48.4540   39.0580   12.7110 O.2   137  GLY137     -0.2717
     66  N         49.1190   37.9490   14.5460 N.am  138  GLU138     -0.1979
     67  CA        48.4020   36.7340   14.1880 C.3   138  GLU138      0.1602
     68  C         46.8850   36.9300   14.2330 C.2   138  GLU138      0.2287
     69  O         46.1840   36.4670   13.3420 O.2   138  GLU138     -0.2864
     70  CB        48.8290   35.5760   15.0930 C.3   138  GLU138      0.0415
     71  CG        50.2390   35.0960   14.7900 C.3   138  GLU138      0.1163
     72  CD        50.7240   34.0350   15.7560 C.2   138  GLU138      0.3649
     73  OE1       50.2800   34.0290   16.9190 O.co2 138  GLU138     -0.2457
     74  OE2       51.5630   33.2060   15.3520 O.co2 138  GLU138     -0.2457
     75  N         45.0210   39.7760   13.8950 N.3   140  ILE140     -0.1231
     76  CA        44.4760   40.6300   12.8290 C.3   140  ILE140      0.1692
     77  C         44.3920   39.8610   11.5050 C.2   140  ILE140      0.2591
     78  O         43.3910   39.9370   10.8070 O.2   140  ILE140     -0.2718
     79  CB        45.2350   41.9840   12.6640 C.3   140  ILE140      0.0266
     80  CG1       44.5260   42.8550   11.6220 C.3   140  ILE140      0.0019
     81  CG2       46.6950   41.7760   12.2870 C.3   140  ILE140      0.0020
     82  CD1       45.0420   44.2850   11.5370 C.3   140  ILE140      0.0001
     83  N         45.4250   39.0950   11.1800 N.am  141  VAL141     -0.1980
     84  CA        45.4200   38.2890    9.9620 C.3   141  VAL141      0.1595
     85  C         44.2750   37.2610    9.9790 C.2   141  VAL141      0.2287
     86  O         43.5650   37.1200    8.9900 O.2   141  VAL141     -0.2864
     87  CB        46.7910   37.6090    9.7380 C.3   141  VAL141      0.0276
     88  CG1       46.7120   36.5420    8.6510 C.3   141  VAL141      0.0022
     89  CG2       47.8400   38.6550    9.3710 C.3   141  VAL141      0.0022
@<TRIPOS>BOND
     1    16    15    2
     2    13    14    1
     3    15    14    1
     4    14    17    1
     5    17    18    1
     6    18    20   ar
     7    18    19   ar
     8    23    20   ar
     9    23    25   ar
    10    20    22   ar
    11    25    26   ar
    12    19    21   ar
    13    22    21   ar
    14    22    24   ar
    15    88    87    1
    16    26    24   ar
    17    86    85    2
    18    89    87    1
    19    87    84    1
    20    84    85    1
    21    84    83    1
    22    12    11    1
    23    78    77    2
    24    83    77   am
    25    77    76    1
    26    82    80    1
    27    80    79    1
    28    11     9   ar
    29    11    10   ar
    30     9     7   ar
    31    81    79    1
    32    10     8   ar
    33    79    76    1
    34    65    64    2
    35    76    75    1
    36     7     6   ar
    37    69    68    2
    38     8     6   ar
    39    64    63    1
    40    64    66   am
    41     6     5    1
    42    43    44   ar
    43    43    41   ar
    44    67    68    1
    45    67    66    1
    46    67    70    1
    47    44    42   ar
    48    63    62    1
    49    71    70    1
    50    71    72    1
    51    34    32   am
    52     5     2    1
    53    41    40   ar
    54    74    72   ar
    55    42    40   ar
    56    72    73   ar
    57    32    31    1
    58    32    33    2
    59    31    28    1
    60     4     3    2
    61     3     2    1
    62    40    39    1
    63     2     1    1
    64    61    60    1
    65    30    29    2
    66    28    29    1
    67    28    27    1
    68    29    35   am
    69    59    58    2
    70    39    36    1
    71    35    36    1
    72    36    37    1
    73    55    53    1
    74    60    57    1
    75    58    57    1
    76    54    53    1
    77    53    52    2
    78    56    57    1
    79    37    38    2
    80    52    51    1
    81    51    50    1
    82    45    46    1
    83    46    49    1
    84    46    47    1
    85    50    49    1
    86    47    48    2
