@<TRIPOS>MOLECULE
tmp/4ck3B00.pdb
 88 87 0 0 0
SMALL
GASTEIGER

@<TRIPOS>ATOM
      1  N         70.9820   53.6470   -8.2040 N.3    40  GLN40      -0.1231
      2  CA        70.1370   54.1170   -7.1190 C.3    40  GLN40       0.1698
      3  C         68.6400   54.1070   -7.4830 C.2    40  GLN40       0.2592
      4  O         67.8150   53.5810   -6.7350 O.2    40  GLN40      -0.2718
      5  CB        70.5330   55.5260   -6.6980 C.3    40  GLN40       0.0381
      6  CG        69.8050   55.9750   -5.4430 C.3    40  GLN40       0.0905
      7  CD        70.7370   56.2570   -4.2820 C.2    40  GLN40       0.2608
      8  OE1       71.6570   55.4820   -4.0020 O.2    40  GLN40      -0.2717
      9  NE2       70.4900   57.3550   -3.5830 N.am   40  GLN40      -0.0878
     10  N         68.2900   54.7200   -8.6060 N.am   41  GLU41      -0.1979
     11  CA        66.8720   54.7530   -9.0280 C.3    41  GLU41       0.1602
     12  C         66.3280   53.3400   -9.2700 C.2    41  GLU41       0.2287
     13  O         65.2080   53.0160   -8.8590 O.2    41  GLU41      -0.2864
     14  CB        66.6770   55.6090  -10.2810 C.3    41  GLU41       0.0415
     15  CG        66.9290   57.1050  -10.0970 C.3    41  GLU41       0.1163
     16  CD        65.8290   57.8560   -9.3470 C.2    41  GLU41       0.3649
     17  OE1       64.8220   57.2650   -8.9180 O.co2  41  GLU41      -0.2457
     18  OE2       65.9790   59.0830   -9.1740 O.co2  41  GLU41      -0.2457
     19  N         67.3890   50.5250   -7.9700 N.3    43  ALA43      -0.1231
     20  CA        67.2990   49.8570   -6.6740 C.3    43  ALA43       0.1694
     21  C         66.0260   50.2390   -5.9250 C.2    43  ALA43       0.2592
     22  O         65.3300   49.3740   -5.3820 O.2    43  ALA43      -0.2718
     23  CB        68.5220   50.1810   -5.8360 C.3    43  ALA43       0.0304
     24  N         65.7260   51.5350   -5.9080 N.am   44  TYR44      -0.1976
     25  CA        64.5460   52.0550   -5.2250 C.3    44  TYR44       0.1639
     26  C         63.2790   51.5110   -5.8840 C.2    44  TYR44       0.2290
     27  O         62.3400   51.1000   -5.2020 O.2    44  TYR44      -0.2864
     28  CB        64.5570   53.5870   -5.2220 C.3    44  TYR44       0.0560
     29  CG        63.3790   54.1840   -4.4960 C.ar   44  TYR44      -0.0198
     30  CD1       63.2660   54.0910   -3.1190 C.ar   44  TYR44      -0.0009
     31  CD2       62.3540   54.8110   -5.1930 C.ar   44  TYR44      -0.0009
     32  CE1       62.1770   54.6300   -2.4470 C.ar   44  TYR44       0.0417
     33  CE2       61.2640   55.3470   -4.5350 C.ar   44  TYR44       0.0417
     34  CZ        61.1710   55.2540   -3.1620 C.ar   44  TYR44       0.1957
     35  OH        60.0720   55.7720   -2.5080 O.3    44  TYR44      -0.2866
     36  N         62.7210   47.9360   -4.7690 N.3    47  LEU47      -0.1245
     37  CA        62.1890   47.8980   -3.4040 C.3    47  LEU47       0.1561
     38  C         60.6830   48.1550   -3.3890 C.2    47  LEU47       0.2260
     39  O         59.9360   47.4610   -2.6840 O.2    47  LEU47      -0.2867
     40  CB        62.9160   48.8970   -2.4930 C.3    47  LEU47       0.0270
     41  CG        64.3400   48.5310   -2.0740 C.3    47  LEU47       0.0019
     42  CD1       65.0170   49.6880   -1.3510 C.3    47  LEU47       0.0001
     43  CD2       64.3410   47.3000   -1.1740 C.3    47  LEU47       0.0001
     44  N         74.3510   49.1120   -5.3290 N.3    70  THR70      -0.1218
     45  CA        73.0600   49.5250   -4.7550 C.3    70  THR70       0.1862
     46  C         71.9250   48.6060   -5.2170 C.2    70  THR70       0.2287
     47  O         71.0700   48.2290   -4.4160 O.2    70  THR70      -0.2866
     48  CB        72.7330   50.9920   -5.0660 C.3    70  THR70       0.1770
     49  OG1       73.8510   51.8200   -4.7080 O.3    70  THR70      -0.2211
     50  CG2       71.5250   51.4570   -4.2750 C.3    70  THR70       0.0375
     51  N         72.3880   45.4420   -3.3370 N.3    73  ALA73      -0.1231
     52  CA        71.9150   45.6310   -1.9570 C.3    73  ALA73       0.1694
     53  C         70.3950   45.5270   -1.8560 C.2    73  ALA73       0.2591
     54  O         69.8680   44.8850   -0.9480 O.2    73  ALA73      -0.2718
     55  CB        72.4010   46.9600   -1.4070 C.3    73  ALA73       0.0304
     56  N         69.6870   46.1450   -2.7960 N.am   74  ALA74      -0.1980
     57  CA        68.2300   46.1170   -2.7840 C.3    74  ALA74       0.1597
     58  C         67.7030   44.7180   -3.0410 C.2    74  ALA74       0.2287
     59  O         66.7420   44.2840   -2.4110 O.2    74  ALA74      -0.2864
     60  CB        67.6760   47.0870   -3.8220 C.3    74  ALA74       0.0319
     61  N         69.3040   41.9060   -2.4080 N.3    76  TRP76      -0.1227
     62  CA        69.5630   41.1960   -1.1600 C.3    76  TRP76       0.1737
     63  C         68.4910   41.5150   -0.1130 C.2    76  TRP76       0.2595
     64  O         67.9020   40.6130    0.4900 O.2    76  TRP76      -0.2718
     65  CB        70.9430   41.5410   -0.5950 C.3    76  TRP76       0.0564
     66  CG        71.0340   41.0710    0.8100 C.ar   76  TRP76       0.0003
     67  CD1       71.2130   39.7820    1.2360 C.ar   76  TRP76       0.0946
     68  CD2       70.8490   41.8640    1.9860 C.ar   76  TRP76       0.0152
     69  NE1       71.1830   39.7330    2.6120 N.ar   76  TRP76      -0.2442
     70  CE2       70.9610   40.9960    3.0970 C.ar   76  TRP76       0.0810
     71  CE3       70.6220   43.2270    2.2110 C.ar   76  TRP76       0.0012
     72  CZ2       70.8380   41.4480    4.4110 C.ar   76  TRP76       0.0191
     73  CZ3       70.5010   43.6770    3.5200 C.ar   76  TRP76       0.0001
     74  CH2       70.6200   42.7890    4.6030 C.ar   76  TRP76       0.0015
     75  N         68.2520   42.8020    0.1070 N.am   77  TRP77      -0.1976
     76  CA        67.3010   43.2290    1.1310 C.3    77  TRP77       0.1640
     77  C         65.9280   42.6150    0.8980 C.2    77  TRP77       0.2290
     78  O         65.3110   42.0870    1.8340 O.2    77  TRP77      -0.2864
     79  CB        67.2140   44.7620    1.2120 C.3    77  TRP77       0.0576
     80  CG        66.5940   45.1980    2.5000 C.ar   77  TRP77       0.0006
     81  CD1       67.2450   45.5400    3.6480 C.ar   77  TRP77       0.0946
     82  CD2       65.2000   45.2680    2.7910 C.ar   77  TRP77       0.0152
     83  NE1       66.3350   45.8410    4.6310 N.ar   77  TRP77      -0.2442
     84  CE2       65.0720   45.6790    4.1310 C.ar   77  TRP77       0.0810
     85  CE3       64.0430   45.0560    2.0390 C.ar   77  TRP77       0.0012
     86  CZ2       63.8310   45.8650    4.7370 C.ar   77  TRP77       0.0191
     87  CZ3       62.8110   45.2340    2.6440 C.ar   77  TRP77       0.0001
     88  CH2       62.7190   45.6370    3.9830 C.ar   77  TRP77       0.0015
@<TRIPOS>BOND
     1    14    15    1
     2    14    11    1
     3    15    16    1
     4    16    18   ar
     5    16    17   ar
     6    12    11    1
     7    12    13    2
     8    11    10    1
     9    10     3   am
    10     1     2    1
    11    19    20    1
    12     3     2    1
    13     3     4    2
    14     2     5    1
    15     5     6    1
    16    20    21    1
    17    20    23    1
    18    21    24   am
    19    21    22    2
    20    24    25    1
    21    26    25    1
    22    26    27    2
    23     6     7    1
    24    44    45    1
    25    25    28    1
    26    28    29    1
    27    46    45    1
    28    46    47    2
    29    31    33   ar
    30    31    29   ar
    31    48    45    1
    32    48    49    1
    33    48    50    1
    34    36    37    1
    35    33    34   ar
    36    29    30   ar
    37     7     8    2
    38     7     9   am
    39    60    57    1
    40    37    38    1
    41    37    40    1
    42    38    39    2
    43    51    52    1
    44    34    35    1
    45    34    32   ar
    46    30    32   ar
    47    58    57    1
    48    58    59    2
    49    56    57    1
    50    56    53   am
    51    40    41    1
    52    61    62    1
    53    41    42    1
    54    41    43    1
    55    52    53    1
    56    52    55    1
    57    53    54    2
    58    62    65    1
    59    62    63    1
    60    65    66    1
    61    63    75   am
    62    63    64    2
    63    75    76    1
    64    66    67   ar
    65    66    68   ar
    66    77    76    1
    67    77    78    2
    68    76    79    1
    69    79    80    1
    70    67    69   ar
    71    68    71   ar
    72    68    70   ar
    73    85    87   ar
    74    85    82   ar
    75    71    73   ar
    76    80    82   ar
    77    80    81   ar
    78    69    70   ar
    79    87    88   ar
    80    82    84   ar
    81    70    72   ar
    82    73    74   ar
    83    81    83   ar
    84    88    86   ar
    85    84    83   ar
    86    84    86   ar
    87    72    74   ar
