@<TRIPOS>MOLECULE
tmp/4ckaA01.pdb
 169 158 0 0 0
SMALL
GASTEIGER

@<TRIPOS>ATOM
      1  N         -5.6000   18.5160  462.6100 N.3    75  TYR75      -0.1241
      2  CA        -4.9500   19.6610  463.2350 C.3    75  TYR75       0.1605
      3  C         -5.9560   20.4840  464.0710 C.2    75  TYR75       0.2264
      4  O         -5.7980   21.6970  464.2370 O.2    75  TYR75      -0.2867
      5  CB        -4.3200   20.5620  462.1490 C.3    75  TYR75       0.0534
      6  CG        -3.2440   19.9690  461.2370 C.ar   75  TYR75      -0.0201
      7  CD1       -3.0890   18.6090  461.0590 C.ar   75  TYR75      -0.0009
      8  CD2       -2.4290   20.8090  460.4910 C.ar   75  TYR75      -0.0009
      9  CE1       -2.1270   18.0960  460.1970 C.ar   75  TYR75       0.0417
     10  CE2       -1.4740   20.3130  459.6190 C.ar   75  TYR75       0.0417
     11  CZ        -1.3200   18.9520  459.4810 C.ar   75  TYR75       0.1957
     12  OH        -0.3480   18.4740  458.6320 O.3    75  TYR75      -0.2866
     13  N         -6.3490   20.3990  467.0640 N.3    77  ILE77      -0.1231
     14  CA        -5.6090   20.7020  468.2550 C.3    77  ILE77       0.1692
     15  C         -5.2860   22.1850  468.3210 C.2    77  ILE77       0.2591
     16  O         -5.2750   22.7570  469.4030 O.2    77  ILE77      -0.2718
     17  CB        -4.3110   19.8700  468.2730 C.3    77  ILE77       0.0266
     18  CG1       -4.6410   18.3840  468.4330 C.3    77  ILE77       0.0019
     19  CG2       -3.4020   20.2850  469.4040 C.3    77  ILE77       0.0020
     20  CD1       -5.0670   17.6720  467.1660 C.3    77  ILE77       0.0001
     21  N         -5.0480   22.8010  467.1680 N.am   78  MET78      -0.1979
     22  CA        -4.5630   24.1800  467.0840 C.3    78  MET78       0.1605
     23  C         -5.6230   25.2480  467.1440 C.2    78  MET78       0.2287
     24  O         -5.2880   26.4280  467.2240 O.2    78  MET78      -0.2864
     25  CB        -3.8660   24.3920  465.7490 C.3    78  MET78       0.0413
     26  CG        -2.7490   23.4200  465.4820 C.3    78  MET78       0.0598
     27  SD        -1.5700   23.4520  466.8300 S.3    78  MET78      -0.1393
     28  CE        -0.8710   25.0860  466.6220 C.3    78  MET78       0.0692
     29  N         -4.7430   29.2730  467.2070 N.3    82  PHE82      -0.1241
     30  CA        -4.8510   30.1110  466.0260 C.3    82  PHE82       0.1605
     31  C         -6.0760   30.9980  466.1490 C.2    82  PHE82       0.2264
     32  O         -5.9710   32.2220  466.0850 O.2    82  PHE82      -0.2867
     33  CB        -4.9210   29.2580  464.7450 C.3    82  PHE82       0.0534
     34  CG        -3.6640   28.4730  464.4380 C.ar   82  PHE82      -0.0203
     35  CD1       -2.4340   28.7830  465.0280 C.ar   82  PHE82      -0.0042
     36  CD2       -3.7050   27.4290  463.5180 C.ar   82  PHE82      -0.0042
     37  CE1       -1.2920   28.0500  464.7170 C.ar   82  PHE82      -0.0003
     38  CE2       -2.5700   26.6990  463.2110 C.ar   82  PHE82      -0.0003
     39  CZ        -1.3640   27.0090  463.8090 C.ar   82  PHE82      -0.0000
     40  N         -9.9570   30.1970  461.7130 N.3    86  VAL86      -0.1231
     41  CA        -8.6720   30.6080  461.1660 C.3    86  VAL86       0.1692
     42  C         -7.9240   29.3440  460.7740 C.2    86  VAL86       0.2592
     43  O         -8.0970   28.2990  461.4030 O.2    86  VAL86      -0.2718
     44  CB        -7.8730   31.4100  462.2030 C.3    86  VAL86       0.0266
     45  CG1       -6.4300   31.6060  461.7670 C.3    86  VAL86       0.0020
     46  CG2       -8.5420   32.7550  462.4210 C.3    86  VAL86       0.0020
     47  N         -7.1160   29.4400  459.7200 N.am   87  ALA87      -0.1966
     48  CA        -6.3420   28.3050  459.2330 C.3    87  ALA87       0.1728
     49  C         -7.2670   27.0950  459.0870 C.2    87  ALA87       0.2616
     50  O         -8.3290   27.2140  458.4860 O.2    87  ALA87      -0.2715
     51  CB        -5.1760   28.0260  460.1780 C.3    87  ALA87       0.0334
     52  N         -6.9130   25.9600  459.6860 N.am   88  TYR88      -0.1974
     53  CA        -7.6810   24.7400  459.4800 C.3    88  TYR88       0.1639
     54  C         -9.0780   24.8880  460.0120 C.2    88  TYR88       0.2290
     55  O        -10.0390   24.4860  459.3680 O.2    88  TYR88      -0.2864
     56  CB        -6.9860   23.5630  460.1320 C.3    88  TYR88       0.0560
     57  CG        -5.5310   23.5470  459.7710 C.ar   88  TYR88      -0.0198
     58  CD1       -5.1150   23.1470  458.4910 C.ar   88  TYR88      -0.0009
     59  CD2       -4.5640   23.9940  460.6700 C.ar   88  TYR88      -0.0009
     60  CE1       -3.7860   23.1500  458.1420 C.ar   88  TYR88       0.0417
     61  CE2       -3.2290   24.0150  460.3150 C.ar   88  TYR88       0.0417
     62  CZ        -2.8610   23.5920  459.0480 C.ar   88  TYR88       0.1957
     63  OH        -1.5630   23.6040  458.7010 O.3    88  TYR88      -0.2866
     64  N         -9.6500   29.7040  453.9330 N.3    95  MET95      -0.1245
     65  CA        -8.3310   29.5720  454.4820 C.3    95  MET95       0.1570
     66  C         -7.3550   29.9450  453.4080 C.2    95  MET95       0.2261
     67  O         -6.3380   30.5610  453.6690 O.2    95  MET95      -0.2867
     68  CB        -8.0670   28.1440  454.8930 C.3    95  MET95       0.0387
     69  CG        -6.6220   27.9000  455.2560 C.3    95  MET95       0.0595
     70  SD        -6.2830   26.1570  455.3580 S.3    95  MET95      -0.1393
     71  CE        -4.7470   26.1630  456.2420 C.3    95  MET95       0.0692
     72  N         -6.3920   33.3910  453.3670 N.3    98  GLN98      -0.1231
     73  CA        -5.4690   33.6680  454.4570 C.3    98  GLN98       0.1698
     74  C         -4.0730   33.2300  454.0750 C.2    98  GLN98       0.2592
     75  O         -3.1250   33.9940  454.1820 O.2    98  GLN98      -0.2718
     76  CB        -5.9180   32.9630  455.7240 C.3    98  GLN98       0.0381
     77  CG        -7.1440   33.5980  456.3520 C.3    98  GLN98       0.0905
     78  CD        -7.7980   32.7020  457.3870 C.2    98  GLN98       0.2608
     79  OE1       -7.1970   31.7180  457.8480 O.2    98  GLN98      -0.2717
     80  NE2       -9.0390   33.0320  457.7620 N.am   98  GLN98      -0.0878
     81  N         -3.9300   32.0080  453.6010 N.am   99  LEU99      -0.1980
     82  CA        -2.6230   31.6140  453.1080 C.3    99  LEU99       0.1596
     83  C         -2.0510   32.7060  452.1860 C.2    99  LEU99       0.2287
     84  O         -0.9720   33.2450  452.4400 O.2    99  LEU99      -0.2864
     85  CB        -2.6900   30.2850  452.3770 C.3    99  LEU99       0.0297
     86  CG        -3.0330   29.0270  453.1750 C.3    99  LEU99       0.0022
     87  CD1       -2.6890   27.7730  452.3790 C.3    99  LEU99       0.0001
     88  CD2       -2.2980   29.0060  454.4910 C.3    99  LEU99       0.0001
     89  N         -0.9960   35.9730  453.9110 N.3   102  LEU102     -0.1245
     90  CA         0.2780   35.7870  454.5730 C.3   102  LEU102      0.1561
     91  C          1.3810   35.6680  453.5640 C.2   102  LEU102      0.2260
     92  O          2.4400   36.2710  453.7240 O.2   102  LEU102     -0.2867
     93  CB         0.2550   34.5340  455.4470 C.3   102  LEU102      0.0270
     94  CG         1.5220   34.2100  456.2470 C.3   102  LEU102      0.0019
     95  CD1        2.0830   35.4310  456.9460 C.3   102  LEU102      0.0001
     96  CD2        1.2340   33.1290  457.2730 C.3   102  LEU102      0.0001
     97  N         -3.8470   14.2860  468.4810 N.3   185  VAL185     -0.1245
     98  CA        -4.1350   14.1700  467.0460 C.3   185  VAL185      0.1561
     99  C         -5.0940   13.0230  466.6960 C.2   185  VAL185      0.2260
    100  O         -5.7370   13.0410  465.6380 O.2   185  VAL185     -0.2867
    101  CB        -2.8130   14.0140  466.2660 C.3   185  VAL185      0.0252
    102  CG1       -3.0750   13.7140  464.8030 C.3   185  VAL185      0.0019
    103  CG2       -1.9700   15.2760  466.4080 C.3   185  VAL185      0.0019
    104  N         -3.6250   34.9910  462.6580 N.3   241  MET241     -0.1245
    105  CA        -2.6810   34.9100  461.5440 C.3   241  MET241      0.1570
    106  C         -1.2940   35.4280  461.8790 C.2   241  MET241      0.2261
    107  O         -0.3340   35.1100  461.1760 O.2   241  MET241     -0.2867
    108  CB        -3.2080   35.6400  460.3110 C.3   241  MET241      0.0387
    109  CG        -4.1140   34.7620  459.4620 C.3   241  MET241      0.0595
    110  SD        -4.2420   35.2130  457.7270 S.3   241  MET241     -0.1393
    111  CE        -2.5890   35.7850  457.3320 C.3   241  MET241      0.0692
    112  N         -0.0610   32.2270  464.1550 N.3   244  ALA244     -0.1245
    113  CA         0.3230   31.0910  463.3010 C.3   244  ALA244      0.1562
    114  C          1.5710   31.3870  462.4820 C.2   244  ALA244      0.2260
    115  O          2.4600   30.5300  462.3430 O.2   244  ALA244     -0.2867
    116  CB        -0.8100   30.7150  462.3740 C.3   244  ALA244      0.0290
    117  N          4.3130   31.4020  465.4430 N.3   247  PHE247     -0.1227
    118  CA         4.5040   30.0800  465.9760 C.3   247  PHE247      0.1736
    119  C          5.2690   29.2950  464.9250 C.2   247  PHE247      0.2595
    120  O          6.4140   28.8980  465.1760 O.2   247  PHE247     -0.2718
    121  CB         3.1630   29.4190  466.2850 C.3   247  PHE247      0.0547
    122  CG         3.2690   27.9540  466.5870 C.ar  247  PHE247     -0.0202
    123  CD1        3.6450   27.5170  467.8510 C.ar  247  PHE247     -0.0042
    124  CD2        2.9960   27.0060  465.6040 C.ar  247  PHE247     -0.0042
    125  CE1        3.7500   26.1590  468.1320 C.ar  247  PHE247     -0.0003
    126  CE2        3.0970   25.6450  465.8780 C.ar  247  PHE247     -0.0003
    127  CZ         3.4760   25.2210  467.1450 C.ar  247  PHE247     -0.0000
    128  N          4.7750   29.2890  463.7050 N.am  248  ALA248     -0.1980
    129  CA         5.2800   28.3910  462.6940 C.3   248  ALA248      0.1597
    130  C          6.7680   28.5500  462.4670 C.2   248  ALA248      0.2287
    131  O          7.4650   27.6020  462.2590 O.2   248  ALA248     -0.2864
    132  CB         4.5310   28.6170  461.4060 C.3   248  ALA248      0.0319
    133  N         10.7560   25.3800  464.3770 N.3   252  THR252     -0.1218
    134  CA        11.3150   24.9070  463.1050 C.3   252  THR252      0.1862
    135  C         12.6000   25.6760  462.7030 C.2   252  THR252      0.2287
    136  O         13.6010   25.0460  462.2580 O.2   252  THR252     -0.2866
    137  CB        10.3080   25.0630  461.9580 C.3   252  THR252      0.1770
    138  OG1        9.9330   26.4430  461.8580 O.3   252  THR252     -0.2211
    139  CG2        9.0240   24.1720  462.1330 C.3   252  THR252      0.0375
    140  N          9.5370   18.6460  461.5050 N.3   313  LEU313     -0.1245
    141  CA         8.1780   18.1360  461.4870 C.3   313  LEU313      0.1561
    142  C          8.2010   16.6980  461.0020 C.2   313  LEU313      0.2260
    143  O          8.4500   16.4370  459.8430 O.2   313  LEU313     -0.2867
    144  CB         7.2680   18.9930  460.6260 C.3   313  LEU313      0.0270
    145  CG         7.1260   20.4150  461.1060 C.3   313  LEU313      0.0019
    146  CD1        6.2470   21.1900  460.1540 C.3   313  LEU313      0.0001
    147  CD2        6.5130   20.4410  462.4930 C.3   313  LEU313      0.0001
    148  N          5.0540   24.7860  451.8690 N.3   379  CYS379     -0.1221
    149  CA         5.2010   25.7630  452.9130 C.3   379  CYS379      0.1808
    150  C          5.4270   27.1340  452.4060 C.2   379  CYS379      0.2601
    151  O          6.2580   27.3370  451.5730 O.2   379  CYS379     -0.2717
    152  CB         6.4270   25.4290  453.7020 C.3   379  CYS379      0.0970
    153  SG         6.6630   26.5200  455.0730 S.3   379  CYS379     -0.0800
    154  N          4.7460   28.1050  452.9610 N.am  380  ILE380     -0.1979
    155  CA         4.9610   29.4580  452.5260 C.3   380  ILE380      0.1595
    156  C          6.0460   30.2190  453.2800 C.2   380  ILE380      0.2287
    157  O          6.5070   31.2450  452.8260 O.2   380  ILE380     -0.2864
    158  CB         3.6460   30.2230  452.4870 C.3   380  ILE380      0.0276
    159  CG1        3.2110   30.6010  453.8780 C.3   380  ILE380      0.0022
    160  CG2        2.5810   29.3700  451.8580 C.3   380  ILE380      0.0022
    161  CD1        1.8430   31.2090  453.9120 C.3   380  ILE380      0.0001
    162  N          6.1990   17.8780  470.1190 N.3   417  MET417     -0.1245
    163  CA         5.4270   18.0470  468.9190 C.3   417  MET417      0.1570
    164  C          6.3030   18.3740  467.7260 C.2   417  MET417      0.2261
    165  O          6.1010   17.8710  466.6430 O.2   417  MET417     -0.2867
    166  CB         4.4330   19.1540  469.1310 C.3   417  MET417      0.0387
    167  CG         3.0170   18.6950  468.9760 C.3   417  MET417      0.0595
    168  SD         1.9680   20.0680  468.5310 S.3   417  MET417     -0.1393
    169  CE         3.0470   21.0540  467.5160 C.3   417  MET417      0.0692
@<TRIPOS>BOND
     1   151   150    2
     2   160   158    1
     3   148   149    1
     4    83    84    2
     5    83    82    1
     6    85    82    1
     7    85    86    1
     8    87    86    1
     9   150   149    1
    10   150   154   am
    11   158   155    1
    12   158   159    1
    13   155   154    1
    14   155   156    1
    15   157   156    2
    16   149   152    1
    17    82    81    1
    18    86    88    1
    19    72    73    1
    20    66    67    2
    21    66    65    1
    22    91    92    2
    23    91    90    1
    24    81    74   am
    25   152   153    1
    26   159   161    1
    27    89    90    1
    28    64    65    1
    29    74    75    2
    30    74    73    1
    31    73    76    1
    32    65    68    1
    33    90    93    1
    34    68    69    1
    35    69    70    1
    36    70    71    1
    37    93    94    1
    38    76    77    1
    39    94    95    1
    40    94    96    1
    41    77    78    1
    42   111   110    1
    43    78    80   am
    44    78    79    2
    45   110   109    1
    46    60    58   ar
    47    60    62   ar
    48    50    49    2
    49    58    57   ar
    50    12    11    1
    51    63    62    1
    52    62    61   ar
    53    49    48    1
    54    49    52   am
    55    48    47    1
    56    48    51    1
    57    55    54    2
    58   109   108    1
    59    53    52    1
    60    53    54    1
    61    53    56    1
    62    11    10   ar
    63    11     9   ar
    64    10     8   ar
    65    47    42   am
    66    57    56    1
    67    57    59   ar
    68   143   142    2
    69   146   145    1
    70     9     7   ar
    71   108   105    1
    72    61    59   ar
    73     8     6   ar
    74   144   145    1
    75   144   141    1
    76    42    41    1
    77    42    43    2
    78   142   141    1
    79     7     6   ar
    80   145   147    1
    81    41    40    1
    82    41    44    1
    83   107   106    2
    84     6     5    1
    85   132   129    1
    86   141   140    1
    87   105   106    1
    88   105   104    1
    89    45    44    1
    90   138   137    1
    91   137   139    1
    92   137   134    1
    93     5     2    1
    94    44    46    1
    95   136   135    2
    96   131   130    2
    97   115   114    2
    98   116   113    1
    99   130   129    1
   100   114   113    1
   101     1     2    1
   102   129   128    1
   103   135   134    1
   104   134   133    1
   105    38    36   ar
   106    38    39   ar
   107     2     3    1
   108   113   112    1
   109    36    34   ar
   110   128   119   am
   111    39    37   ar
   112     3     4    2
   113    34    33    1
   114    34    35   ar
   115    37    35   ar
   116    33    30    1
   117   102   101    1
   118   119   120    2
   119   119   118    1
   120   117   118    1
   121    26    25    1
   122    26    27    1
   123   124   126   ar
   124   124   122   ar
   125   100    99    2
   126    25    22    1
   127   126   127   ar
   128   118   121    1
   129    30    31    1
   130    30    29    1
   131    32    31    2
   132   101   103    1
   133   101    98    1
   134   121   122    1
   135   122   123   ar
   136    28    27    1
   137   165   164    2
   138    99    98    1
   139    98    97    1
   140    13    14    1
   141    22    23    1
   142    22    21    1
   143    23    24    2
   144   127   125   ar
   145    20    18    1
   146    21    15   am
   147   169   168    1
   148   164   163    1
   149   123   125   ar
   150    14    17    1
   151    14    15    1
   152    17    18    1
   153    17    19    1
   154    15    16    2
   155   168   167    1
   156   163   166    1
   157   163   162    1
   158   167   166    1
