@<TRIPOS>MOLECULE
tmp/4cklA00.pdb
 192 184 0 0 0
SMALL
GASTEIGER

@<TRIPOS>ATOM
      1  N         18.6870  -33.8400  -36.1810 N.3     1  ALA1       -0.1245
      2  CA        18.7230  -32.6430  -35.3020 C.3     1  ALA1        0.1562
      3  C         17.9180  -32.8520  -34.0100 C.2     1  ALA1        0.2260
      4  O         18.2470  -32.2600  -32.9780 O.2     1  ALA1       -0.2867
      5  CB        18.2380  -31.4210  -36.0560 C.3     1  ALA1        0.0290
      6  N         19.3760  -40.2500  -28.5090 N.3     9  LEU9       -0.1231
      7  CA        20.5330  -39.8710  -29.3300 C.3     9  LEU9        0.1693
      8  C         20.1030  -39.1570  -30.5780 C.2     9  LEU9        0.2591
      9  O         19.0330  -39.4040  -31.1100 O.2     9  LEU9       -0.2718
     10  CB        21.3100  -41.1210  -29.6910 C.3     9  LEU9        0.0284
     11  CG        21.8340  -41.9400  -28.5290 C.3     9  LEU9        0.0019
     12  CD1       22.5030  -43.1890  -29.0590 C.3     9  LEU9        0.0001
     13  CD2       22.8050  -41.1610  -27.6400 C.3     9  LEU9        0.0001
     14  N         20.9430  -38.2680  -31.0740 N.am   10  LYS10      -0.1980
     15  CA        20.8290  -37.7990  -32.4410 C.3    10  LYS10       0.1596
     16  C         21.6760  -38.6960  -33.3410 C.2    10  LYS10       0.2287
     17  O         22.4880  -39.4810  -32.8440 O.2    10  LYS10      -0.2864
     18  CB        21.3320  -36.3600  -32.5640 C.3    10  LYS10       0.0298
     19  CG        20.5650  -35.3880  -31.7090 C.3    10  LYS10       0.0038
     20  CD        21.1820  -33.9840  -31.7940 C.3    10  LYS10       0.0206
     21  CE        20.4410  -33.0490  -30.8440 C.3    10  LYS10       0.1093
     22  NZ        21.0160  -31.6840  -30.8870 N.3    10  LYS10      -0.1314
     23  N         24.3340  -38.2470  -35.1980 N.3    12  VAL12      -0.1231
     24  CA        25.7790  -38.2090  -35.0280 C.3    12  VAL12       0.1692
     25  C         26.2330  -38.9970  -33.8130 C.2    12  VAL12       0.2592
     26  O         27.1930  -39.7670  -33.9160 O.2    12  VAL12      -0.2718
     27  CB        26.4030  -36.7800  -35.1100 C.3    12  VAL12       0.0266
     28  CG1       25.9600  -35.8770  -33.9580 C.3    12  VAL12       0.0020
     29  CG2       27.8910  -36.8690  -35.1020 C.3    12  VAL12       0.0020
     30  N         25.5180  -38.8760  -32.6960 N.am   13  HIS13      -0.1976
     31  CA        25.8730  -39.6130  -31.4830 C.3    13  HIS13       0.1656
     32  C         25.7490  -41.0890  -31.6920 C.2    13  HIS13       0.2291
     33  O         26.6380  -41.8420  -31.3180 O.2    13  HIS13      -0.2864
     34  CB        25.0070  -39.2740  -30.2810 C.3    13  HIS13       0.0771
     35  CG        25.0790  -37.8640  -29.8960 C.ar   13  HIS13       0.0820
     36  ND1       24.3090  -36.8970  -30.4850 N.ar   13  HIS13      -0.2267
     37  CD2       25.8530  -37.2350  -28.9810 C.ar   13  HIS13       0.1154
     38  CE1       24.6060  -35.7250  -29.9490 C.ar   13  HIS13       0.1986
     39  NE2       25.5410  -35.9060  -29.0380 N.ar   13  HIS13      -0.2212
     40  N         33.6240  -41.1060  -40.0520 N.3    42  ILE42      -0.1245
     41  CA        33.6500  -40.2900  -41.2860 C.3    42  ILE42       0.1561
     42  C         33.5730  -41.1540  -42.5500 C.2    42  ILE42       0.2260
     43  O         32.8430  -40.8270  -43.5110 O.2    42  ILE42      -0.2867
     44  CB        34.8630  -39.3590  -41.2930 C.3    42  ILE42       0.0252
     45  CG1       34.6330  -38.2220  -40.2830 C.3    42  ILE42       0.0019
     46  CG2       35.1480  -38.8400  -42.6720 C.3    42  ILE42       0.0019
     47  CD1       35.8750  -37.3470  -40.0610 C.3    42  ILE42       0.0001
     48  N         29.1870  -40.9950  -41.2600 N.3    46  HIS46      -0.1227
     49  CA        28.9200  -39.5950  -41.1850 C.3    46  HIS46       0.1737
     50  C         29.9540  -38.9030  -42.0550 C.2    46  HIS46       0.2438
     51  O         30.9780  -38.3870  -41.5750 O.2    46  HIS46      -0.2733
     52  CB        28.9730  -39.1470  -39.7240 C.3    46  HIS46       0.0758
     53  CG        28.5880  -37.7220  -39.5240 C.ar   46  HIS46       0.0818
     54  ND1       27.2830  -37.3490  -39.3370 N.ar   46  HIS46      -0.2268
     55  CD2       29.3160  -36.5770  -39.5000 C.ar   46  HIS46       0.1154
     56  CE1       27.2090  -36.0350  -39.2250 C.ar   46  HIS46       0.1986
     57  NE2       28.4310  -35.5400  -39.3180 N.ar   46  HIS46      -0.2212
     58  N         29.6850  -38.8550  -43.3530 N.am   47  PRO47      -0.2718
     59  CA        30.7610  -38.5350  -44.2600 C.3    47  PRO47       0.1535
     60  C         30.9410  -37.0310  -44.4380 C.2    47  PRO47       0.2599
     61  O         30.8920  -36.5140  -45.5480 O.2    47  PRO47      -0.2715
     62  CB        30.3390  -39.2500  -45.5360 C.3    47  PRO47       0.0310
     63  CG        28.8530  -39.1410  -45.5300 C.3    47  PRO47       0.0237
     64  CD        28.4600  -39.2650  -44.0720 C.3    47  PRO47       0.0939
     65  N         31.2400  -36.3500  -43.3350 N.am   48  HIS48      -0.1960
     66  CA        31.5130  -34.9160  -43.3380 C.3    48  HIS48       0.1787
     67  C         32.7470  -34.7060  -42.5220 C.2    48  HIS48       0.2621
     68  O         32.9360  -35.3790  -41.5030 O.2    48  HIS48      -0.2715
     69  CB        30.3710  -34.1660  -42.6740 C.3    48  HIS48       0.0785
     70  CG        29.0680  -34.4060  -43.3300 C.ar   48  HIS48       0.0821
     71  ND1       28.6460  -33.6770  -44.4090 N.ar   48  HIS48      -0.2267
     72  CD2       28.1290  -35.3540  -43.1230 C.ar   48  HIS48       0.1154
     73  CE1       27.4770  -34.1370  -44.8160 C.ar   48  HIS48       0.1986
     74  NE2       27.1490  -35.1570  -44.0540 N.ar   48  HIS48      -0.2212
     75  N         33.6020  -33.8130  -42.9690 N.am   49  GLY49      -0.1940
     76  CA        34.8320  -33.5780  -42.2620 C.3    49  GLY49       0.2014
     77  C         34.9160  -32.2740  -41.4940 C.2    49  GLY49       0.2638
     78  O         35.9180  -31.6050  -41.5800 O.2    49  GLY49      -0.2714
     79  N         33.8920  -31.8980  -40.7370 N.am   50  ASP50      -0.1971
     80  CA        34.0440  -30.7170  -39.8590 C.3    50  ASP50       0.1709
     81  C         34.2400  -31.2390  -38.4320 C.2    50  ASP50       0.2293
     82  O         34.4800  -32.4210  -38.2400 O.2    50  ASP50      -0.2864
     83  CB        32.8910  -29.7270  -39.9760 C.3    50  ASP50       0.1436
     84  CG        31.5860  -30.2880  -39.4670 C.2    50  ASP50       0.3671
     85  OD1       31.5160  -31.4520  -39.0590 O.co2  50  ASP50      -0.2456
     86  OD2       30.6100  -29.5380  -39.5210 O.co2  50  ASP50      -0.2456
     87  N         32.2780  -31.7810  -35.9250 N.3    52  ALA52      -0.1245
     88  CA        31.1480  -32.3630  -35.1710 C.3    52  ALA52       0.1562
     89  C         31.4070  -33.7410  -34.6210 C.2    52  ALA52       0.2260
     90  O         30.9940  -34.0450  -33.5050 O.2    52  ALA52      -0.2867
     91  CB        29.8600  -32.4190  -36.0150 C.3    52  ALA52       0.0290
     92  N         31.6190  -34.3770  -30.6130 N.3    56  THR56      -0.1218
     93  CA        30.6420  -35.2590  -29.9840 C.3    56  THR56       0.1862
     94  C         31.3270  -36.2930  -29.0850 C.2    56  THR56       0.2287
     95  O         30.8510  -36.5860  -27.9900 O.2    56  THR56      -0.2866
     96  CB        29.7710  -35.9430  -31.0810 C.3    56  THR56       0.1770
     97  OG1       29.0060  -34.9230  -31.7420 O.3    56  THR56      -0.2211
     98  CG2       28.8430  -36.9330  -30.5190 C.3    56  THR56       0.0375
     99  N         32.4580  -34.3000  -25.9620 N.3    59  ARG59      -0.1231
    100  CA        31.3370  -33.9650  -25.0540 C.3    59  ARG59       0.1694
    101  C         30.9090  -35.1810  -24.2780 C.2    59  ARG59       0.2591
    102  O         30.6340  -35.1040  -23.1010 O.2    59  ARG59      -0.2718
    103  CB        30.1190  -33.4690  -25.8270 C.3    59  ARG59       0.0321
    104  CG        29.2960  -32.3490  -25.2240 C.3    59  ARG59       0.0489
    105  CD        28.1260  -31.9860  -26.1450 C.3    59  ARG59       0.2205
    106  NE        28.6290  -31.2290  -27.3190 N.pl3  59  ARG59      -0.0865
    107  CZ        28.6930  -31.6920  -28.5810 C.cat  59  ARG59       0.5346
    108  NH1       28.2580  -32.9220  -28.9280 N.pl3  59  ARG59       0.1354
    109  NH2       29.1900  -30.9150  -29.5250 N.pl3  59  ARG59       0.1354
    110  N         30.8440  -36.3260  -24.9550 N.am   60  MET60      -0.1979
    111  CA        30.4050  -37.5630  -24.3310 C.3    60  MET60       0.1605
    112  C         31.3480  -38.1030  -23.2570 C.2    60  MET60       0.2287
    113  O         30.9470  -38.9750  -22.4480 O.2    60  MET60      -0.2864
    114  CB        30.1150  -38.6280  -25.3670 C.3    60  MET60       0.0413
    115  CG        28.8420  -38.3100  -26.1670 C.3    60  MET60       0.0598
    116  SD        28.3070  -39.6870  -27.2130 S.3    60  MET60      -0.1393
    117  CE        29.7440  -39.9730  -28.2340 C.3    60  MET60       0.0692
    118  N         29.8290  -32.2920  -18.6610 N.3    65  SER65      -0.1202
    119  CA        28.8200  -32.2040  -19.7340 C.3    65  SER65       0.2020
    120  C         27.7160  -33.2400  -19.6500 C.2    65  SER65       0.2618
    121  O         26.5560  -32.8960  -19.7730 O.2    65  SER65      -0.2717
    122  CB        29.5040  -32.3090  -21.0720 C.3    65  SER65       0.2103
    123  OG        30.3590  -31.1960  -21.2440 O.3    65  SER65      -0.2182
    124  N         28.1010  -34.5040  -19.5120 N.am   66  LEU66      -0.1979
    125  CA        27.1650  -35.6050  -19.4200 C.3    66  LEU66       0.1596
    126  C         27.0280  -36.0720  -17.9810 C.2    66  LEU66       0.2287
    127  O         28.0310  -36.3520  -17.3240 O.2    66  LEU66      -0.2864
    128  CB        27.5910  -36.7810  -20.2870 C.3    66  LEU66       0.0297
    129  CG        26.8630  -36.7740  -21.6410 C.3    66  LEU66       0.0022
    130  CD1       27.2230  -35.5220  -22.4330 C.3    66  LEU66       0.0001
    131  CD2       27.1580  -38.0150  -22.4210 C.3    66  LEU66       0.0001
    132  N         29.1860  -41.3590  -21.7130 N.3    70  LEU70      -0.1245
    133  CA        29.0770  -42.5030  -22.6590 C.3    70  LEU70       0.1561
    134  C         30.4330  -42.9660  -23.2530 C.2    70  LEU70       0.2260
    135  O         30.5670  -44.0890  -23.7020 O.2    70  LEU70      -0.2867
    136  CB        28.0860  -42.1690  -23.7680 C.3    70  LEU70       0.0270
    137  CG        26.6900  -41.8610  -23.2330 C.3    70  LEU70       0.0019
    138  CD1       25.7710  -41.4790  -24.3740 C.3    70  LEU70       0.0001
    139  CD2       26.0800  -43.0370  -22.4420 C.3    70  LEU70       0.0001
    140  N         20.6540  -38.2440  -19.5510 N.3   137  ASN137     -0.1225
    141  CA        21.6590  -37.3310  -20.1080 C.3   137  ASN137      0.1785
    142  C         21.1270  -36.0230  -20.7500 C.2   137  ASN137      0.2598
    143  O         21.9160  -35.0690  -20.9530 O.2   137  ASN137     -0.2718
    144  CB        22.5800  -38.0510  -21.0980 C.3   137  ASN137      0.1169
    145  CG        23.7160  -38.7660  -20.4010 C.2   137  ASN137      0.2627
    146  OD1       24.2960  -38.2260  -19.4470 O.2   137  ASN137     -0.2716
    147  ND2       23.9880  -40.0060  -20.8050 N.am  137  ASN137     -0.0877
    148  N         19.8440  -35.9950  -21.0920 N.am  138  GLY138     -0.1942
    149  CA        19.2000  -34.7950  -21.6010 C.3   138  GLY138      0.2014
    150  C         19.5520  -34.5990  -23.0550 C.2   138  GLY138      0.2640
    151  O         20.1750  -35.4710  -23.6560 O.2   138  GLY138     -0.2714
    152  N         19.1890  -33.4500  -23.6020 N.am  139  SER139     -0.1935
    153  CA        19.5110  -33.0940  -24.9820 C.3   139  SER139      0.2055
    154  C         19.2660  -31.6030  -25.2130 C.2   139  SER139      0.2643
    155  O         18.4600  -31.0050  -24.5500 O.2   139  SER139     -0.2714
    156  CB        18.6230  -33.8570  -25.9790 C.3   139  SER139      0.2130
    157  OG        19.1530  -33.7710  -27.3180 O.3   139  SER139     -0.2179
    158  N         19.9700  -31.0130  -26.1630 N.am  140  SER140     -0.1949
    159  CA        19.5750  -29.6880  -26.6320 C.3   140  SER140      0.1924
    160  C         19.9080  -29.5020  -28.1020 C.2   140  SER140      0.2314
    161  O         20.6800  -30.2620  -28.6760 O.2   140  SER140     -0.2863
    162  CB        20.1790  -28.5740  -25.7640 C.3   140  SER140      0.2116
    163  OG        21.5670  -28.6920  -25.6900 O.3   140  SER140     -0.2180
    164  N         16.2340  -30.5190  -23.0010 N.3   146  ILE146     -0.1245
    165  CA        15.8570  -31.4980  -21.9700 C.3   146  ILE146      0.1561
    166  C         17.0350  -31.6400  -21.0200 C.2   146  ILE146      0.2260
    167  O         18.1190  -31.9400  -21.4550 O.2   146  ILE146     -0.2867
    168  CB        15.5050  -32.8810  -22.5620 C.3   146  ILE146      0.0252
    169  CG1       14.2930  -32.7840  -23.4910 C.3   146  ILE146      0.0019
    170  CG2       15.1600  -33.8590  -21.4420 C.3   146  ILE146      0.0019
    171  CD1       14.0940  -33.9840  -24.4160 C.3   146  ILE146      0.0001
    172  N         24.7600  -25.6290  -14.6350 N.3   217  TYR217     -0.1227
    173  CA        25.0260  -26.4610  -15.8140 C.3   217  TYR217      0.1736
    174  C         25.2210  -25.5910  -17.0440 C.2   217  TYR217      0.2595
    175  O         24.5280  -24.5750  -17.1960 O.2   217  TYR217     -0.2718
    176  CB        23.8220  -27.3650  -15.9990 C.3   217  TYR217      0.0548
    177  CG        23.9110  -28.4130  -17.0840 C.ar  217  TYR217     -0.0200
    178  CD1       25.0060  -29.2540  -17.1960 C.ar  217  TYR217     -0.0009
    179  CD2       22.8560  -28.5830  -17.9760 C.ar  217  TYR217     -0.0009
    180  CE1       25.0530  -30.2130  -18.1870 C.ar  217  TYR217      0.0417
    181  CE2       22.8930  -29.5380  -18.9570 C.ar  217  TYR217      0.0417
    182  CZ        23.9710  -30.3570  -19.0630 C.ar  217  TYR217      0.1957
    183  OH        23.9390  -31.3200  -20.0730 O.3   217  TYR217     -0.2866
    184  N         26.1920  -25.9730  -17.8850 N.am  218  GLN218     -0.1979
    185  CA        26.5400  -25.2750  -19.1210 C.3   218  GLN218      0.1601
    186  C         27.1450  -23.8750  -18.9550 C.2   218  GLN218      0.2287
    187  O         27.3900  -23.1920  -19.9440 O.2   218  GLN218     -0.2864
    188  CB        25.3490  -25.2030  -20.0650 C.3   218  GLN218      0.0394
    189  CG        24.7680  -26.5760  -20.3360 C.3   218  GLN218      0.0908
    190  CD        23.5290  -26.5350  -21.2030 C.2   218  GLN218      0.2608
    191  OE1       22.4680  -26.0610  -20.8040 O.2   218  GLN218     -0.2717
    192  NE2       23.6690  -27.0070  -22.4010 N.am  218  GLN218     -0.0878
@<TRIPOS>BOND
     1    61    60    2
     2    62    63    1
     3    62    59    1
     4    63    64    1
     5    73    71   ar
     6    73    74   ar
     7    60    59    1
     8    60    65   am
     9    71    70   ar
    10    59    58    1
    11    64    58    1
    12    74    72   ar
    13    43    42    2
    14    58    50   am
    15    66    65    1
    16    66    69    1
    17    66    67    1
    18    70    72   ar
    19    70    69    1
    20    75    67   am
    21    75    76    1
    22    46    44    1
    23    42    41    1
    24    67    68    2
    25    76    77    1
    26    50    51    2
    27    50    49    1
    28    78    77    2
    29    77    79   am
    30    44    41    1
    31    44    45    1
    32    41    40    1
    33    48    49    1
    34    49    52    1
    35    79    80    1
    36    45    47    1
    37    83    80    1
    38    83    84    1
    39    80    81    1
    40    52    53    1
    41    53    55   ar
    42    53    54   ar
    43    86    84   ar
    44    55    57   ar
    45    84    85   ar
    46    54    56   ar
    47    57    56   ar
    48    81    82    2
    49     1     2    1
    50     5     2    1
    51    91    88    1
    52    87    88    1
    53     2     3    1
    54    23    24    1
    55    88    89    1
    56    27    29    1
    57    27    24    1
    58    27    28    1
    59    24    25    1
    60    89    90    2
    61     3     4    2
    62    26    25    2
    63    25    30   am
    64    16    17    2
    65    16    15    1
    66    30    31    1
    67    18    15    1
    68    18    19    1
    69    15    14    1
    70    20    19    1
    71    20    21    1
    72    97    96    1
    73    32    31    1
    74    32    33    2
    75    31    34    1
    76     9     8    2
    77    96    98    1
    78    96    93    1
    79    14     8   am
    80    22    21    1
    81    92    93    1
    82     8     7    1
    83    36    38   ar
    84    36    35   ar
    85    34    35    1
    86    93    94    1
    87    38    39   ar
    88    35    37   ar
    89    10     7    1
    90    10    11    1
    91   109   107    1
    92     7     6    1
    93    94    95    2
    94    12    11    1
    95    39    37   ar
    96   108   107    1
    97   161   160    2
    98   107   106    2
    99    11    13    1
   100   117   116    1
   101   160   159    1
   102   106   105    1
   103   157   156    1
   104   116   115    1
   105   159   158    1
   106   159   162    1
   107   115   114    1
   108   158   154   am
   109   105   104    1
   110   156   153    1
   111    99   100    1
   112   103   104    1
   113   103   100    1
   114   162   163    1
   115   114   111    1
   116   154   153    1
   117   154   155    2
   118   100   101    1
   119   153   152    1
   120   110   111    1
   121   110   101   am
   122   171   169    1
   123   138   137    1
   124   111   112    1
   125   101   102    2
   126   136   137    1
   127   136   133    1
   128   135   134    2
   129   151   150    2
   130   152   150   am
   131   169   168    1
   132   112   113    2
   133   134   133    1
   134   137   139    1
   135   150   149    1
   136   164   165    1
   137   133   132    1
   138   168   165    1
   139   168   170    1
   140   130   129    1
   141   131   129    1
   142   192   190   am
   143   165   166    1
   144   129   128    1
   145   149   148    1
   146   167   166    2
   147   123   122    1
   148   190   191    2
   149   190   189    1
   150   144   145    1
   151   144   141    1
   152   148   142   am
   153   122   119    1
   154   143   142    2
   155   147   145   am
   156   142   141    1
   157   145   146    2
   158   189   188    1
   159   128   125    1
   160   141   140    1
   161   183   182    1
   162   188   185    1
   163   187   186    2
   164   121   120    2
   165   119   120    1
   166   119   118    1
   167   120   124   am
   168   124   125    1
   169   125   126    1
   170   185   186    1
   171   185   184    1
   172   182   181   ar
   173   182   180   ar
   174   181   179   ar
   175   180   178   ar
   176   126   127    2
   177   179   177   ar
   178   184   174   am
   179   175   174    2
   180   178   177   ar
   181   177   176    1
   182   174   173    1
   183   176   173    1
   184   173   172    1
