@<TRIPOS>MOLECULE
tmp/4ckqA00.pdb
 163 165 0 0 0
SMALL
GASTEIGER

@<TRIPOS>ATOM
      1  N          5.9400   36.3070   12.9000 N.3    27  TRP27      -0.1241
      2  CA         5.8100   37.7510   13.2300 C.3    27  TRP27       0.1605
      3  C          4.9810   38.5150   12.2130 C.2    27  TRP27       0.2264
      4  O          4.2980   39.4920   12.6040 O.2    27  TRP27      -0.2867
      5  CB         7.1880   38.4050   13.3580 C.3    27  TRP27       0.0550
      6  CG         7.9720   38.0760   14.5880 C.ar   27  TRP27       0.0003
      7  CD1        7.5010   37.3520   15.6880 C.ar   27  TRP27       0.0946
      8  CD2        9.3180   38.4960   14.9230 C.ar   27  TRP27       0.0152
      9  NE1        8.4920   37.2730   16.6210 N.ar   27  TRP27      -0.2442
     10  CE2        9.6100   37.9460   16.1980 C.ar   27  TRP27       0.0810
     11  CE3       10.3000   39.2320   14.2650 C.ar   27  TRP27       0.0012
     12  CZ2       10.8320   38.1940   16.8350 C.ar   27  TRP27       0.0191
     13  CZ3       11.5310   39.4440   14.8740 C.ar   27  TRP27       0.0001
     14  CH2       11.7670   38.9390   16.1710 C.ar   27  TRP27       0.0015
     15  N         16.3100   33.3120   17.6460 N.3    85  TRP85      -0.1241
     16  CA        16.2240   34.5180   18.4630 C.3    85  TRP85       0.1605
     17  C         16.2500   34.1100   19.9540 C.2    85  TRP85       0.2264
     18  O         16.9090   34.8290   20.7650 O.2    85  TRP85      -0.2867
     19  CB        14.9570   35.3350   18.1260 C.3    85  TRP85       0.0550
     20  CG        15.1590   36.4000   17.1120 C.ar   85  TRP85       0.0003
     21  CD1       15.0390   37.7760   17.3450 C.ar   85  TRP85       0.0946
     22  CD2       15.4210   36.2590   15.7070 C.ar   85  TRP85       0.0152
     23  NE1       15.2440   38.4530   16.1680 N.ar   85  TRP85      -0.2442
     24  CE2       15.4830   37.5750   15.1490 C.ar   85  TRP85       0.0810
     25  CE3       15.6170   35.1600   14.8540 C.ar   85  TRP85       0.0012
     26  CZ2       15.7850   37.7950   13.7910 C.ar   85  TRP85       0.0191
     27  CZ3       15.8860   35.4090   13.4720 C.ar   85  TRP85       0.0001
     28  CH2       15.9280   36.7330   12.9940 C.ar   85  TRP85       0.0015
     29  N         20.8540   35.1300   16.7080 N.3   139  ASN139     -0.1225
     30  CA        20.6450   36.4450   16.1220 C.3   139  ASN139      0.1785
     31  C         21.0250   37.5920   17.0850 C.2   139  ASN139      0.2597
     32  O         20.4450   37.6970   18.1450 O.2   139  ASN139     -0.2718
     33  CB        19.1700   36.6260   15.7630 C.3   139  ASN139      0.1169
     34  CG        18.9360   38.0040   15.1490 C.2   139  ASN139      0.2627
     35  OD1       19.3270   38.1800   13.9790 O.2   139  ASN139     -0.2716
     36  ND2       18.3680   38.9480   15.8470 N.am  139  ASN139     -0.0877
     37  N         21.9800   38.4590   16.6840 N.am  140  GLU140     -0.1979
     38  CA        22.2900   39.6650   17.5110 C.3   140  GLU140      0.1602
     39  C         22.4410   39.3830   19.0110 C.2   140  GLU140      0.2287
     40  O         21.7310   39.9790   19.8400 O.2   140  GLU140     -0.2864
     41  CB        21.2980   40.7850   17.2420 C.3   140  GLU140      0.0415
     42  CG        21.3070   41.1940   15.7360 C.3   140  GLU140      0.1163
     43  CD        20.5560   42.4430   15.4200 C.2   140  GLU140      0.3649
     44  OE1       20.0390   43.1130   16.3200 O.co2 140  GLU140     -0.2457
     45  OE2       20.5000   42.7920   14.1750 O.co2 140  GLU140     -0.2457
     46  N         22.7110   42.6370   20.9880 N.3   143  TYR143     -0.1241
     47  CA        21.6480   43.6310   20.9380 C.3   143  TYR143      0.1605
     48  C         20.3480   42.9630   21.3280 C.2   143  TYR143      0.2264
     49  O         19.3850   42.9560   20.5680 O.2   143  TYR143     -0.2867
     50  CB        21.5350   44.2430   19.5250 C.3   143  TYR143      0.0534
     51  CG        20.7940   45.5920   19.4730 C.ar  143  TYR143     -0.0201
     52  CD1       21.4500   46.7580   19.7190 C.ar  143  TYR143     -0.0009
     53  CD2       19.4390   45.6290   19.1770 C.ar  143  TYR143     -0.0009
     54  CE1       20.7810   47.9560   19.6510 C.ar  143  TYR143      0.0417
     55  CE2       18.7740   46.8360   19.1130 C.ar  143  TYR143      0.0417
     56  CZ        19.4510   47.9620   19.3890 C.ar  143  TYR143      0.1957
     57  OH        18.7440   49.1660   19.3250 O.3   143  TYR143     -0.2866
     58  N         15.3700   42.4860   23.5320 N.3   146  GLU146     -0.1231
     59  CA        14.1110   41.7980   23.2650 C.3   146  GLU146      0.1699
     60  C         14.2630   40.3040   22.9490 C.2   146  GLU146      0.2592
     61  O         13.3030   39.6970   22.5160 O.2   146  GLU146     -0.2718
     62  CB        13.2940   42.4890   22.1990 C.3   146  GLU146      0.0402
     63  CG        12.9560   43.9310   22.5950 C.3   146  GLU146      0.1161
     64  CD        11.9250   44.6120   21.7080 C.2   146  GLU146      0.3649
     65  OE1       11.4770   44.0240   20.7400 O.co2 146  GLU146     -0.2457
     66  OE2       11.6360   45.7940   22.0300 O.co2 146  GLU146     -0.2457
     67  N         15.4180   39.7380   23.2280 N.am  147  TRP147     -0.1976
     68  CA        15.6680   38.3010   22.9810 C.3   147  TRP147      0.1640
     69  C         16.8150   37.7930   23.8770 C.2   147  TRP147      0.2290
     70  O         16.8200   38.2130   25.0630 O.2   147  TRP147     -0.2864
     71  CB        15.8150   37.9980   21.4770 C.3   147  TRP147      0.0576
     72  CG        16.8200   38.8420   20.6630 C.ar  147  TRP147      0.0006
     73  CD1       18.2220   38.7620   20.6510 C.ar  147  TRP147      0.0946
     74  CD2       16.4810   39.9530   19.8210 C.ar  147  TRP147      0.0152
     75  NE1       18.7330   39.7230   19.8010 N.ar  147  TRP147     -0.2442
     76  CE2       17.7020   40.4710   19.2860 C.ar  147  TRP147      0.0810
     77  CE3       15.2920   40.4940   19.4200 C.ar  147  TRP147      0.0012
     78  CZ2       17.7340   41.5390   18.3580 C.ar  147  TRP147      0.0191
     79  CZ3       15.2960   41.5600   18.5370 C.ar  147  TRP147      0.0001
     80  CH2       16.5250   42.0500   17.9830 C.ar  147  TRP147      0.0015
     81  N         25.0300   42.8020   15.7740 N.3   176  PHE176     -0.1227
     82  CA        24.1320   43.8040   15.1360 C.3   176  PHE176      0.1736
     83  C         24.8310   44.8130   14.2250 C.2   176  PHE176      0.2595
     84  O         24.2050   45.3570   13.3040 O.2   176  PHE176     -0.2718
     85  CB        23.2090   44.5140   16.1940 C.3   176  PHE176      0.0547
     86  CG        23.8610   45.6590   16.9520 C.ar  176  PHE176     -0.0202
     87  CD1       24.7390   45.4530   17.9780 C.ar  176  PHE176     -0.0042
     88  CD2       23.6150   46.9810   16.5500 C.ar  176  PHE176     -0.0042
     89  CE1       25.3020   46.5250   18.6910 C.ar  176  PHE176     -0.0003
     90  CE2       24.2410   48.0560   17.2310 C.ar  176  PHE176     -0.0003
     91  CZ        25.0530   47.8200   18.2960 C.ar  176  PHE176     -0.0000
     92  N         26.1210   45.0560   14.4920 N.am  177  GLN177     -0.1979
     93  CA        26.8870   46.1200   13.8400 C.3   177  GLN177      0.1601
     94  C         28.2670   45.6290   13.3910 C.2   177  GLN177      0.2287
     95  O         29.1560   46.4710   13.1740 O.2   177  GLN177     -0.2864
     96  CB        27.0120   47.3070   14.8510 C.3   177  GLN177      0.0394
     97  CG        27.5610   48.6010   14.3400 C.3   177  GLN177      0.0908
     98  CD        27.3140   49.6940   15.3760 C.2   177  GLN177      0.2608
     99  OE1       28.1650   49.9420   16.2770 O.2   177  GLN177     -0.2717
    100  NE2       26.1890   50.2760   15.3400 N.am  177  GLN177     -0.0878
    101  N         23.7650   47.2980   10.9090 N.3   204  TYR204     -0.1227
    102  CA        23.0770   48.4570   11.4640 C.3   204  TYR204      0.1736
    103  C         24.0580   49.4600   12.0810 C.2   204  TYR204      0.2596
    104  O         24.6410   49.1910   13.1360 O.2   204  TYR204     -0.2718
    105  CB        22.0120   48.0230   12.4920 C.3   204  TYR204      0.0548
    106  CG        20.8900   47.1920   11.8880 C.ar  204  TYR204     -0.0200
    107  CD1       19.8920   47.7780   11.1310 C.ar  204  TYR204     -0.0009
    108  CD2       20.8410   45.8030   12.0630 C.ar  204  TYR204     -0.0009
    109  CE1       18.8580   47.0480   10.5730 C.ar  204  TYR204      0.0417
    110  CE2       19.8020   45.0360   11.5250 C.ar  204  TYR204      0.0417
    111  CZ        18.8260   45.6510   10.7600 C.ar  204  TYR204      0.1957
    112  OH        17.7650   44.9040   10.2050 O.3   204  TYR204     -0.2866
    113  N         24.1840   50.6430   11.4360 N.am  205  GLY205     -0.1957
    114  CA        25.1530   51.6740   11.8980 C.3   205  GLY205      0.1869
    115  C         26.6020   51.3690   11.6130 C.2   205  GLY205      0.2309
    116  O         27.5270   52.0220   12.1680 O.2   205  GLY205     -0.2863
    117  N         21.8520   40.4990    7.6770 N.3   229  GLU229     -0.1245
    118  CA        20.7050   41.2810    7.9030 C.3   229  GLU229      0.1567
    119  C         21.0190   42.7800    7.9680 C.2   229  GLU229      0.2260
    120  O         21.9180   43.1990    8.7030 O.2   229  GLU229     -0.2867
    121  CB        20.0180   40.9350    9.2660 C.3   229  GLU229      0.0388
    122  CG        18.6020   41.5650    9.4430 C.3   229  GLU229      0.1160
    123  CD        18.0490   41.5320   10.8720 C.2   229  GLU229      0.3649
    124  OE1       18.1000   40.4520   11.4810 O.co2 229  GLU229     -0.2457
    125  OE2       17.5570   42.5600   11.2950 O.co2 229  GLU229     -0.2457
    126  N         18.4920   46.7450    7.0450 N.3   231  TYR231     -0.1241
    127  CA        17.7640   47.6600    6.1330 C.3   231  TYR231      0.1605
    128  C         18.5270   48.9890    6.2100 C.2   231  TYR231      0.2264
    129  O         19.0760   49.3500    7.2750 O.2   231  TYR231     -0.2867
    130  CB        16.2830   47.8300    6.5570 C.3   231  TYR231      0.0534
    131  CG        16.0740   48.1850    8.0110 C.ar  231  TYR231     -0.0201
    132  CD1       16.2160   49.5140    8.4650 C.ar  231  TYR231     -0.0009
    133  CD2       15.5980   47.2540    8.9350 C.ar  231  TYR231     -0.0009
    134  CE1       16.0270   49.8690    9.7790 C.ar  231  TYR231      0.0417
    135  CE2       15.3870   47.6290   10.2730 C.ar  231  TYR231      0.0417
    136  CZ        15.5960   48.9440   10.6890 C.ar  231  TYR231      0.1957
    137  OH        15.3720   49.4010   12.0000 O.3   231  TYR231     -0.2866
    138  N         16.5930   42.4570    5.6400 N.3   268  TRP268     -0.1241
    139  CA        15.5070   42.0840    6.5170 C.3   268  TRP268      0.1605
    140  C         14.2380   41.7200    5.6810 C.2   268  TRP268      0.2264
    141  O         14.3850   41.1030    4.6080 O.2   268  TRP268     -0.2867
    142  CB        15.2720   43.1840    7.5600 C.3   268  TRP268      0.0550
    143  CG        14.3230   42.9220    8.6980 C.ar  268  TRP268      0.0003
    144  CD1       13.3350   43.7870    9.0900 C.ar  268  TRP268      0.0946
    145  CD2       14.2350   41.7840    9.5790 C.ar  268  TRP268      0.0152
    146  NE1       12.6530   43.2700   10.1960 N.ar  268  TRP268     -0.2442
    147  CE2       13.1620   42.0330   10.4950 C.ar  268  TRP268      0.0810
    148  CE3       14.9400   40.5900    9.7120 C.ar  268  TRP268      0.0012
    149  CZ2       12.8180   41.1420   11.5320 C.ar  268  TRP268      0.0191
    150  CZ3       14.5910   39.7190   10.7260 C.ar  268  TRP268      0.0001
    151  CH2       13.4980   39.9570   11.6100 C.ar  268  TRP268      0.0015
    152  N          9.0880   49.3880    3.4250 N.3   274  TYR274     -0.1241
    153  CA        10.4360   49.9250    3.2590 C.3   274  TYR274      0.1605
    154  C         11.4230   48.9020    2.6480 C.2   274  TYR274      0.2264
    155  O         12.6350   49.0810    2.7160 O.2   274  TYR274     -0.2867
    156  CB        10.9850   50.4190    4.6310 C.3   274  TYR274      0.0534
    157  CG        11.0700   49.3600    5.7140 C.ar  274  TYR274     -0.0201
    158  CD1        9.9730   49.1090    6.5310 C.ar  274  TYR274     -0.0009
    159  CD2       12.2100   48.6050    5.9120 C.ar  274  TYR274     -0.0009
    160  CE1        9.9820   48.1130    7.4900 C.ar  274  TYR274      0.0417
    161  CE2       12.2570   47.6330    6.8740 C.ar  274  TYR274      0.0417
    162  CZ        11.1410   47.3230    7.6610 C.ar  274  TYR274      0.1957
    163  OH        11.2120   46.2870    8.5770 O.3   274  TYR274     -0.2866
@<TRIPOS>BOND
     1   154   155    2
     2   154   153    1
     3   153   152    1
     4   153   156    1
     5   141   140    2
     6   156   157    1
     7   138   139    1
     8   140   139    1
     9   157   159   ar
    10   157   158   ar
    11   159   161   ar
    12   127   128    1
    13   127   130    1
    14   127   126    1
    15   128   129    2
    16   139   142    1
    17   158   160   ar
    18   130   131    1
    19   161   162   ar
    20   160   162   ar
    21   142   143    1
    22   162   163    1
    23   117   118    1
    24   118   119    1
    25   118   121    1
    26   119   120    2
    27   131   132   ar
    28   131   133   ar
    29   132   134   ar
    30   143   144   ar
    31   143   145   ar
    32   133   135   ar
    33   144   146   ar
    34   121   122    1
    35   122   123    1
    36   145   148   ar
    37   145   147   ar
    38   148   150   ar
    39   134   136   ar
    40   146   147   ar
    41   112   111    1
    42   135   136   ar
    43   147   149   ar
    44   109   111   ar
    45   109   107   ar
    46   136   137    1
    47   150   151   ar
    48   111   110   ar
    49   123   125   ar
    50   123   124   ar
    51   101   102    1
    52   107   106   ar
    53   113   114    1
    54   113   103   am
    55   102   103    1
    56   102   105    1
    57   110   108   ar
    58   149   151   ar
    59   115   114    1
    60   115   116    2
    61   106   108   ar
    62   106   105    1
    63   103   104    2
    64     3     4    2
    65     3     2    1
    66     1     2    1
    67    28    27   ar
    68    28    26   ar
    69    95    94    2
    70     2     5    1
    71    84    83    2
    72     5     6    1
    73    94    93    1
    74    27    25   ar
    75    26    24   ar
    76    93    92    1
    77    93    96    1
    78    35    34    2
    79    45    43   ar
    80    83    92   am
    81    83    82    1
    82    11    13   ar
    83    11     8   ar
    84    97    96    1
    85    97    98    1
    86     6     8   ar
    87     6     7   ar
    88    25    22   ar
    89    13    14   ar
    90     8    10   ar
    91    82    81    1
    92    82    85    1
    93    34    33    1
    94    34    36   am
    95    24    22   ar
    96    24    23   ar
    97   100    98   am
    98    98    99    2
    99    43    42    1
   100    43    44   ar
   101     7     9   ar
   102    22    20   ar
   103    42    41    1
   104    33    30    1
   105    30    29    1
   106    30    31    1
   107    23    21   ar
   108    14    12   ar
   109    85    86    1
   110    10     9   ar
   111    10    12   ar
   112    88    86   ar
   113    88    90   ar
   114    37    31   am
   115    37    38    1
   116    86    87   ar
   117    31    32    2
   118    20    21   ar
   119    20    19    1
   120    90    91   ar
   121    41    38    1
   122    38    39    1
   123    15    16    1
   124    87    89   ar
   125    80    78   ar
   126    80    79   ar
   127    19    16    1
   128    91    89   ar
   129    78    76   ar
   130    16    17    1
   131    79    77   ar
   132    39    40    2
   133    55    53   ar
   134    55    56   ar
   135    53    51   ar
   136    76    75   ar
   137    76    74   ar
   138    57    56    1
   139    56    54   ar
   140    77    74   ar
   141    51    50    1
   142    51    52   ar
   143    50    47    1
   144    54    52   ar
   145    75    73   ar
   146    74    72   ar
   147    17    18    2
   148    49    48    2
   149    73    72   ar
   150    72    71    1
   151    65    64   ar
   152    47    46    1
   153    47    48    1
   154    71    68    1
   155    64    66   ar
   156    64    63    1
   157    62    63    1
   158    62    59    1
   159    61    60    2
   160    60    67   am
   161    60    59    1
   162    68    67    1
   163    68    69    1
   164    59    58    1
   165    69    70    2
