@<TRIPOS>MOLECULE
tmp/4ckrA00.pdb
 223 213 0 0 0
SMALL
GASTEIGER

@<TRIPOS>ATOM
      1  N         12.3070   32.0180    3.8040 N.3    17  LEU17      -0.1245
      2  CA        11.3130   30.9490    3.9150 C.3    17  LEU17       0.1561
      3  C         10.1140   31.1910    3.0070 C.2    17  LEU17       0.2260
      4  O          9.4860   30.2610    2.5330 O.2    17  LEU17      -0.2867
      5  CB        10.8150   30.8210    5.3540 C.3    17  LEU17       0.0270
      6  CG        11.8460   30.2970    6.3280 C.3    17  LEU17       0.0019
      7  CD1       11.3310   30.4300    7.7500 C.3    17  LEU17       0.0001
      8  CD2       12.1920   28.8450    6.0050 C.3    17  LEU17       0.0001
      9  N          9.4620   36.3160    4.9730 N.3    25  VAL25      -0.1245
     10  CA         9.8480   35.5930    6.1630 C.3    25  VAL25       0.1561
     11  C         11.2340   34.9870    5.9220 C.2    25  VAL25       0.2260
     12  O         11.4970   34.3960    4.8760 O.2    25  VAL25      -0.2867
     13  CB         8.7790   34.5180    6.5440 C.3    25  VAL25       0.0252
     14  CG1        9.1140   33.8390    7.8590 C.3    25  VAL25       0.0019
     15  CG2        7.4070   35.1540    6.6740 C.3    25  VAL25       0.0019
     16  N         12.2510   32.3470   13.2480 N.3    54  ALA54      -0.1231
     17  CA        11.5960   32.9150   12.0700 C.3    54  ALA54       0.1694
     18  C         11.3750   34.4130   12.2500 C.2    54  ALA54       0.2592
     19  O         10.9640   34.8670   13.3170 O.2    54  ALA54      -0.2718
     20  CB        10.2760   32.2240   11.7850 C.3    54  ALA54       0.0304
     21  N         11.6380   35.1660   11.1850 N.am   55  VAL55      -0.1966
     22  CA        11.5360   36.6190   11.1930 C.3    55  VAL55       0.1727
     23  C         10.6650   37.0850   10.0260 C.2    55  VAL55       0.2616
     24  O         10.9870   36.8560    8.8570 O.2    55  VAL55      -0.2715
     25  CB        12.9340   37.2740   11.0740 C.3    55  VAL55       0.0290
     26  CG1       12.8670   38.7590   11.4080 C.3    55  VAL55       0.0023
     27  CG2       13.9130   36.5720   12.0010 C.3    55  VAL55       0.0023
     28  N          9.5630   37.7380   10.3690 N.am   56  LYS56      -0.1977
     29  CA         8.6070   38.2700    9.4200 C.3    56  LYS56       0.1596
     30  C          8.9000   39.7510    9.2910 C.2    56  LYS56       0.2287
     31  O          8.8880   40.4730   10.2890 O.2    56  LYS56      -0.2864
     32  CB         7.2030   38.0730    9.9640 C.3    56  LYS56       0.0298
     33  CG         6.0690   38.5820    9.1050 C.3    56  LYS56       0.0038
     34  CD         4.8330   37.7070    9.3260 C.3    56  LYS56       0.0206
     35  CE         3.5300   38.4530    9.1160 C.3    56  LYS56       0.1093
     36  NZ         2.3670   37.5340    9.3300 N.3    56  LYS56      -0.1314
     37  N         -0.7530   43.3790   14.0510 N.3    73  GLU73      -0.1245
     38  CA        -0.3580   41.9880   14.2520 C.3    73  GLU73       0.1567
     39  C          0.7200   41.8680   15.3290 C.2    73  GLU73       0.2260
     40  O          0.7340   40.9110   16.0990 O.2    73  GLU73      -0.2867
     41  CB         0.1190   41.3550   12.9380 C.3    73  GLU73       0.0388
     42  CG         0.4070   39.8700   13.0740 C.3    73  GLU73       0.1160
     43  CD         0.9090   39.2130   11.7980 C.2    73  GLU73       0.3649
     44  OE1        0.5080   39.6450   10.6870 O.co2  73  GLU73      -0.2457
     45  OE2        1.7050   38.2500   11.9250 O.co2  73  GLU73      -0.2457
     46  N         -1.1700   42.1680   18.7010 N.3    76  ILE76      -0.1231
     47  CA        -1.8310   40.8630   18.8820 C.3    76  ILE76       0.1692
     48  C         -0.8550   39.7560   19.3050 C.2    76  ILE76       0.2591
     49  O         -1.0820   39.0870   20.3080 O.2    76  ILE76      -0.2718
     50  CB        -2.5680   40.4340   17.6000 C.3    76  ILE76       0.0266
     51  CG1       -3.8290   41.2960   17.4180 C.3    76  ILE76       0.0019
     52  CG2       -2.9510   38.9660   17.6700 C.3    76  ILE76       0.0020
     53  CD1       -4.5930   41.0270   16.1280 C.3    76  ILE76       0.0001
     54  N          0.2210   39.5840   18.5390 N.am   77  MET77      -0.1979
     55  CA         1.2420   38.5870   18.8380 C.3    77  MET77       0.1605
     56  C          1.8460   38.7640   20.2350 C.2    77  MET77       0.2287
     57  O          2.0970   37.7750   20.9280 O.2    77  MET77      -0.2864
     58  CB         2.3630   38.6130   17.7820 C.3    77  MET77       0.0413
     59  CG         2.0150   37.9730   16.4430 C.3    77  MET77       0.0598
     60  SD         1.4340   36.2730   16.6050 S.3    77  MET77      -0.1393
     61  CE         2.9920   35.4850   17.0030 C.3    77  MET77       0.0692
     62  N         -0.4960   37.0540   22.8210 N.3    80  LEU80      -0.1245
     63  CA        -0.7110   35.5970   22.7910 C.3    80  LEU80       0.1561
     64  C          0.4070   34.8220   23.4870 C.2    80  LEU80       0.2260
     65  O          1.4950   34.6830   22.9730 O.2    80  LEU80      -0.2867
     66  CB        -0.9060   35.0710   21.3590 C.3    80  LEU80       0.0270
     67  CG        -1.9550   35.8350   20.5220 C.3    80  LEU80       0.0019
     68  CD1       -1.9920   35.3530   19.0850 C.3    80  LEU80       0.0001
     69  CD2       -3.3370   35.7890   21.1420 C.3    80  LEU80       0.0001
     70  N         -0.0730   28.2370   20.7740 N.3    85  ILE85      -0.1231
     71  CA        -0.0580   29.3550   19.8380 C.3    85  ILE85       0.1692
     72  C          1.3980   29.6890   19.6000 C.2    85  ILE85       0.2591
     73  O          2.1730   29.7130   20.5320 O.2    85  ILE85      -0.2718
     74  CB        -0.6990   30.6320   20.4200 C.3    85  ILE85       0.0266
     75  CG1       -2.0490   30.3410   21.0700 C.3    85  ILE85       0.0019
     76  CG2       -0.8390   31.7090   19.3470 C.3    85  ILE85       0.0020
     77  CD1       -3.1370   30.0540   20.0990 C.3    85  ILE85       0.0001
     78  N          1.7720   29.9190   18.3490 N.am   86  ILE86      -0.1980
     79  CA         3.1120   30.3930   18.0300 C.3    86  ILE86       0.1595
     80  C          3.4480   31.5660   18.9690 C.2    86  ILE86       0.2287
     81  O          2.5940   32.4010   19.2610 O.2    86  ILE86      -0.2864
     82  CB         3.2020   30.7950   16.5380 C.3    86  ILE86       0.0276
     83  CG1        4.6330   31.1380   16.1150 C.3    86  ILE86       0.0022
     84  CG2        2.2850   31.9650   16.2230 C.3    86  ILE86       0.0022
     85  CD1        5.5850   29.9690   16.2010 C.3    86  ILE86       0.0001
     86  N          8.9080   40.9200   13.2000 N.3   100  MET100     -0.1245
     87  CA         8.3920   40.0530   14.2450 C.3   100  MET100      0.1570
     88  C          9.2190   38.7730   14.2250 C.2   100  MET100      0.2261
     89  O          9.4140   38.1670   13.1650 O.2   100  MET100     -0.2867
     90  CB         6.9430   39.7010   13.9720 C.3   100  MET100      0.0387
     91  CG         5.9610   40.7490   14.4400 C.3   100  MET100      0.0595
     92  SD         4.2520   40.2380   14.1610 S.3   100  MET100     -0.1393
     93  CE         4.2110   40.4020   12.3790 C.3   100  MET100      0.0692
     94  N          9.7490   34.9330   15.7890 N.3   102  THR102     -0.1203
     95  CA         9.1210   33.8050   16.4780 C.3   102  THR102      0.1994
     96  C         10.0670   32.6130   16.6050 C.2   102  THR102      0.2618
     97  O         11.1190   32.5460   15.9600 O.2   102  THR102     -0.2717
     98  CB         7.8430   33.3200   15.7640 C.3   102  THR102      0.1784
     99  OG1        8.1560   32.9080   14.4250 O.3   102  THR102     -0.2211
    100  CG2        6.7970   34.3990   15.7000 C.3   102  THR102      0.0376
    101  N          9.6660   31.6780   17.4630 N.am  103  ASP103     -0.1959
    102  CA        10.2640   30.3490   17.5320 C.3   103  ASP103      0.1840
    103  C         10.2080   29.6550   16.1610 C.2   103  ASP103      0.2622
    104  O          9.2890   29.8810   15.3850 O.2   103  ASP103     -0.2715
    105  CB         9.5570   29.5090   18.6290 C.3   103  ASP103      0.1450
    106  CG         8.0740   29.9250   18.8410 C.2   103  ASP103      0.3671
    107  OD1        7.6900   30.9810   18.2980 O.co2 103  ASP103     -0.2456
    108  OD2        7.2900   29.2150   19.5210 O.co2 103  ASP103     -0.2456
    109  N         11.2160   28.8510   15.8540 N.am  104  TYR104     -0.1960
    110  CA        11.2470   28.0940   14.6140 C.3   104  TYR104      0.1771
    111  C         10.9650   26.6100   14.8730 C.2   104  TYR104      0.2619
    112  O         11.6760   25.9810   15.6370 O.2   104  TYR104     -0.2715
    113  CB        12.5990   28.2230   13.9340 C.3   104  TYR104      0.0574
    114  CG        12.6520   27.4470   12.6490 C.ar  104  TYR104     -0.0198
    115  CD1       11.8220   27.7800   11.5840 C.ar  104  TYR104     -0.0009
    116  CD2       13.5050   26.3610   12.5030 C.ar  104  TYR104     -0.0009
    117  CE1       11.8550   27.0660   10.4040 C.ar  104  TYR104      0.0417
    118  CE2       13.5440   25.6430   11.3260 C.ar  104  TYR104      0.0417
    119  CZ        12.7180   26.0010   10.2860 C.ar  104  TYR104      0.1957
    120  OH        12.7610   25.2850    9.1200 O.3   104  TYR104     -0.2866
    121  N          9.9570   26.0590   14.2060 N.am  105  MET105     -0.1977
    122  CA         9.5390   24.6670   14.4100 C.3   105  MET105      0.1605
    123  C         10.1130   23.8440   13.2930 C.2   105  MET105      0.2287
    124  O          9.6920   23.9560   12.1520 O.2   105  MET105     -0.2864
    125  CB         8.0200   24.5360   14.3840 C.3   105  MET105      0.0413
    126  CG         7.3000   25.6450   15.1170 C.3   105  MET105      0.0598
    127  SD         7.5550   25.5590   16.8880 S.3   105  MET105     -0.1393
    128  CE         7.0440   27.2190   17.2740 C.3   105  MET105      0.0692
    129  N         -7.6390   31.6650   21.9090 N.3   143  LEU143     -0.1245
    130  CA        -7.8970   32.7280   20.9500 C.3   143  LEU143      0.1561
    131  C         -9.2920   33.3320   21.0860 C.2   143  LEU143      0.2260
    132  O         -9.4350   34.5600   21.2040 O.2   143  LEU143     -0.2867
    133  CB        -7.7400   32.2110   19.5310 C.3   143  LEU143      0.0270
    134  CG        -6.3250   32.2170   19.0080 C.3   143  LEU143      0.0019
    135  CD1       -6.3490   31.7520   17.5550 C.3   143  LEU143      0.0001
    136  CD2       -5.7320   33.6210   19.1120 C.3   143  LEU143      0.0001
    137  N        -10.5220   36.9150   19.5740 N.3   148  PHE148     -0.1227
    138  CA        -9.8820   36.8820   18.2650 C.3   148  PHE148      0.1736
    139  C        -10.5080   35.8250   17.3840 C.2   148  PHE148      0.2595
    140  O        -10.7760   34.7080   17.8420 O.2   148  PHE148     -0.2718
    141  CB        -8.3870   36.6300   18.4060 C.3   148  PHE148      0.0547
    142  CG        -7.6530   37.7970   18.9670 C.ar  148  PHE148     -0.0202
    143  CD1       -7.6620   39.0110   18.2920 C.ar  148  PHE148     -0.0042
    144  CD2       -6.9780   37.7060   20.1760 C.ar  148  PHE148     -0.0042
    145  CE1       -7.0080   40.1080   18.8060 C.ar  148  PHE148     -0.0003
    146  CE2       -6.3180   38.8010   20.6930 C.ar  148  PHE148     -0.0003
    147  CZ        -6.3340   40.0060   20.0080 C.ar  148  PHE148     -0.0000
    148  N        -10.7440   36.1950   16.1220 N.am  149  VAL149     -0.1966
    149  CA       -11.1590   35.2410   15.1040 C.3   149  VAL149      0.1727
    150  C         -9.9630   34.8980   14.2180 C.2   149  VAL149      0.2616
    151  O         -9.2900   35.7940   13.7280 O.2   149  VAL149     -0.2715
    152  CB       -12.2870   35.7920   14.2300 C.3   149  VAL149      0.0290
    153  CG1      -12.7590   34.7110   13.2590 C.3   149  VAL149      0.0023
    154  CG2      -13.4510   36.2690   15.0860 C.3   149  VAL149      0.0023
    155  N         -9.7130   33.6060   14.0060 N.am  150  HIS150     -0.1959
    156  CA        -8.6010   33.1650   13.1730 C.3   150  HIS150      0.1787
    157  C         -8.8550   33.4530   11.6910 C.2   150  HIS150      0.2620
    158  O         -8.1000   34.1830   11.0670 O.2   150  HIS150     -0.2715
    159  CB        -8.3190   31.6660   13.3720 C.3   150  HIS150      0.0785
    160  CG        -6.9770   31.2570   12.8580 C.ar  150  HIS150      0.0821
    161  ND1       -6.6640   31.2560   11.5180 N.ar  150  HIS150     -0.2267
    162  CD2       -5.8380   30.9120   13.5060 C.ar  150  HIS150      0.1154
    163  CE1       -5.4000   30.9140   11.3590 C.ar  150  HIS150      0.1986
    164  NE2       -4.8760   30.6940   12.5470 N.ar  150  HIS150     -0.2212
    165  N         -9.9120   32.8430   11.1550 N.am  151  ARG151     -0.1977
    166  CA       -10.3620   32.9660    9.7520 C.3   151  ARG151      0.1597
    167  C         -9.7210   31.9860    8.7370 C.2   151  ARG151      0.2287
    168  O        -10.2040   31.8760    7.6250 O.2   151  ARG151     -0.2864
    169  CB       -10.2440   34.3820    9.2140 C.3   151  ARG151      0.0334
    170  CG       -10.9690   35.4320   10.0210 C.3   151  ARG151      0.0492
    171  CD       -11.2300   36.6180    9.1350 C.3   151  ARG151      0.2205
    172  NE       -12.0380   37.6500    9.7700 N.pl3 151  ARG151     -0.0865
    173  CZ       -12.6710   38.6090    9.0910 C.cat 151  ARG151      0.5346
    174  NH1      -12.6010   38.6460    7.7590 N.pl3 151  ARG151      0.1354
    175  NH2      -13.3920   39.5170    9.7290 N.pl3 151  ARG151      0.1354
    176  N          1.8150   24.3590   13.3020 N.3   159  LEU159     -0.1245
    177  CA         3.2050   23.9730   13.2940 C.3   159  LEU159      0.1561
    178  C          3.4390   22.8600   14.3140 C.2   159  LEU159      0.2260
    179  O          2.7560   22.7880   15.3280 O.2   159  LEU159     -0.2867
    180  CB         4.0710   25.1620   13.6380 C.3   159  LEU159      0.0270
    181  CG         4.0970   26.3410   12.6790 C.3   159  LEU159      0.0019
    182  CD1        4.8240   27.5000   13.3420 C.3   159  LEU159      0.0001
    183  CD2        4.7900   25.9470   11.3880 C.3   159  LEU159      0.0001
    184  N         -0.7700   26.7940   16.7350 N.3   168  ILE168     -0.1231
    185  CA        -1.5640   27.4650   15.7510 C.3   168  ILE168      0.1692
    186  C         -0.7720   28.6750   15.2770 C.2   168  ILE168      0.2592
    187  O         -0.1220   29.3690   16.0700 O.2   168  ILE168     -0.2718
    188  CB        -2.9590   27.8610   16.2990 C.3   168  ILE168      0.0266
    189  CG1       -3.7400   26.5860   16.6670 C.3   168  ILE168      0.0019
    190  CG2       -3.7630   28.6050   15.2430 C.3   168  ILE168      0.0020
    191  CD1       -4.8940   26.8230   17.6130 C.3   168  ILE168      0.0001
    192  N         -0.8140   28.8930   13.9640 N.am  169  ALA169     -0.1966
    193  CA        -0.1310   30.0140   13.3540 C.3   169  ALA169      0.1728
    194  C         -1.0040   30.6480   12.2890 C.2   169  ALA169      0.2616
    195  O         -2.0930   30.1370   11.9500 O.2   169  ALA169     -0.2715
    196  CB         1.2080   29.5760   12.7680 C.3   169  ALA169      0.0334
    197  N         -0.5280   31.7790   11.7930 N.am  170  ASP170     -0.1957
    198  CA        -1.1400   32.4620   10.6590 C.3   170  ASP170      0.1840
    199  C         -0.0600   33.2560    9.9180 C.2   170  ASP170      0.2622
    200  O          0.3920   34.3080   10.3710 O.2   170  ASP170     -0.2715
    201  CB        -2.2760   33.3740   11.1230 C.3   170  ASP170      0.1450
    202  CG        -3.2240   33.7340    9.9930 C.2   170  ASP170      0.3671
    203  OD1       -3.3060   32.9720    8.9980 O.co2 170  ASP170     -0.2456
    204  OD2       -3.9120   34.7630   10.1020 O.co2 170  ASP170     -0.2456
    205  N          0.3670   32.7330    8.7820 N.am  171  PHE171     -0.1974
    206  CA         1.6040   33.1870    8.1490 C.3   171  PHE171      0.1639
    207  C          1.4470   34.4460    7.2850 C.2   171  PHE171      0.2290
    208  O          2.3250   35.3080    7.2810 O.2   171  PHE171     -0.2864
    209  CB         2.2130   32.0440    7.3220 C.3   171  PHE171      0.0560
    210  CG         2.3950   30.7600    8.0940 C.ar  171  PHE171     -0.0200
    211  CD1        3.1910   30.7270    9.2400 C.ar  171  PHE171     -0.0042
    212  CD2        1.7700   29.5970    7.6910 C.ar  171  PHE171     -0.0042
    213  CE1        3.3580   29.5560    9.9580 C.ar  171  PHE171     -0.0003
    214  CE2        1.9280   28.4240    8.4140 C.ar  171  PHE171     -0.0003
    215  CZ         2.7210   28.4070    9.5460 C.ar  171  PHE171     -0.0000
    216  N          1.6140   34.3050    4.0720 N.3   173  MET173     -0.1245
    217  CA         2.5090   34.0820    2.9280 C.3   173  MET173      0.1570
    218  C          1.7240   33.4110    1.8320 C.2   173  MET173      0.2261
    219  O          0.7130   32.7650    2.0880 O.2   173  MET173     -0.2867
    220  CB         3.6860   33.1570    3.2820 C.3   173  MET173      0.0387
    221  CG         4.5350   33.5900    4.4710 C.3   173  MET173      0.0595
    222  SD         6.0640   32.6330    4.6670 S.3   173  MET173     -0.1393
    223  CE         5.5030   31.0970    5.3690 C.3   173  MET173      0.0692
@<TRIPOS>BOND
     1   218   219    2
     2   218   217    1
     3     4     3    2
     4   217   220    1
     5   217   216    1
     6     3     2    1
     7   220   221    1
     8     1     2    1
     9     2     5    1
    10   221   222    1
    11   222   223    1
    12    12    11    2
    13     9    10    1
    14     5     6    1
    15    11    10    1
    16     8     6    1
    17    10    13    1
    18     6     7    1
    19    13    15    1
    20    13    14    1
    21   208   207    2
    22   207   206    1
    23   209   210    1
    24   209   206    1
    25   168   167    2
    26   212   210   ar
    27   212   214   ar
    28   174   173    1
    29   210   211   ar
    30   206   205    1
    31   214   215   ar
    32   167   166    1
    33   205   199   am
    34    24    23    2
    35   203   202   ar
    36   173   175    1
    37   173   172    2
    38    33    34    1
    39    33    32    1
    40    35    34    1
    41    35    36    1
    42   120   119    1
    43   171   172    1
    44   171   170    1
    45   169   166    1
    46   169   170    1
    47   211   213   ar
    48    30    29    1
    49    30    31    2
    50    29    32    1
    51    29    28    1
    52   215   213   ar
    53   166   165    1
    54   199   200    2
    55   199   198    1
    56   202   204   ar
    57   202   201    1
    58    23    28   am
    59    23    22    1
    60   119   117   ar
    61   119   118   ar
    62   117   115   ar
    63   198   201    1
    64   198   197    1
    65    44    43   ar
    66   158   157    2
    67    25    22    1
    68    25    26    1
    69    25    27    1
    70   165   157   am
    71    21    22    1
    72    21    18   am
    73   118   116   ar
    74   163   161   ar
    75   163   164   ar
    76   183   181    1
    77   161   160   ar
    78   115   114   ar
    79   157   156    1
    80    20    17    1
    81   197   194   am
    82    43    45   ar
    83    43    42    1
    84   195   194    2
    85    17    18    1
    86    17    16    1
    87   124   123    2
    88    18    19    2
    89   194   193    1
    90    93    92    1
    91   116   114   ar
    92   164   162   ar
    93   114   113    1
    94   181   182    1
    95   181   180    1
    96   196   193    1
    97   160   159    1
    98   160   162   ar
    99    41    42    1
   100    41    38    1
   101    89    88    2
   102   156   159    1
   103   156   155    1
   104    86    87    1
   105   153   152    1
   106   123   122    1
   107   177   176    1
   108   177   180    1
   109   177   178    1
   110   193   192    1
   111   151   150    2
   112   113   110    1
   113   192   186   am
   114    90    87    1
   115    90    91    1
   116   155   150   am
   117    37    38    1
   118    92    91    1
   119   121   122    1
   120   121   111   am
   121   150   149    1
   122    88    87    1
   123   152   154    1
   124   152   149    1
   125    38    39    1
   126   178   179    2
   127   125   122    1
   128   125   126    1
   129    99    98    1
   130   110   111    1
   131   110   109    1
   132   111   112    2
   133   149   148    1
   134   126   127    1
   135   190   188    1
   136   186   185    1
   137   186   187    2
   138    39    40    2
   139   104   103    2
   140   100    98    1
   141   185   188    1
   142   185   184    1
   143    98    95    1
   144    94    95    1
   145   109   103   am
   146    97    96    2
   147    83    85    1
   148    83    82    1
   149   148   139   am
   150    53    51    1
   151   103   102    1
   152    84    82    1
   153   188   189    1
   154    59    60    1
   155    59    58    1
   156    95    96    1
   157    82    79    1
   158    96   101   am
   159    60    61    1
   160   189   191    1
   161   127   128    1
   162   139   140    2
   163   139   138    1
   164    51    50    1
   165   101   102    1
   166   102   105    1
   167   135   134    1
   168    50    52    1
   169    50    47    1
   170    58    55    1
   171    79    78    1
   172    79    80    1
   173   138   141    1
   174   138   137    1
   175   143   145   ar
   176   143   142   ar
   177   107   106   ar
   178    78    72   am
   179   141   142    1
   180    54    55    1
   181    54    48   am
   182   105   106    1
   183    46    47    1
   184   145   147   ar
   185    55    56    1
   186   106   108   ar
   187    47    48    1
   188   142   144   ar
   189    80    81    2
   190   134   136    1
   191   134   133    1
   192    68    67    1
   193    48    49    2
   194    76    74    1
   195   133   130    1
   196    72    71    1
   197    72    73    2
   198    71    74    1
   199    71    70    1
   200   147   146   ar
   201    77    75    1
   202   144   146   ar
   203    56    57    2
   204    74    75    1
   205    67    69    1
   206    67    66    1
   207   130   131    1
   208   130   129    1
   209   131   132    2
   210    66    63    1
   211    63    62    1
   212    63    64    1
   213    65    64    2
