@<TRIPOS>MOLECULE
tmp/4cktB00.pdb
 110 105 0 0 0
SMALL
GASTEIGER

@<TRIPOS>ATOM
      1  N         24.1940   14.6500   24.9490 N.3    10  LYS10      -0.1245
      2  CA        24.1650   13.6490   26.0100 C.3    10  LYS10       0.1561
      3  C         24.5770   12.2790   25.4990 C.2    10  LYS10       0.2260
      4  O         24.1190   11.8120   24.4730 O.2    10  LYS10      -0.2867
      5  CB        22.7800   13.5530   26.6460 C.3    10  LYS10       0.0271
      6  CG        22.6730   12.5150   27.7550 C.3    10  LYS10       0.0035
      7  CD        21.2330   12.3150   28.2450 C.3    10  LYS10       0.0206
      8  CE        20.6080   13.6540   28.5900 C.3    10  LYS10       0.1093
      9  NZ        19.1790   13.4700   29.1210 N.3    10  LYS10      -0.1314
     10  N         26.9930    9.0790   33.0020 N.3    17  LYS17      -0.1245
     11  CA        26.6020   10.1330   32.0480 C.3    17  LYS17       0.1561
     12  C         27.6790   11.1110   31.6110 C.2    17  LYS17       0.2260
     13  O         28.3110   11.7490   32.4490 O.2    17  LYS17      -0.2867
     14  CB        25.4670   10.9860   32.6140 C.3    17  LYS17       0.0271
     15  CG        24.0840   10.6360   32.1860 C.3    17  LYS17       0.0035
     16  CD        23.1710   11.7140   32.7140 C.3    17  LYS17       0.0206
     17  CE        21.7010   11.3470   32.6200 C.3    17  LYS17       0.1093
     18  NZ        20.8780   12.3650   33.3490 N.3    17  LYS17      -0.1314
     19  N         28.3550   14.5440   29.0150 N.3    19  PHE19      -0.1241
     20  CA        27.7320   15.5810   28.2200 C.3    19  PHE19       0.1605
     21  C         28.8380   16.3110   27.4930 C.2    19  PHE19       0.2264
     22  O         29.8250   16.6740   28.1110 O.2    19  PHE19      -0.2867
     23  CB        26.9970   16.5500   29.1440 C.3    19  PHE19       0.0534
     24  CG        25.7460   15.9800   29.7610 C.ar   19  PHE19      -0.0203
     25  CD1       25.8040   15.2790   30.9560 C.ar   19  PHE19      -0.0042
     26  CD2       24.5270   16.0980   29.1290 C.ar   19  PHE19      -0.0042
     27  CE1       24.6590   14.7380   31.5220 C.ar   19  PHE19      -0.0003
     28  CE2       23.3810   15.5720   29.7030 C.ar   19  PHE19      -0.0003
     29  CZ        23.4510   14.8910   30.8940 C.ar   19  PHE19      -0.0000
     30  N         23.3520   16.4160   37.4130 N.3    62  ASP62      -0.1225
     31  CA        22.2870   16.1990   36.4520 C.3    62  ASP62       0.1805
     32  C         20.9330   16.5970   37.0570 C.2    62  ASP62       0.2598
     33  O         20.8800   17.2640   38.0930 O.2    62  ASP62      -0.2718
     34  CB        22.3140   14.7590   35.9030 C.3    62  ASP62       0.1424
     35  CG        21.7650   13.7270   36.8890 C.2    62  ASP62       0.3668
     36  OD1       21.5010   14.0890   38.0480 O.co2  62  ASP62      -0.2456
     37  OD2       21.6180   12.5350   36.5110 O.co2  62  ASP62      -0.2456
     38  N         19.8410   16.1870   36.4210 N.am   63  ALA63      -0.1966
     39  CA        18.5140   16.5860   36.8840 C.3    63  ALA63       0.1728
     40  C         18.1330   15.9050   38.1990 C.2    63  ALA63       0.2616
     41  O         17.6160   16.5430   39.1140 O.2    63  ALA63      -0.2715
     42  CB        17.4690   16.3150   35.8070 C.3    63  ALA63       0.0334
     43  N         18.4000   14.6060   38.2800 N.am   64  LYS64      -0.1977
     44  CA        18.0810   13.8220   39.4610 C.3    64  LYS64       0.1596
     45  C         19.0010   14.1170   40.6420 C.2    64  LYS64       0.2287
     46  O         18.8310   13.5360   41.7150 O.2    64  LYS64      -0.2864
     47  CB        18.1100   12.3400   39.1150 C.3    64  LYS64       0.0298
     48  CG        16.9840   11.9570   38.1790 C.3    64  LYS64       0.0038
     49  CD        17.1750   10.5680   37.6080 C.3    64  LYS64       0.0206
     50  CE        16.1710   10.2930   36.5000 C.3    64  LYS64       0.1093
     51  NZ        16.4900    9.0130   35.8130 N.3    64  LYS64      -0.1314
     52  N         22.6130   11.2630   21.7700 N.3   113  ARG113     -0.1245
     53  CA        21.4180   12.0620   21.6700 C.3   113  ARG113      0.1563
     54  C         21.9160   13.4940   21.7300 C.2   113  ARG113      0.2260
     55  O         22.9350   13.7670   22.3490 O.2   113  ARG113     -0.2867
     56  CB        20.5010   11.7790   22.8550 C.3   113  ARG113      0.0307
     57  CG        19.2360   12.6060   22.9510 C.3   113  ARG113      0.0489
     58  CD        18.4290   12.1690   24.1610 C.3   113  ARG113      0.2205
     59  NE        18.2010   10.7270   24.1710 N.pl3 113  ARG113     -0.0865
     60  CZ        18.9330    9.8570   24.8630 C.cat 113  ARG113      0.5346
     61  NH1       19.9640   10.2760   25.5850 N.pl3 113  ARG113      0.1354
     62  NH2       18.6510    8.5620   24.8080 N.pl3 113  ARG113      0.1354
     63  N         20.5740   17.2430   22.9780 N.3   114  LEU114     -0.1231
     64  CA        19.5110   17.9300   23.7160 C.3   114  LEU114      0.1693
     65  C         18.8280   18.9810   22.8390 C.2   114  LEU114      0.2592
     66  O         19.3480   19.3460   21.7860 O.2   114  LEU114     -0.2718
     67  CB        20.0670   18.5660   24.9930 C.3   114  LEU114      0.0284
     68  CG        20.8390   17.6030   25.9050 C.3   114  LEU114      0.0019
     69  CD1       21.0000   18.2130   27.2730 C.3   114  LEU114      0.0001
     70  CD2       20.1990   16.2190   26.0030 C.3   114  LEU114      0.0001
     71  N         17.6460   19.4370   23.2370 N.am  115  LYS115     -0.1966
     72  CA        16.8900   20.3290   22.3610 C.3   115  LYS115      0.1728
     73  C         16.7570   21.7500   22.8970 C.2   115  LYS115      0.2616
     74  O         16.7430   22.7080   22.1170 O.2   115  LYS115     -0.2715
     75  CB        15.4970   19.7450   22.0620 C.3   115  LYS115      0.0311
     76  CG        14.8490   20.5840   20.9410 C.3   115  LYS115      0.0038
     77  CD        13.8910   19.6860   20.1530 C.3   115  LYS115      0.0206
     78  CE        12.9590   20.5400   19.3080 C.3   115  LYS115      0.1093
     79  NZ        13.7610   21.4680   18.4450 N.3   115  LYS115     -0.1314
     80  N         16.6600   21.8730   24.2220 N.am  116  TYR116     -0.1960
     81  CA        16.3310   23.1420   24.8840 C.3   116  TYR116      0.1771
     82  C         17.4570   23.6570   25.7760 C.2   116  TYR116      0.2619
     83  O         17.3110   24.6620   26.4670 O.2   116  TYR116     -0.2715
     84  CB        15.0560   22.9700   25.7100 C.3   116  TYR116      0.0574
     85  CG        13.8510   22.5690   24.8930 C.ar  116  TYR116     -0.0198
     86  CD1       13.2410   23.4690   24.0330 C.ar  116  TYR116     -0.0009
     87  CD2       13.3540   21.2720   24.9430 C.ar  116  TYR116     -0.0009
     88  CE1       12.1410   23.1010   23.2700 C.ar  116  TYR116      0.0417
     89  CE2       12.2600   20.8920   24.1800 C.ar  116  TYR116      0.0417
     90  CZ        11.6600   21.8110   23.3460 C.ar  116  TYR116      0.1957
     91  OH        10.5720   21.4390   22.5910 O.3   116  TYR116     -0.2866
     92  N         18.5990   22.9880   25.7040 N.am  117  ARG117     -0.1977
     93  CA        19.7520   23.3100   26.5270 C.3   117  ARG117      0.1597
     94  C         20.9600   23.3340   25.6340 C.2   117  ARG117      0.2287
     95  O         21.1980   22.3950   24.8540 O.2   117  ARG117     -0.2864
     96  CB        19.9660   22.2350   27.5820 C.3   117  ARG117      0.0334
     97  CG        20.9980   22.6040   28.6240 C.3   117  ARG117      0.0492
     98  CD        20.9260   21.6360   29.7730 C.3   117  ARG117      0.2205
     99  NE        20.1130   22.1760   30.8550 N.pl3 117  ARG117     -0.0865
    100  CZ        19.8580   21.5270   31.9840 C.cat 117  ARG117      0.5346
    101  NH1       20.3550   20.3120   32.1720 N.pl3 117  ARG117      0.1354
    102  NH2       19.1080   22.0870   32.9260 N.pl3 117  ARG117      0.1354
    103  N         25.8510   22.4560   29.6370 N.3   120  LEU120     -0.1245
    104  CA        25.6120   21.9310   30.9730 C.3   120  LEU120      0.1561
    105  C         26.3730   22.7000   32.0560 C.2   120  LEU120      0.2260
    106  O         25.8810   22.8860   33.1620 O.2   120  LEU120     -0.2867
    107  CB        26.0180   20.4630   31.0360 C.3   120  LEU120      0.0270
    108  CG        25.0970   19.6440   31.9390 C.3   120  LEU120      0.0019
    109  CD1       23.7540   19.3980   31.2590 C.3   120  LEU120      0.0001
    110  CD2       25.7350   18.3360   32.3830 C.3   120  LEU120      0.0001
@<TRIPOS>BOND
     1    79    78    1
     2    78    77    1
     3    77    76    1
     4    76    75    1
     5    53    54    1
     6    53    52    1
     7    53    56    1
     8    54    55    2
     9    66    65    2
    10    75    72    1
    11    74    73    2
    12    72    73    1
    13    72    71    1
    14    91    90    1
    15    65    71   am
    16    65    64    1
    17    56    57    1
    18    73    80   am
    19    57    58    1
    20    63    64    1
    21    88    90   ar
    22    88    86   ar
    23    90    89   ar
    24    64    67    1
    25    86    85   ar
    26    58    59    1
    27    59    60    2
    28    89    87   ar
    29    80    81    1
    30     4     3    2
    31    62    60    1
    32    95    94    2
    33    60    61    1
    34    81    84    1
    35    81    82    1
    36    85    87   ar
    37    85    84    1
    38     1     2    1
    39    67    68    1
    40     3     2    1
    41    94    93    1
    42    92    82   am
    43    92    93    1
    44    82    83    2
    45    68    70    1
    46    68    69    1
    47     2     5    1
    48    93    96    1
    49     5     6    1
    50    21    22    2
    51    21    20    1
    52    96    97    1
    53     6     7    1
    54    20    19    1
    55    20    23    1
    56     7     8    1
    57     8     9    1
    58    97    98    1
    59    26    28   ar
    60    26    24   ar
    61    23    24    1
    62   103   104    1
    63    28    29   ar
    64    24    25   ar
    65    98    99    1
    66    99   100    2
    67    29    27   ar
    68    25    27   ar
    69   104   107    1
    70   104   105    1
    71   107   108    1
    72   109   108    1
    73    12    11    1
    74    12    13    2
    75   108   110    1
    76   100   101    1
    77   100   102    1
    78    11    14    1
    79    11    10    1
    80   105   106    2
    81    15    14    1
    82    15    16    1
    83    17    16    1
    84    17    18    1
    85    42    39    1
    86    51    50    1
    87    34    31    1
    88    34    35    1
    89    38    39    1
    90    38    32   am
    91    31    32    1
    92    31    30    1
    93    50    49    1
    94    37    35   ar
    95    39    40    1
    96    35    36   ar
    97    32    33    2
    98    49    48    1
    99    48    47    1
   100    40    43   am
   101    40    41    2
   102    43    44    1
   103    47    44    1
   104    44    45    1
   105    45    46    2
