@<TRIPOS>MOLECULE
tmp/4ckuF00.pdb
 215 201 0 0 0
SMALL
GASTEIGER

@<TRIPOS>ATOM
      1  N         11.2550    8.0770  -21.9440 N.3    14  ILE14      -0.1231
      2  CA        10.7020    7.3630  -23.0870 C.3    14  ILE14       0.1692
      3  C          9.8420    6.2170  -22.5270 C.2    14  ILE14       0.2591
      4  O          8.6040    6.2210  -22.7080 O.2    14  ILE14      -0.2718
      5  CB        11.7960    6.9000  -24.1100 C.3    14  ILE14       0.0266
      6  CG1       11.1880    6.0890  -25.2530 C.3    14  ILE14       0.0019
      7  CG2       12.9260    6.0740  -23.4980 C.3    14  ILE14       0.0020
      8  CD1       10.4090    6.9310  -26.2440 C.3    14  ILE14       0.0001
      9  N         10.4710    5.2990  -21.7850 N.am   15  MET15      -0.1979
     10  CA         9.7680    4.1780  -21.1780 C.3    15  MET15       0.1605
     11  C          9.9020    4.1730  -19.6510 C.2    15  MET15       0.2287
     12  O         10.5800    4.9630  -19.0770 O.2    15  MET15      -0.2864
     13  CB        10.2850    2.8620  -21.7720 C.3    15  MET15       0.0413
     14  CG         9.3800    1.6430  -21.6210 C.3    15  MET15       0.0598
     15  SD         7.6180    2.0230  -21.4230 S.3    15  MET15      -0.1393
     16  CE         6.7910    0.4690  -21.3020 C.3    15  MET15       0.0692
     17  N          8.2660   -4.4740  -18.3190 N.3    32  ILE32      -0.1245
     18  CA         7.2980   -3.5710  -18.9600 C.3    32  ILE32       0.1561
     19  C          5.9030   -3.9470  -18.4440 C.2    32  ILE32       0.2260
     20  O          5.4840   -5.1050  -18.4660 O.2    32  ILE32      -0.2867
     21  CB         7.2840   -3.7810  -20.4600 C.3    32  ILE32       0.0252
     22  CG1        8.6480   -3.4440  -21.0210 C.3    32  ILE32       0.0019
     23  CG2        6.1360   -2.9260  -21.0870 C.3    32  ILE32       0.0019
     24  CD1        8.6690   -3.6140  -22.5220 C.3    32  ILE32       0.0001
     25  N          2.1870   -3.3810  -19.1840 N.3    34  ASP34      -0.1239
     26  CA         1.6560   -3.1520  -20.5140 C.3    34  ASP34       0.1674
     27  C          0.1170   -3.3600  -20.5580 C.2    34  ASP34       0.2266
     28  O         -0.3890   -4.4800  -20.6960 O.2    34  ASP34      -0.2867
     29  CB         2.3130   -4.1100  -21.4420 C.3    34  ASP34       0.1410
     30  CG         1.8770   -3.9840  -22.8570 C.2    34  ASP34       0.3668
     31  OD1        1.3390   -2.9230  -23.2370 O.co2  34  ASP34      -0.2456
     32  OD2        2.0680   -4.9860  -23.5850 O.co2  34  ASP34      -0.2456
     33  N         -1.4760   -2.8030  -23.0510 N.3    36  GLY36      -0.1210
     34  CA        -1.6920   -3.2320  -24.4470 C.3    36  GLY36       0.1956
     35  C         -1.4600   -4.6960  -24.7450 C.2    36  GLY36       0.2612
     36  O         -1.4880   -5.0890  -25.9180 O.2    36  GLY36      -0.2717
     37  N         -1.2780   -5.5330  -23.7090 N.am   37  SER37      -0.1952
     38  CA        -1.1860   -6.9510  -23.8800 C.3    37  SER37       0.1924
     39  C         -1.7030   -7.6380  -22.6040 C.2    37  SER37       0.2314
     40  O         -2.1670   -6.9820  -21.6490 O.2    37  SER37      -0.2863
     41  CB         0.2720   -7.3340  -24.2800 C.3    37  SER37       0.2116
     42  OG         1.0930   -7.1880  -23.1540 O.3    37  SER37      -0.2180
     43  N          4.9900   -9.9670  -31.0050 N.3    77  TYR77      -0.1227
     44  CA         4.9000   -8.5590  -30.7220 C.3    77  TYR77       0.1736
     45  C          5.3770   -7.8550  -32.0010 C.2    77  TYR77       0.2595
     46  O          5.9020   -8.5100  -32.8890 O.2    77  TYR77      -0.2718
     47  CB         5.8400   -8.2480  -29.5600 C.3    77  TYR77       0.0548
     48  CG         5.4230   -8.8430  -28.2310 C.ar   77  TYR77      -0.0200
     49  CD1        4.2950   -8.3740  -27.5720 C.ar   77  TYR77      -0.0009
     50  CD2        6.1910   -9.8320  -27.5960 C.ar   77  TYR77      -0.0009
     51  CE1        3.9370   -8.8470  -26.3050 C.ar   77  TYR77       0.0417
     52  CE2        5.7960  -10.3650  -26.3700 C.ar   77  TYR77       0.0417
     53  CZ         4.6950   -9.8590  -25.7140 C.ar   77  TYR77       0.1957
     54  OH         4.2810  -10.3020  -24.4700 O.3    77  TYR77      -0.2866
     55  N          5.2400   -6.5340  -32.0930 N.am   78  VAL78      -0.1966
     56  CA         5.7180   -5.8020  -33.2670 C.3    78  VAL78       0.1727
     57  C          7.2460   -5.8440  -33.3420 C.2    78  VAL78       0.2616
     58  O          7.8350   -5.9630  -34.4140 O.2    78  VAL78      -0.2715
     59  CB         5.2140   -4.3260  -33.2390 C.3    78  VAL78       0.0290
     60  CG1        5.9180   -3.4670  -34.2860 C.3    78  VAL78       0.0023
     61  CG2        3.6930   -4.2990  -33.4330 C.3    78  VAL78       0.0023
     62  N          7.8870   -5.7770  -32.1850 N.am   79  SER79      -0.1950
     63  CA         9.3250   -5.8110  -32.0750 C.3    79  SER79       0.1924
     64  C          9.9060   -7.2140  -32.2240 C.2    79  SER79       0.2314
     65  O         11.1420   -7.3940  -32.1890 O.2    79  SER79      -0.2863
     66  CB         9.6810   -5.2730  -30.6870 C.3    79  SER79       0.2116
     67  OG        11.0700   -5.1740  -30.5420 O.3    79  SER79      -0.2180
     68  N         13.5830  -11.6490  -30.9980 N.3   111  PHE111     -0.1241
     69  CA        13.2620  -10.4160  -30.2820 C.3   111  PHE111      0.1605
     70  C         14.5060   -9.5370  -30.0920 C.2   111  PHE111      0.2264
     71  O         14.5080   -8.6090  -29.2880 O.2   111  PHE111     -0.2867
     72  CB        12.7590  -10.8280  -28.8920 C.3   111  PHE111      0.0534
     73  CG        11.9240   -9.8080  -28.1630 C.ar  111  PHE111     -0.0203
     74  CD1       10.9670   -9.0620  -28.8070 C.ar  111  PHE111     -0.0042
     75  CD2       11.9990   -9.7230  -26.7860 C.ar  111  PHE111     -0.0042
     76  CE1       10.1800   -8.1590  -28.1020 C.ar  111  PHE111     -0.0003
     77  CE2       11.2220   -8.8050  -26.0630 C.ar  111  PHE111     -0.0003
     78  CZ        10.3020   -8.0340  -26.7160 C.ar  111  PHE111     -0.0000
     79  N         16.3260   -5.5440  -29.8680 N.3   114  THR114     -0.1218
     80  CA        15.4950   -4.8990  -28.8720 C.3   114  THR114      0.1862
     81  C         15.8090   -5.3830  -27.4520 C.2   114  THR114      0.2287
     82  O         16.1190   -4.5990  -26.5710 O.2   114  THR114     -0.2866
     83  CB        13.9870   -5.1660  -29.1690 C.3   114  THR114      0.1770
     84  OG1       13.6290   -4.4830  -30.3640 O.3   114  THR114     -0.2211
     85  CG2       13.1070   -4.6400  -28.0320 C.3   114  THR114      0.0375
     86  N         14.5930   -4.2490  -19.4980 N.3   120  PHE120     -0.1241
     87  CA        13.6090   -5.1850  -18.9310 C.3   120  PHE120      0.1605
     88  C         13.9850   -6.6820  -19.1250 C.2   120  PHE120      0.2264
     89  O         14.7100   -7.0220  -20.0730 O.2   120  PHE120     -0.2867
     90  CB        12.2440   -4.8780  -19.4710 C.3   120  PHE120      0.0534
     91  CG        12.0890   -5.1810  -20.9400 C.ar  120  PHE120     -0.0203
     92  CD1       12.3800   -4.2440  -21.8960 C.ar  120  PHE120     -0.0042
     93  CD2       11.5930   -6.3650  -21.3250 C.ar  120  PHE120     -0.0042
     94  CE1       12.1540   -4.5360  -23.2430 C.ar  120  PHE120     -0.0003
     95  CE2       11.4460   -6.6980  -22.6450 C.ar  120  PHE120     -0.0003
     96  CZ        11.6990   -5.7720  -23.6080 C.ar  120  PHE120     -0.0000
     97  N          7.6880   -9.0240  -19.7230 N.3   123  ILE123     -0.1245
     98  CA         6.4870   -8.1630  -19.9290 C.3   123  ILE123      0.1561
     99  C          5.4060   -8.7130  -19.0330 C.2   123  ILE123      0.2260
    100  O          5.1780   -9.9150  -18.9750 O.2   123  ILE123     -0.2867
    101  CB         6.0530   -8.1350  -21.3850 C.3   123  ILE123      0.0252
    102  CG1        7.2390   -7.6360  -22.2410 C.3   123  ILE123      0.0019
    103  CG2        4.7860   -7.2150  -21.5410 C.3   123  ILE123      0.0019
    104  CD1        6.9610   -7.5440  -23.7100 C.3   123  ILE123      0.0001
    105  N         -8.6830   -4.4840  -25.4740 N.3   192  TYR192     -0.1241
    106  CA        -7.8130   -3.4280  -25.0000 C.3   192  TYR192      0.1605
    107  C         -8.6330   -2.5850  -24.0320 C.2   192  TYR192      0.2264
    108  O         -9.8860   -2.7720  -23.8870 O.2   192  TYR192     -0.2867
    109  CB        -7.3580   -2.5710  -26.1410 C.3   192  TYR192      0.0534
    110  CG        -6.5970   -3.3470  -27.1650 C.ar  192  TYR192     -0.0201
    111  CD1       -5.2660   -3.6280  -26.9720 C.ar  192  TYR192     -0.0009
    112  CD2       -7.2180   -3.8520  -28.2940 C.ar  192  TYR192     -0.0009
    113  CE1       -4.5380   -4.4300  -27.8910 C.ar  192  TYR192      0.0417
    114  CE2       -6.4730   -4.5850  -29.2570 C.ar  192  TYR192      0.0417
    115  CZ        -5.1480   -4.8890  -29.0240 C.ar  192  TYR192      0.1957
    116  OH        -4.4470   -5.6350  -29.9790 O.3   192  TYR192     -0.2866
    117  N         -7.1790    3.7030  -27.7420 N.3   212  ILE212     -0.1245
    118  CA        -6.6630    2.5840  -26.9210 C.3   212  ILE212      0.1561
    119  C         -5.6080    3.1540  -25.9540 C.2   212  ILE212      0.2260
    120  O         -4.6780    3.8450  -26.4250 O.2   212  ILE212     -0.2867
    121  CB        -6.0100    1.5180  -27.8060 C.3   212  ILE212      0.0252
    122  CG1       -7.0540    0.7640  -28.6270 C.3   212  ILE212      0.0019
    123  CG2       -5.1910    0.5540  -26.9270 C.3   212  ILE212      0.0019
    124  CD1       -6.5130   -0.1960  -29.7250 C.3   212  ILE212      0.0001
    125  N         -2.4760    2.5240  -23.8740 N.3   214  ASP214     -0.1239
    126  CA        -1.4930    1.4870  -24.0490 C.3   214  ASP214      0.1674
    127  C         -0.1690    1.8850  -23.4380 C.2   214  ASP214      0.2266
    128  O          0.6360    2.6080  -24.0350 O.2   214  ASP214     -0.2867
    129  CB        -1.2730    1.1690  -25.5210 C.3   214  ASP214      0.1410
    130  CG        -0.2770   -0.0150  -25.7400 C.2   214  ASP214      0.3668
    131  OD1        0.3010   -0.5910  -24.7550 O.co2 214  ASP214     -0.2456
    132  OD2       -0.0570   -0.3650  -26.9330 O.co2 214  ASP214     -0.2456
    133  N          2.4310    0.2040  -22.8650 N.3   216  GLY216     -0.1210
    134  CA         3.6010   -0.4600  -23.4470 C.3   216  GLY216      0.1956
    135  C          4.0540    0.1010  -24.7700 C.2   216  GLY216      0.2613
    136  O          4.8000   -0.5680  -25.5030 O.2   216  GLY216     -0.2717
    137  N          3.5370    1.2770  -25.1490 N.am  217  THR217     -0.1938
    138  CA         3.9380    1.9400  -26.3770 C.3   217  THR217      0.2028
    139  C          4.3890    3.3630  -26.0510 C.2   217  THR217      0.2643
    140  O          3.6530    4.1360  -25.4290 O.2   217  THR217     -0.2714
    141  CB         2.8020    1.9100  -27.3860 C.3   217  THR217      0.1808
    142  OG1        2.4800    0.5440  -27.6960 O.3   217  THR217     -0.2208
    143  CG2        3.1620    2.6130  -28.6540 C.3   217  THR217      0.0379
    144  N          5.5730    3.7400  -26.5010 N.am  218  SER218     -0.1935
    145  CA         6.1000    5.0600  -26.2170 C.3   218  SER218      0.2055
    146  C          5.6910    6.1740  -27.1820 C.2   218  SER218      0.2642
    147  O          6.4240    7.1320  -27.3120 O.2   218  SER218     -0.2714
    148  CB         7.6370    4.9810  -26.2010 C.3   218  SER218      0.2130
    149  OG         8.0650    5.5180  -24.9830 O.3   218  SER218     -0.2179
    150  N          4.5540    6.0750  -27.8420 N.am  219  ALA219     -0.1977
    151  CA         4.1660    6.9850  -28.9100 C.3   219  ALA219      0.1597
    152  C          2.6910    7.2030  -28.8540 C.2   219  ALA219      0.2287
    153  O          2.0090    6.5290  -28.1220 O.2   219  ALA219     -0.2864
    154  CB         4.5110    6.3900  -30.2850 C.3   219  ALA219      0.0319
    155  N         -0.3190    6.9840  -31.7090 N.3   221  THR221     -0.1218
    156  CA        -0.5680    6.6530  -33.0970 C.3   221  THR221      0.1862
    157  C         -1.9090    7.2890  -33.4530 C.2   221  THR221      0.2287
    158  O         -2.7970    7.4710  -32.6000 O.2   221  THR221     -0.2866
    159  CB        -0.5690    5.1460  -33.4120 C.3   221  THR221      0.1770
    160  OG1       -1.8170    4.5490  -33.0190 O.3   221  THR221     -0.2211
    161  CG2        0.6070    4.4140  -32.8150 C.3   221  THR221      0.0375
    162  N          9.1480    8.9820  -39.8990 N.3   244  PHE244     -0.1241
    163  CA         9.4680    9.8960  -38.8030 C.3   244  PHE244      0.1605
    164  C          9.5030   11.3760  -39.2030 C.2   244  PHE244      0.2264
    165  O          9.8490   11.7550  -40.3260 O.2   244  PHE244     -0.2867
    166  CB        10.7750    9.4730  -38.1240 C.3   244  PHE244      0.0534
    167  CG        10.7070    8.0910  -37.5110 C.ar  244  PHE244     -0.0203
    168  CD1        9.8420    7.8280  -36.4410 C.ar  244  PHE244     -0.0042
    169  CD2       11.4880    7.0440  -38.0080 C.ar  244  PHE244     -0.0042
    170  CE1        9.7630    6.5550  -35.8820 C.ar  244  PHE244     -0.0003
    171  CE2       11.4080    5.7760  -37.4530 C.ar  244  PHE244     -0.0003
    172  CZ        10.5470    5.5300  -36.3920 C.ar  244  PHE244     -0.0000
    173  N          6.7810   12.2820  -31.6260 N.3   288  ASN288     -0.1240
    174  CA         6.6010   10.9330  -31.2460 C.3   288  ASN288      0.1653
    175  C          5.1710   10.4430  -31.6000 C.2   288  ASN288      0.2266
    176  O          4.3760   10.1180  -30.7230 O.2   288  ASN288     -0.2867
    177  CB         6.8320   10.8060  -29.7930 C.3   288  ASN288      0.1155
    178  CG         7.0260    9.3920  -29.4020 C.2   288  ASN288      0.2627
    179  OD1        7.2560    8.5190  -30.2590 O.2   288  ASN288     -0.2716
    180  ND2        6.9230    9.1240  -28.1220 N.am  288  ASN288     -0.0877
    181  N          2.9240    8.3880  -34.7720 N.3   290  ILE290     -0.1245
    182  CA         3.0810    7.4730  -35.8960 C.3   290  ILE290      0.1561
    183  C          1.7200    7.3050  -36.5370 C.2   290  ILE290      0.2260
    184  O          0.7360    7.1910  -35.8430 O.2   290  ILE290     -0.2867
    185  CB         3.6180    6.1090  -35.3340 C.3   290  ILE290      0.0252
    186  CG1        5.1130    6.2640  -35.1130 C.3   290  ILE290      0.0019
    187  CG2        3.3440    4.9080  -36.2370 C.3   290  ILE290      0.0019
    188  CD1        5.8320    6.5730  -36.4300 C.3   290  ILE290      0.0001
    189  N         -1.1120    5.1090  -38.3400 N.3   292  LEU292     -0.1245
    190  CA        -1.4580    3.6970  -38.4060 C.3   292  LEU292      0.1561
    191  C         -2.9430    3.5870  -38.5720 C.2   292  LEU292      0.2260
    192  O         -3.7050    4.1880  -37.7850 O.2   292  LEU292     -0.2867
    193  CB        -1.0630    3.0180  -37.0710 C.3   292  LEU292      0.0270
    194  CG        -0.7930    1.5720  -36.8930 C.3   292  LEU292      0.0019
    195  CD1        0.3840    1.1990  -37.8140 C.3   292  LEU292      0.0001
    196  CD2       -0.3760    1.4220  -35.4200 C.3   292  LEU292      0.0001
    197  N         -6.4590    1.2720  -38.8770 N.3   294  PHE294     -0.1241
    198  CA        -7.1680    0.0530  -38.4900 C.3   294  PHE294      0.1605
    199  C         -8.5650    0.0500  -39.0810 C.2   294  PHE294      0.2264
    200  O         -9.0300    1.0670  -39.5400 O.2   294  PHE294     -0.2867
    201  CB        -7.3050    0.0740  -36.9620 C.3   294  PHE294      0.0534
    202  CG        -5.9800   -0.0420  -36.2350 C.ar  294  PHE294     -0.0203
    203  CD1       -5.3920   -1.2790  -36.0420 C.ar  294  PHE294     -0.0042
    204  CD2       -5.2940    1.0920  -35.8030 C.ar  294  PHE294     -0.0042
    205  CE1       -4.1840   -1.3990  -35.3410 C.ar  294  PHE294     -0.0003
    206  CE2       -4.0760    0.9810  -35.1530 C.ar  294  PHE294     -0.0003
    207  CZ        -3.5340   -0.2730  -34.9000 C.ar  294  PHE294     -0.0000
    208  N         -3.9110    5.3210  -30.6850 N.3   300  ILE300     -0.1245
    209  CA        -3.2820    4.6650  -29.5390 C.3   300  ILE300      0.1561
    210  C         -2.6540    5.7030  -28.6630 C.2   300  ILE300      0.2260
    211  O         -1.7350    6.4370  -29.1060 O.2   300  ILE300     -0.2867
    212  CB        -2.3100    3.6070  -30.0140 C.3   300  ILE300      0.0252
    213  CG1       -3.1230    2.6300  -30.9020 C.3   300  ILE300      0.0019
    214  CG2       -1.6010    2.9580  -28.8130 C.3   300  ILE300      0.0019
    215  CD1       -2.3300    1.4890  -31.4330 C.3   300  ILE300      0.0001
@<TRIPOS>BOND
     1   165   164    2
     2   162   163    1
     3   200   199    2
     4   164   163    1
     5   199   198    1
     6   197   198    1
     7   163   166    1
     8   191   190    1
     9   191   192    2
    10   198   201    1
    11   190   189    1
    12   190   193    1
    13   166   167    1
    14   169   167   ar
    15   169   171   ar
    16   195   194    1
    17   167   168   ar
    18   171   172   ar
    19   193   194    1
    20   201   202    1
    21   194   196    1
    22   183   182    1
    23   183   184    2
    24   168   170   ar
    25   188   186    1
    26   172   170   ar
    27   187   185    1
    28   202   203   ar
    29   202   204   ar
    30   203   205   ar
    31   182   185    1
    32   182   181    1
    33   204   206   ar
    34   205   207   ar
    35   185   186    1
    36   206   207   ar
    37    58    57    2
    38    60    59    1
    39   157   156    1
    40   157   158    2
    41    61    59    1
    42   159   156    1
    43   159   160    1
    44   159   161    1
    45    57    56    1
    46    57    62   am
    47    56    59    1
    48    56    55    1
    49   156   155    1
    50    46    45    2
    51    64    65    2
    52    64    63    1
    53    62    63    1
    54    55    45   am
    55    63    66    1
    56    45    44    1
    57   173   174    1
    58   175   174    1
    59   175   176    2
    60   215   213    1
    61   174   177    1
    62    43    44    1
    63    68    69    1
    64   213   212    1
    65    44    47    1
    66    66    67    1
    67   208   209    1
    68    84    83    1
    69   154   151    1
    70    69    70    1
    71    69    72    1
    72   179   178    2
    73    70    71    2
    74   212   209    1
    75   212   214    1
    76   116   115    1
    77    79    80    1
    78   177   178    1
    79   124   122    1
    80    47    48    1
    81   209   210    1
    82   178   180   am
    83   114   115   ar
    84   114   112   ar
    85    83    80    1
    86    83    85    1
    87   211   210    2
    88   115   113   ar
    89   151   152    1
    90   151   150    1
    91    72    73    1
    92    80    81    1
    93   152   153    2
    94    74    73   ar
    95    74    76   ar
    96   143   141    1
    97   122   121    1
    98   112   110   ar
    99    48    50   ar
   100    48    49   ar
   101    73    75   ar
   102    76    78   ar
   103   113   111   ar
   104   150   146   am
   105   121   123    1
   106   121   118    1
   107   117   118    1
   108   142   141    1
   109    50    52   ar
   110    49    51   ar
   111    81    82    2
   112   141   138    1
   113   147   146    2
   114   146   145    1
   115   110   111   ar
   116   110   109    1
   117   132   130   ar
   118   118   119    1
   119    75    77   ar
   120    78    77   ar
   121   144   145    1
   122   144   139   am
   123   120   119    2
   124   138   139    1
   125   138   137    1
   126    52    53   ar
   127    51    53   ar
   128     8     6    1
   129   145   148    1
   130   148   149    1
   131   109   106    1
   132   139   140    2
   133    36    35    2
   134   130   129    1
   135   130   131   ar
   136    53    54    1
   137   129   126    1
   138   136   135    2
   139   105   106    1
   140     6     5    1
   141   137   135   am
   142   106   107    1
   143   135   134    1
   144    35    34    1
   145    35    37   am
   146    34    33    1
   147    41    38    1
   148    41    42    1
   149     5     7    1
   150     5     2    1
   151   126   125    1
   152   126   127    1
   153   128   127    2
   154   107   108    2
   155    38    37    1
   156    38    39    1
   157   104   102    1
   158    96    94   ar
   159    96    95   ar
   160    32    30   ar
   161   134   133    1
   162    94    92   ar
   163    31    30   ar
   164     2     3    1
   165     2     1    1
   166    30    29    1
   167     4     3    2
   168    95    93   ar
   169    39    40    2
   170     3     9   am
   171    24    22    1
   172   102   101    1
   173    92    91   ar
   174     9    10    1
   175    13    14    1
   176    13    10    1
   177    14    15    1
   178   103   101    1
   179    29    26    1
   180    15    16    1
   181   101    98    1
   182    93    91   ar
   183    10    11    1
   184    23    21    1
   185    22    21    1
   186    91    90    1
   187    28    27    2
   188    27    26    1
   189    26    25    1
   190    21    18    1
   191    89    88    2
   192    98    97    1
   193    98    99    1
   194    11    12    2
   195    86    87    1
   196    90    87    1
   197    88    87    1
   198    99   100    2
   199    18    19    1
   200    18    17    1
   201    20    19    2
