@<TRIPOS>MOLECULE
tmp/4ckyA00.pdb
 110 104 0 0 0
SMALL
GASTEIGER

@<TRIPOS>ATOM
      1  N        -24.4340  -10.1940   15.8260 N.3     9  PRO9       -0.2102
      2  CA       -24.0120   -9.7480   17.1570 C.3     9  PRO9        0.1504
      3  C        -24.3490   -8.2890   17.4730 C.2     9  PRO9        0.2576
      4  O        -24.2440   -7.3920   16.6190 O.2     9  PRO9       -0.2718
      5  CB       -22.5040   -9.9690   17.1690 C.3     9  PRO9        0.0282
      6  CG       -22.2050  -10.8290   16.0580 C.3     9  PRO9        0.0208
      7  CD       -23.3650  -10.9300   15.1260 C.3     9  PRO9        0.0893
      8  N        -24.7770   -8.1140   18.7170 N.am   10  ASN10      -0.1961
      9  CA       -25.1360   -6.8550   19.3100 C.3    10  ASN10       0.1819
     10  C        -26.4820   -6.2810   18.8740 C.2    10  ASN10       0.2621
     11  O        -26.9540   -5.3170   19.4730 O.2    10  ASN10      -0.2715
     12  CB       -24.0300   -5.8060   19.1360 C.3    10  ASN10       0.1195
     13  CG       -22.7210   -6.2340   19.7520 C.2    10  ASN10       0.2630
     14  OD1      -22.6580   -6.5510   20.9250 O.2    10  ASN10      -0.2716
     15  ND2      -21.6810   -6.2850   18.9570 N.am   10  ASN10      -0.0877
     16  N        -27.1470   -6.9120   17.9110 N.am   11  LEU11      -0.1977
     17  CA       -28.4410   -6.4080   17.4700 C.3    11  LEU11       0.1596
     18  C        -29.5420   -6.6260   18.5090 C.2    11  LEU11       0.2287
     19  O        -30.5880   -5.9530   18.4680 O.2    11  LEU11      -0.2864
     20  CB       -28.8500   -6.9950   16.1170 C.3    11  LEU11       0.0297
     21  CG       -28.4390   -6.2900   14.7880 C.3    11  LEU11       0.0022
     22  CD1      -28.8930   -4.8200   14.6560 C.3    11  LEU11       0.0001
     23  CD2      -27.0230   -6.4830   14.4210 C.3    11  LEU11       0.0001
     24  N        -30.3600   -3.2920   20.4400 N.3    14  LEU14      -0.1245
     25  CA       -31.0340   -2.1710   19.8170 C.3    14  LEU14       0.1561
     26  C        -31.8820   -1.4100   20.8360 C.2    14  LEU14       0.2260
     27  O        -32.6440   -2.0040   21.6060 O.2    14  LEU14      -0.2867
     28  CB       -31.9460   -2.6500   18.7090 C.3    14  LEU14       0.0270
     29  CG       -31.3460   -2.8240   17.3290 C.3    14  LEU14       0.0019
     30  CD1      -32.3260   -3.5440   16.4000 C.3    14  LEU14       0.0001
     31  CD2      -30.9140   -1.4800   16.7500 C.3    14  LEU14       0.0001
     32  N        -28.5390   -8.7440    8.6180 N.3    66  ASN66      -0.1240
     33  CA       -27.7150   -7.7050    9.2100 C.3    66  ASN66       0.1653
     34  C        -26.7610   -8.4140   10.1370 C.2    66  ASN66       0.2266
     35  O        -27.1310   -8.7480   11.2830 O.2    66  ASN66      -0.2867
     36  CB       -28.5660   -6.6780    9.9560 C.3    66  ASN66       0.1155
     37  CG       -27.7330   -5.5610   10.5290 C.2    66  ASN66       0.2627
     38  OD1      -26.4800   -5.6310   10.5320 O.2    66  ASN66      -0.2716
     39  ND2      -28.4000   -4.5170   11.0270 N.am   66  ASN66      -0.0877
     40  N        -24.1290   -7.4660   11.6720 N.3    68  GLY68      -0.1210
     41  CA       -23.3670   -6.6580   12.6260 C.3    68  GLY68       0.1956
     42  C        -21.8880   -6.6630   12.2750 C.2    68  GLY68       0.2612
     43  O        -21.5100   -6.5740   11.1140 O.2    68  GLY68      -0.2717
     44  N        -21.0330   -6.7030   13.2910 N.am   69  GLY69      -0.1956
     45  CA       -19.5900   -6.5920   13.0480 C.3    69  GLY69       0.1869
     46  C        -19.0260   -7.7250   12.2100 C.2    69  GLY69       0.2309
     47  O        -17.9740   -7.5630   11.5760 O.2    69  GLY69      -0.2863
     48  N        -17.8450   -7.3630    8.4430 N.3    72  HIS72      -0.1241
     49  CA       -16.5410   -6.8410    8.1000 C.3    72  HIS72       0.1621
     50  C        -15.4250   -7.8560    8.2830 C.2    72  HIS72       0.2264
     51  O        -14.2920   -7.5990    7.8530 O.2    72  HIS72      -0.2867
     52  CB       -16.2310   -5.5840    8.9120 C.3    72  HIS72       0.0745
     53  CG       -17.3540   -4.6100    8.9700 C.ar   72  HIS72       0.0817
     54  ND1      -17.8820   -4.0090    7.8480 N.ar   72  HIS72      -0.2268
     55  CD2      -18.1260   -4.2060   10.0090 C.ar   72  HIS72       0.1154
     56  CE1      -18.9110   -3.2590    8.2020 C.ar   72  HIS72       0.1986
     57  NE2      -19.0830   -3.3780    9.5000 N.ar   72  HIS72      -0.2212
     58  N        -27.8560   -2.7040    6.7480 N.3    92  HIS92      -0.1226
     59  CA       -27.2710   -2.0110    7.9080 C.3    92  HIS92       0.1752
     60  C        -28.1530   -0.8290    8.2790 C.2    92  HIS92       0.2596
     61  O        -28.6030   -0.0480    7.4000 O.2    92  HIS92      -0.2718
     62  CB       -25.8400   -1.5800    7.6090 C.3    92  HIS92       0.0759
     63  CG       -24.9800   -2.7520    7.2810 C.ar   92  HIS92       0.0818
     64  ND1      -24.6620   -3.6960    8.2260 N.ar   92  HIS92      -0.2268
     65  CD2      -24.5570   -3.2490    6.1010 C.ar   92  HIS92       0.1154
     66  CE1      -23.9860   -4.6770    7.6530 C.ar   92  HIS92       0.1986
     67  NE2      -23.9170   -4.4310    6.3600 N.ar   92  HIS92      -0.2212
     68  N        -28.4060   -0.7180    9.5810 N.am   93  ILE93      -0.1966
     69  CA       -29.1890    0.3880   10.1170 C.3    93  ILE93       0.1727
     70  C        -28.4830    1.7540    9.9080 C.2    93  ILE93       0.2616
     71  O        -29.0930    2.7260    9.4370 O.2    93  ILE93      -0.2715
     72  CB       -29.5320    0.0980   11.6070 C.3    93  ILE93       0.0290
     73  CG1      -30.4420   -1.1330   11.6740 C.3    93  ILE93       0.0022
     74  CG2      -30.1330    1.2830   12.2750 C.3    93  ILE93       0.0023
     75  CD1      -30.5490   -1.7190   13.0560 C.3    93  ILE93       0.0001
     76  N        -27.2030    1.7920   10.2820 N.am   94  SER94      -0.1950
     77  CA       -26.3640    2.9680   10.1650 C.3    94  SER94       0.1924
     78  C        -25.7740    3.0440    8.7620 C.2    94  SER94       0.2314
     79  O        -25.7120    2.0550    8.0230 O.2    94  SER94      -0.2863
     80  CB       -25.2250    2.9480   11.2090 C.3    94  SER94       0.2116
     81  OG       -24.2390    1.9620   10.9440 O.3    94  SER94      -0.2180
     82  N        -22.7320    2.9110    7.1610 N.3    96  VAL96      -0.1245
     83  CA       -21.3700    2.4660    7.4080 C.3    96  VAL96       0.1561
     84  C        -20.3050    3.2940    6.6670 C.2    96  VAL96       0.2260
     85  O        -19.1540    3.3060    7.0600 O.2    96  VAL96      -0.2867
     86  CB       -21.2020    0.9700    7.0660 C.3    96  VAL96       0.0252
     87  CG1      -22.0480    0.1220    8.0160 C.3    96  VAL96       0.0019
     88  CG2      -21.5540    0.6670    5.6120 C.3    96  VAL96       0.0019
     89  N        -18.6800    6.2870    8.7400 N.3    99  ARG99      -0.1245
     90  CA       -18.0070    5.8790    9.9890 C.3    99  ARG99       0.1563
     91  C        -16.5300    5.5280    9.7030 C.2    99  ARG99       0.2260
     92  O        -15.9450    6.0960    8.7700 O.2    99  ARG99      -0.2867
     93  CB       -18.8060    4.7380   10.6340 C.3    99  ARG99       0.0307
     94  CG       -20.2830    5.0870   10.8100 C.3    99  ARG99       0.0489
     95  CD       -21.0870    3.9950   11.5020 C.3    99  ARG99       0.2205
     96  NE       -20.5360    3.6810   12.8290 N.pl3  99  ARG99      -0.0865
     97  CZ       -20.9970    2.7140   13.6100 C.cat  99  ARG99       0.5346
     98  NH1      -21.9830    1.8960   13.2070 N.pl3  99  ARG99       0.1354
     99  NH2      -20.4500    2.5440   14.7940 N.pl3  99  ARG99       0.1354
    100  N        -15.3410   -0.1550    8.3480 N.3   103  ARG103     -0.1245
    101  CA       -16.7440   -0.4970    8.1320 C.3   103  ARG103      0.1563
    102  C        -17.1920   -0.3930    6.6860 C.2   103  ARG103      0.2260
    103  O        -18.3210   -0.8140    6.3700 O.2   103  ARG103     -0.2867
    104  CB       -17.6450    0.3580    9.0100 C.3   103  ARG103      0.0307
    105  CG       -17.3820    0.1470   10.4870 C.3   103  ARG103      0.0489
    106  CD       -18.4130    0.8660   11.3500 C.3   103  ARG103      0.2205
    107  NE       -17.9360    0.9300   12.7150 N.pl3 103  ARG103     -0.0865
    108  CZ       -18.1110   -0.0420   13.6140 C.cat 103  ARG103      0.5346
    109  NH1      -18.8000   -1.1370   13.3000 N.pl3 103  ARG103      0.1354
    110  NH2      -17.6280    0.1000   14.8350 N.pl3 103  ARG103      0.1354
@<TRIPOS>BOND
     1    88    86    1
     2    65    67   ar
     3    65    63   ar
     4    67    66   ar
     5   103   102    2
     6    84    85    2
     7    84    83    1
     8   102   101    1
     9    58    59    1
    10    86    83    1
    11    86    87    1
    12    82    83    1
    13    63    62    1
    14    63    64   ar
    15    61    60    2
    16    62    59    1
    17    66    64   ar
    18    54    56   ar
    19    54    53   ar
    20    51    50    2
    21    59    60    1
    22    79    78    2
    23    49    50    1
    24    49    48    1
    25    49    52    1
    26   101   100    1
    27   101   104    1
    28    56    57   ar
    29    60    68   am
    30    32    33    1
    31    89    90    1
    32    78    77    1
    33    92    91    2
    34    52    53    1
    35    53    55   ar
    36   104   105    1
    37    33    36    1
    38    33    34    1
    39    71    70    2
    40    57    55   ar
    41    68    69    1
    42    91    90    1
    43    70    69    1
    44    70    76   am
    45    36    37    1
    46    90    93    1
    47    69    72    1
    48    34    35    2
    49    77    76    1
    50    77    80    1
    51   105   106    1
    52    37    38    2
    53    37    39   am
    54    93    94    1
    55    94    95    1
    56    81    80    1
    57    43    42    2
    58   106   107    1
    59    95    96    1
    60    47    46    2
    61    72    73    1
    62    72    74    1
    63    40    41    1
    64    73    75    1
    65    46    45    1
    66    42    41    1
    67    42    44   am
    68   107   108    2
    69    96    97    2
    70    45    44    1
    71    98    97    1
    72   109   108    1
    73    97    99    1
    74   108   110    1
    75    23    21    1
    76    22    21    1
    77    21    20    1
    78     7     1    1
    79     7     6    1
    80     1     2    1
    81     6     5    1
    82    20    17    1
    83    30    29    1
    84     4     3    2
    85    31    29    1
    86     2     5    1
    87     2     3    1
    88    29    28    1
    89    17    16    1
    90    17    18    1
    91     3     8   am
    92    16    10   am
    93    19    18    2
    94    28    25    1
    95     8     9    1
    96    10     9    1
    97    10    11    2
    98    15    13   am
    99    12     9    1
   100    12    13    1
   101    13    14    2
   102    25    24    1
   103    25    26    1
   104    26    27    2
