@<TRIPOS>MOLECULE
tmp/4cl6C01.pdb
 119 116 0 0 0
SMALL
GASTEIGER

@<TRIPOS>ATOM
      1  N        -27.0950  107.7740   -2.7360 N.3    15  CYS15      -0.1235
      2  CA       -26.9700  106.3270   -2.5890 C.3    15  CYS15       0.1677
      3  C        -28.3320  105.6410   -2.4000 C.2    15  CYS15       0.2270
      4  O        -28.6100  104.5990   -3.0190 O.2    15  CYS15      -0.2867
      5  CB       -26.0640  105.9900   -1.3980 C.3    15  CYS15       0.0956
      6  SG       -25.8400  104.2120   -1.1840 S.3    15  CYS15      -0.0801
      7  N        -25.9360   98.3090   -4.3850 N.3    26  ALA26      -0.1231
      8  CA       -26.3110   98.6020   -3.0100 C.3    26  ALA26       0.1694
      9  C        -27.0070   99.9550   -2.8460 C.2    26  ALA26       0.2592
     10  O        -26.6060  100.9500   -3.4530 O.2    26  ALA26      -0.2718
     11  CB       -25.1090   98.5170   -2.0870 C.3    26  ALA26       0.0304
     12  N        -28.0690   99.9640   -2.0470 N.am   27  GLN27      -0.1966
     13  CA       -28.7650  101.1930   -1.6900 C.3    27  GLN27       0.1733
     14  C        -28.8840  101.2550   -0.1970 C.2    27  GLN27       0.2616
     15  O        -29.3690  100.3130    0.4260 O.2    27  GLN27      -0.2715
     16  CB       -30.1900  101.2060   -2.2430 C.3    27  GLN27       0.0408
     17  CG       -30.3350  101.1450   -3.7490 C.3    27  GLN27       0.0908
     18  CD       -31.7920  100.8830   -4.1300 C.2    27  GLN27       0.2608
     19  OE1      -32.1550   99.7860   -4.5540 O.2    27  GLN27      -0.2717
     20  NE2      -32.6350  101.8890   -3.9420 N.am   27  GLN27      -0.0878
     21  N        -28.4860  102.3740    0.3910 N.am   28  LEU28      -0.1964
     22  CA       -28.9200  102.6630    1.7270 C.3    28  LEU28       0.1713
     23  C        -30.4520  102.8230    1.7250 C.2    28  LEU28       0.2458
     24  O        -31.0720  103.1120    0.6950 O.2    28  LEU28      -0.2730
     25  CB       -28.2570  103.9270    2.2270 C.3    28  LEU28       0.0310
     26  CG       -26.7660  103.7600    2.5810 C.3    28  LEU28       0.0022
     27  CD1      -26.0810  105.1010    2.8520 C.3    28  LEU28       0.0001
     28  CD2      -26.6540  102.8750    3.7780 C.3    28  LEU28       0.0001
     29  N        -31.0650  102.6650    2.8930 N.am   29  PRO29      -0.2727
     30  CA       -32.4280  103.1740    3.0830 C.3    29  PRO29       0.1402
     31  C        -32.5290  104.6790    2.9100 C.2    29  PRO29       0.2269
     32  O        -31.5910  105.4000    3.2110 O.2    29  PRO29      -0.2865
     33  CB       -32.7500  102.8200    4.5360 C.3    29  PRO29       0.0296
     34  CG       -31.6000  101.9960    5.0390 C.3    29  PRO29       0.0237
     35  CD       -30.4280  102.2470    4.1450 C.3    29  PRO29       0.0939
     36  N        -29.1050   98.7850   13.3100 N.3    84  ASP84      -0.1239
     37  CA       -29.2750   98.7900   11.8670 C.3    84  ASP84       0.1674
     38  C        -28.3010   99.7240   11.1610 C.2    84  ASP84       0.2266
     39  O        -27.8400   99.4250   10.0560 O.2    84  ASP84      -0.2867
     40  CB       -30.6590   99.1800   11.4570 C.3    84  ASP84       0.1410
     41  CG       -30.9940   98.6840   10.0500 C.2    84  ASP84       0.3668
     42  OD1      -30.8790   97.4480    9.8380 O.co2  84  ASP84      -0.2456
     43  OD2      -31.3600   99.5190    9.1670 O.co2  84  ASP84      -0.2456
     44  N        -25.3370   97.7720   10.2820 N.3    87  TRP87      -0.1227
     45  CA       -25.5690   96.9610    9.0730 C.3    87  TRP87       0.1737
     46  C        -25.5360   97.8460    7.8290 C.2    87  TRP87       0.2595
     47  O        -25.0370   97.4400    6.7690 O.2    87  TRP87      -0.2718
     48  CB       -26.9010   96.1930    9.1460 C.3    87  TRP87       0.0564
     49  CG       -26.8450   94.9190    9.9360 C.ar   87  TRP87       0.0003
     50  CD1      -25.8660   93.9680    9.9010 C.ar   87  TRP87       0.0946
     51  CD2      -27.8210   94.4470   10.8690 C.ar   87  TRP87       0.0152
     52  NE1      -26.1630   92.9330   10.7660 N.ar   87  TRP87      -0.2442
     53  CE2      -27.3470   93.2180   11.3920 C.ar   87  TRP87       0.0810
     54  CE3      -29.0470   94.9470   11.3310 C.ar   87  TRP87       0.0012
     55  CZ2      -28.0640   92.4810   12.3340 C.ar   87  TRP87       0.0191
     56  CZ3      -29.7570   94.2000   12.3030 C.ar   87  TRP87       0.0001
     57  CH2      -29.2570   92.9840   12.7770 C.ar   87  TRP87       0.0015
     58  N        -26.1120   99.0360    7.9480 N.am   88  GLN88      -0.1979
     59  CA       -26.1350  100.0170    6.8430 C.3    88  GLN88       0.1601
     60  C        -24.7080  100.3690    6.3910 C.2    88  GLN88       0.2287
     61  O        -24.4120  100.3750    5.2070 O.2    88  GLN88      -0.2864
     62  CB       -26.9120  101.2880    7.2570 C.3    88  GLN88       0.0394
     63  CG       -28.4260  101.0980    7.3220 C.3    88  GLN88       0.0908
     64  CD       -29.2050  102.3230    7.7900 C.2    88  GLN88       0.2608
     65  OE1      -28.8090  103.4710    7.5850 O.2    88  GLN88      -0.2717
     66  NE2      -30.3150  102.0740    8.4680 N.am   88  GLN88      -0.0878
     67  N        -23.0020   97.2030    4.6120 N.3    91  GLY91      -0.1210
     68  CA       -23.5200   97.0640    3.2450 C.3    91  GLY91       0.1956
     69  C        -22.9260   98.1180    2.3380 C.2    91  GLY91       0.2611
     70  O        -22.4100   97.8090    1.2430 O.2    91  GLY91      -0.2717
     71  N        -22.9400   99.3540    2.8140 N.am   92  PHE92      -0.1976
     72  CA       -22.3690  100.4520    2.0580 C.3    92  PHE92       0.1639
     73  C        -20.9110  100.1480    1.6620 C.2    92  PHE92       0.2290
     74  O        -20.4910  100.3620    0.5130 O.2    92  PHE92      -0.2864
     75  CB       -22.4090  101.7290    2.9070 C.3    92  PHE92       0.0560
     76  CG       -21.9030  102.9340    2.1910 C.ar   92  PHE92      -0.0200
     77  CD1      -20.5410  103.2690    2.2190 C.ar   92  PHE92      -0.0042
     78  CD2      -22.7810  103.7260    1.4510 C.ar   92  PHE92      -0.0042
     79  CE1      -20.0660  104.3750    1.5060 C.ar   92  PHE92      -0.0003
     80  CE2      -22.3160  104.8200    0.7570 C.ar   92  PHE92      -0.0003
     81  CZ       -20.9520  105.1530    0.7780 C.ar   92  PHE92      -0.0000
     82  N        -28.2340   94.7750   -1.2890 N.3   103  GLY103     -0.1210
     83  CA       -27.8400   94.4180    0.0690 C.3   103  GLY103      0.1956
     84  C        -28.9230   93.7100    0.8840 C.2   103  GLY103      0.2612
     85  O        -30.0930   94.0880    0.8470 O.2   103  GLY103     -0.2717
     86  N        -28.5210   92.6550    1.5860 N.am  104  ARG104     -0.1965
     87  CA       -29.3100   92.0680    2.6730 C.3   104  ARG104      0.1729
     88  C        -28.4010   91.7370    3.8400 C.2   104  ARG104      0.2616
     89  O        -27.3900   91.0760    3.6850 O.2   104  ARG104     -0.2715
     90  CB       -30.0260   90.8000    2.2240 C.3   104  ARG104      0.0348
     91  CG       -31.0610   91.0350    1.1350 C.3   104  ARG104      0.0492
     92  CD       -32.2700   91.7920    1.6690 C.3   104  ARG104      0.2205
     93  NE       -33.3970   91.7680    0.7470 N.pl3 104  ARG104     -0.0865
     94  CZ       -33.5570   92.6320   -0.2560 C.cat 104  ARG104      0.5346
     95  NH1      -32.6570   93.5830   -0.4610 N.pl3 104  ARG104      0.1354
     96  NH2      -34.6350   92.5540   -1.0440 N.pl3 104  ARG104      0.1354
     97  N        -28.7700   92.2400    5.0110 N.am  105  ALA105     -0.1977
     98  CA       -28.1420   91.8330    6.2500 C.3   105  ALA105      0.1597
     99  C        -28.3660   90.3380    6.4480 C.2   105  ALA105      0.2287
    100  O        -29.4380   89.8220    6.1260 O.2   105  ALA105     -0.2864
    101  CB       -28.7240   92.6390    7.4000 C.3   105  ALA105      0.0319
    102  N        -23.2120   91.2010    6.3240 N.3   162  VAL162     -0.1245
    103  CA       -24.0660   91.6790    5.2550 C.3   162  VAL162      0.1561
    104  C        -23.6370   91.0710    3.9260 C.2   162  VAL162      0.2260
    105  O        -22.4590   90.9430    3.6580 O.2   162  VAL162     -0.2867
    106  CB       -24.0390   93.2230    5.1550 C.3   162  VAL162      0.0252
    107  CG1      -24.9830   93.7160    4.0650 C.3   162  VAL162      0.0019
    108  CG2      -24.4300   93.8550    6.4840 C.3   162  VAL162      0.0019
    109  N        -34.3880   84.8850   -2.1860 N.3   171  PHE171     -0.1241
    110  CA       -33.8940   85.0440   -0.8160 C.3   171  PHE171      0.1605
    111  C        -35.0000   84.7840    0.1980 C.2   171  PHE171      0.2264
    112  O        -36.2060   84.9650   -0.0390 O.2   171  PHE171     -0.2867
    113  CB       -33.2940   86.4500   -0.5910 C.3   171  PHE171      0.0534
    114  CG       -32.5930   86.6180    0.7470 C.ar  171  PHE171     -0.0203
    115  CD1      -31.5550   85.7820    1.1260 C.ar  171  PHE171     -0.0042
    116  CD2      -33.0010   87.5960    1.6380 C.ar  171  PHE171     -0.0042
    117  CE1      -30.9330   85.9350    2.3520 C.ar  171  PHE171     -0.0003
    118  CE2      -32.3710   87.7630    2.8520 C.ar  171  PHE171     -0.0003
    119  CZ       -31.3330   86.9360    3.2090 C.ar  171  PHE171     -0.0000
@<TRIPOS>BOND
     1    19    18    2
     2     7     8    1
     3    18    20   am
     4    18    17    1
     5    17    16    1
     6    10     9    2
     7     4     3    2
     8     8     9    1
     9     8    11    1
    10     9    12   am
    11     1     2    1
    12     2     3    1
    13     2     5    1
    14    16    13    1
    15   109   110    1
    16    12    13    1
    17    13    14    1
    18     5     6    1
    19    82    83    1
    20    96    94    1
    21   110   113    1
    22   110   111    1
    23   113   114    1
    24    95    94    1
    25    94    93    2
    26    14    21   am
    27    14    15    2
    28   112   111    2
    29    83    84    1
    30    21    22    1
    31    74    73    2
    32    24    23    2
    33   114   115   ar
    34   114   116   ar
    35    93    92    1
    36    80    81   ar
    37    80    78   ar
    38    81    79   ar
    39    85    84    2
    40    84    86   am
    41   115   117   ar
    42    91    92    1
    43    91    90    1
    44    70    69    2
    45    78    76   ar
    46    79    77   ar
    47    86    87    1
    48   116   118   ar
    49    73    72    1
    50    23    22    1
    51    23    29   am
    52    22    25    1
    53    72    71    1
    54    72    75    1
    55    76    77   ar
    56    76    75    1
    57    90    87    1
    58    25    26    1
    59    69    71   am
    60    69    68    1
    61   117   119   ar
    62    26    27    1
    63    26    28    1
    64    87    88    1
    65   118   119   ar
    66    29    30    1
    67    29    35    1
    68    31    30    1
    69    31    32    2
    70    30    33    1
    71    68    67    1
    72   105   104    2
    73    89    88    2
    74    88    97   am
    75   104   103    1
    76   107   106    1
    77    35    34    1
    78    33    34    1
    79    97    98    1
    80   106   103    1
    81   106   108    1
    82    61    60    2
    83   103   102    1
    84   100    99    2
    85    98    99    1
    86    98   101    1
    87    60    59    1
    88    47    46    2
    89    59    62    1
    90    59    58    1
    91    62    63    1
    92    63    64    1
    93    65    64    2
    94    64    66   am
    95    46    58   am
    96    46    45    1
    97    45    48    1
    98    45    44    1
    99    48    49    1
   100    43    41   ar
   101    42    41   ar
   102    50    49   ar
   103    50    52   ar
   104    49    51   ar
   105    41    40    1
   106    39    38    2
   107    52    53   ar
   108    51    54   ar
   109    51    53   ar
   110    38    37    1
   111    54    56   ar
   112    53    55   ar
   113    40    37    1
   114    37    36    1
   115    56    57   ar
   116    55    57   ar
