@<TRIPOS>MOLECULE
tmp/4cl6C00.pdb
 89 89 0 0 0
SMALL
GASTEIGER

@<TRIPOS>ATOM
      1  N        -41.6460  106.1660   20.9150 N.3    70  HIS70      -0.1226
      2  CA       -40.7480  105.1470   21.4800 C.3    70  HIS70       0.1752
      3  C        -39.9180  105.7210   22.6220 C.2    70  HIS70       0.2596
      4  O        -38.8040  106.1700   22.3950 O.2    70  HIS70      -0.2718
      5  CB       -39.8190  104.6020   20.3640 C.3    70  HIS70       0.0759
      6  CG       -38.9420  103.4600   20.7840 C.ar   70  HIS70       0.0818
      7  ND1      -37.8010  103.6300   21.5470 N.ar   70  HIS70      -0.2268
      8  CD2      -39.0270  102.1330   20.5300 C.ar   70  HIS70       0.1154
      9  CE1      -37.2330  102.4580   21.7540 C.ar   70  HIS70       0.1986
     10  NE2      -37.9540  101.5320   21.1440 N.ar   70  HIS70      -0.2212
     11  N        -40.4330  105.7450   23.8450 N.am   71  PHE71      -0.1976
     12  CA       -41.8190  105.4170   24.1800 C.3    71  PHE71       0.1639
     13  C        -42.5470  106.6780   24.5960 C.2    71  PHE71       0.2290
     14  O        -41.9070  107.6740   24.9690 O.2    71  PHE71      -0.2864
     15  CB       -41.8440  104.3930   25.3190 C.3    71  PHE71       0.0560
     16  CG       -40.9380  103.2210   25.0700 C.ar   71  PHE71      -0.0200
     17  CD1      -41.4010  102.1040   24.3740 C.ar   71  PHE71      -0.0042
     18  CD2      -39.6080  103.2530   25.4740 C.ar   71  PHE71      -0.0042
     19  CE1      -40.5570  101.0300   24.1040 C.ar   71  PHE71      -0.0003
     20  CE2      -38.7570  102.1890   25.2060 C.ar   71  PHE71      -0.0003
     21  CZ       -39.2300  101.0740   24.5200 C.ar   71  PHE71      -0.0000
     22  N        -36.5780  107.4710   23.8580 N.3    76  VAL76      -0.1231
     23  CA       -35.2610  106.8690   23.7130 C.3    76  VAL76       0.1692
     24  C        -35.0920  106.2480   22.3030 C.2    76  VAL76       0.2592
     25  O        -35.9950  105.5990   21.7750 O.2    76  VAL76      -0.2718
     26  CB       -35.0430  105.8010   24.7960 C.3    76  VAL76       0.0266
     27  CG1      -36.1280  104.7350   24.7320 C.3    76  VAL76       0.0020
     28  CG2      -33.6800  105.1630   24.6420 C.3    76  VAL76       0.0020
     29  N        -33.9430  106.4640   21.6840 N.am   77  MET77      -0.1966
     30  CA       -33.7490  105.9460   20.3370 C.3    77  MET77       0.1721
     31  C        -33.8150  104.4350   20.4050 C.2    77  MET77       0.2458
     32  O        -33.1730  103.8370   21.2480 O.2    77  MET77      -0.2730
     33  CB       -32.3860  106.3710   19.7670 C.3    77  MET77       0.0427
     34  CG       -32.1150  105.8450   18.3690 C.3    77  MET77       0.0599
     35  SD       -30.4960  106.3760   17.7720 S.3    77  MET77      -0.1393
     36  CE       -30.5410  105.7620   16.0700 C.3    77  MET77       0.0692
     37  N        -34.5790  103.8150   19.5070 N.am   78  PRO78      -0.2716
     38  CA       -34.6250  102.3730   19.4990 C.3    78  PRO78       0.1536
     39  C        -33.2530  101.7780   19.2970 C.2    78  PRO78       0.2599
     40  O        -32.5470  102.1360   18.3540 O.2    78  PRO78      -0.2715
     41  CB       -35.5410  102.0500   18.3190 C.3    78  PRO78       0.0310
     42  CG       -36.4070  103.2460   18.1730 C.3    78  PRO78       0.0237
     43  CD       -35.5640  104.4180   18.5950 C.3    78  PRO78       0.0939
     44  N        -32.8800  100.8360   20.1530 N.am   79  GLY79      -0.1941
     45  CA       -31.6350  100.1220   19.9680 C.3    79  GLY79       0.2014
     46  C        -31.5540   99.4650   18.5950 C.2    79  GLY79       0.2639
     47  O        -30.4940   99.4680   17.9710 O.2    79  GLY79      -0.2714
     48  N        -32.6650   98.8950   18.1220 N.am   80  CYS80      -0.1967
     49  CA       -32.6320   98.1750   16.8510 C.3    80  CYS80       0.1712
     50  C        -32.1850   99.0730   15.6980 C.2    80  CYS80       0.2296
     51  O        -31.6480   98.5830   14.7000 O.2    80  CYS80      -0.2864
     52  CB       -33.9810   97.5360   16.5380 C.3    80  CYS80       0.0983
     53  SG       -35.2720   98.6920   16.0960 S.3    80  CYS80      -0.0798
     54  N        -26.4740   96.0700   24.3730 N.3   113  PHE113     -0.1241
     55  CA       -26.8900   97.4330   24.6270 C.3   113  PHE113      0.1605
     56  C        -26.6240   97.6970   26.1050 C.2   113  PHE113      0.2264
     57  O        -27.2210   97.0410   26.9770 O.2   113  PHE113     -0.2867
     58  CB       -28.3950   97.5870   24.3810 C.3   113  PHE113      0.0534
     59  CG       -28.8360   97.2900   22.9730 C.ar  113  PHE113     -0.0203
     60  CD1      -28.0880   97.6790   21.8850 C.ar  113  PHE113     -0.0042
     61  CD2      -30.0500   96.6650   22.7460 C.ar  113  PHE113     -0.0042
     62  CE1      -28.5300   97.4250   20.6040 C.ar  113  PHE113     -0.0003
     63  CE2      -30.4960   96.4130   21.4700 C.ar  113  PHE113     -0.0003
     64  CZ       -29.7380   96.8020   20.3910 C.ar  113  PHE113     -0.0000
     65  N        -26.3430  101.1660   27.2200 N.3   115  GLY115     -0.1210
     66  CA       -26.5720  102.6030   27.3380 C.3   115  GLY115      0.1956
     67  C        -27.6670  103.0210   26.3800 C.2   115  GLY115      0.2611
     68  O        -28.2570  102.1610   25.7050 O.2   115  GLY115     -0.2717
     69  N        -27.9240  104.3280   26.2740 N.am  116  GLN116     -0.1979
     70  CA       -29.0390  104.8060   25.4840 C.3   116  GLN116      0.1601
     71  C        -28.8320  106.1880   24.9070 C.2   116  GLN116      0.2287
     72  O        -27.9810  106.9400   25.3390 O.2   116  GLN116     -0.2864
     73  CB       -30.3320  104.7860   26.3090 C.3   116  GLN116      0.0394
     74  CG       -30.3240  105.7570   27.4700 C.3   116  GLN116      0.0908
     75  CD       -31.5820  105.6790   28.3260 C.2   116  GLN116      0.2608
     76  OE1      -32.5440  104.9680   28.0040 O.2   116  GLN116     -0.2717
     77  NE2      -31.5730  106.4040   29.4330 N.am  116  GLN116     -0.0878
     78  N        -23.3930  100.7300   22.7110 N.3   155  TYR155     -0.1241
     79  CA       -23.6640   99.4090   22.1290 C.3   155  TYR155      0.1605
     80  C        -22.4220   98.7750   21.5460 C.2   155  TYR155      0.2264
     81  O        -21.5460   99.4750   21.0200 O.2   155  TYR155     -0.2867
     82  CB       -24.6800   99.4430   20.9590 C.3   155  TYR155      0.0534
     83  CG       -25.9250  100.2930   21.0700 C.ar  155  TYR155     -0.0201
     84  CD1      -26.4620  100.6690   22.2880 C.ar  155  TYR155     -0.0009
     85  CD2      -26.5990  100.6580   19.9370 C.ar  155  TYR155     -0.0009
     86  CE1      -27.6220  101.4230   22.3610 C.ar  155  TYR155      0.0417
     87  CE2      -27.7490  101.4220   19.9930 C.ar  155  TYR155      0.0417
     88  CZ       -28.2650  101.8040   21.2080 C.ar  155  TYR155      0.1957
     89  OH       -29.4140  102.5520   21.2520 O.3   155  TYR155     -0.2866
@<TRIPOS>BOND
     1    51    50    2
     2    50    49    1
     3    36    35    1
     4    53    52    1
     5    52    49    1
     6    49    48    1
     7    35    34    1
     8    47    46    2
     9    48    46   am
    10    42    41    1
    11    42    43    1
    12    41    38    1
    13    40    39    2
    14    34    33    1
    15    46    45    1
    16    43    37    1
    17    39    38    1
    18    39    44   am
    19    38    37    1
    20    37    31   am
    21    33    30    1
    22    85    87   ar
    23    85    83   ar
    24    45    44    1
    25    87    88   ar
    26    30    31    1
    27    30    29    1
    28     5     6    1
    29     5     2    1
    30    64    62   ar
    31    64    63   ar
    32    31    32    2
    33     8     6   ar
    34     8    10   ar
    35    62    60   ar
    36     6     7   ar
    37     1     2    1
    38    82    83    1
    39    82    79    1
    40    81    80    2
    41    83    84   ar
    42    10     9   ar
    43    88    89    1
    44    88    86   ar
    45    63    61   ar
    46     2     3    1
    47    80    79    1
    48     7     9   ar
    49    29    24   am
    50    25    24    2
    51    60    59   ar
    52    79    78    1
    53    84    86   ar
    54    24    23    1
    55     4     3    2
    56     3    11   am
    57    61    59   ar
    58    59    58    1
    59    23    22    1
    60    23    26    1
    61    11    12    1
    62    19    17   ar
    63    19    21   ar
    64    12    13    1
    65    12    15    1
    66    54    55    1
    67    17    16   ar
    68    58    55    1
    69    21    20   ar
    70    13    14    2
    71    55    56    1
    72    28    26    1
    73    27    26    1
    74    71    72    2
    75    71    70    1
    76    16    15    1
    77    16    18   ar
    78    20    18   ar
    79    70    69    1
    80    70    73    1
    81    68    67    2
    82    56    57    2
    83    69    67   am
    84    73    74    1
    85    67    66    1
    86    65    66    1
    87    74    75    1
    88    76    75    2
    89    75    77   am
