@<TRIPOS>MOLECULE
tmp/4cl8C00.pdb
 159 154 0 0 0
SMALL
GASTEIGER

@<TRIPOS>ATOM
      1  N          1.0840   17.4530   43.6480 N.3    13  ARG13      -0.1245
      2  CA         0.2140   17.5420   42.4990 C.3    13  ARG13       0.1563
      3  C         -0.6270   16.2750   42.4240 C.2    13  ARG13       0.2260
      4  O         -1.2840   15.9310   43.4040 O.2    13  ARG13      -0.2867
      5  CB         1.0400   17.8660   41.2280 C.3    13  ARG13       0.0307
      6  CG         1.6430   19.2790   41.2480 C.3    13  ARG13       0.0489
      7  CD         2.8140   19.4700   40.2810 C.3    13  ARG13       0.2205
      8  NE         2.4720   19.1090   38.9020 N.pl3  13  ARG13      -0.0865
      9  CZ         1.8350   19.8900   38.0310 C.cat  13  ARG13       0.5346
     10  NH1        1.4800   21.1290   38.3410 N.pl3  13  ARG13       0.1354
     11  NH2        1.5510   19.4270   36.8230 N.pl3  13  ARG13       0.1354
     12  N          6.7510   11.0420   36.4320 N.3    94  SER94      -0.1217
     13  CA         6.9170   11.2700   35.0010 C.3    94  SER94       0.1889
     14  C          7.6960   12.5090   34.6620 C.2    94  SER94       0.2288
     15  O          7.3490   13.5810   35.1350 O.2    94  SER94      -0.2866
     16  CB         5.5450   11.3740   34.3400 C.3    94  SER94       0.2089
     17  OG         5.6270   12.1600   33.1780 O.3    94  SER94      -0.2183
     18  N          8.6460   15.3090   31.8270 N.3    96  PHE96      -0.1241
     19  CA         7.8310   15.9290   30.8290 C.3    96  PHE96       0.1605
     20  C          8.4890   17.2320   30.3620 C.2    96  PHE96       0.2264
     21  O          8.5430   18.2070   31.1160 O.2    96  PHE96      -0.2867
     22  CB         6.4190   16.1890   31.3780 C.3    96  PHE96       0.0534
     23  CG         5.4910   16.9410   30.4260 C.ar   96  PHE96      -0.0203
     24  CD1        5.1220   16.3940   29.2140 C.ar   96  PHE96      -0.0042
     25  CD2        4.9720   18.1740   30.7600 C.ar   96  PHE96      -0.0042
     26  CE1        4.2750   17.0650   28.3460 C.ar   96  PHE96      -0.0003
     27  CE2        4.1140   18.8590   29.9090 C.ar   96  PHE96      -0.0003
     28  CZ         3.7800   18.3030   28.6840 C.ar   96  PHE96      -0.0000
     29  N         -1.9370    9.2270   29.2370 N.3   141  ASP141     -0.1239
     30  CA        -2.1170   10.5510   28.6680 C.3   141  ASP141      0.1674
     31  C         -3.2620   10.4200   27.6780 C.2   141  ASP141      0.2266
     32  O         -3.2290    9.5660   26.7810 O.2   141  ASP141     -0.2867
     33  CB        -0.8210   10.9850   27.9950 C.3   141  ASP141      0.1410
     34  CG        -0.7750   12.4760   27.6590 C.2   141  ASP141      0.3668
     35  OD1       -1.7470   12.9630   27.0620 O.co2 141  ASP141     -0.2456
     36  OD2        0.2380   13.1690   27.9670 O.co2 141  ASP141     -0.2456
     37  N         -4.1460   12.5100   25.3850 N.3   143  MET143     -0.1245
     38  CA        -3.8490   13.1790   24.1000 C.3   143  MET143      0.1570
     39  C         -2.7830   12.4310   23.3040 C.2   143  MET143      0.2261
     40  O         -2.0890   13.0030   22.4740 O.2   143  MET143     -0.2867
     41  CB        -3.3170   14.6050   24.3870 C.3   143  MET143      0.0387
     42  CG        -4.2820   15.4770   25.1880 C.3   143  MET143      0.0595
     43  SD        -5.8530   15.5910   24.3240 S.3   143  MET143     -0.1393
     44  CE        -5.3470   16.7130   23.0280 C.3   143  MET143      0.0692
     45  N         -0.6520   14.3030   19.8230 N.3   147  PRO147     -0.2102
     46  CA         0.3460   14.7430   20.7840 C.3   147  PRO147      0.1504
     47  C          0.7410   16.2410   20.6420 C.2   147  PRO147      0.2576
     48  O          0.4970   16.8740   19.5510 O.2   147  PRO147     -0.2718
     49  CB         1.5190   13.8420   20.4750 C.3   147  PRO147      0.0282
     50  CG         1.3710   13.5660   18.9970 C.3   147  PRO147      0.0208
     51  CD        -0.0910   13.4050   18.7990 C.3   147  PRO147      0.0893
     52  N          1.3000   16.7820   21.7570 N.am  148  CYS148     -0.1971
     53  CA         1.9300   18.0860   21.8040 C.3   148  CYS148      0.1712
     54  C          3.0770   18.1720   20.8170 C.2   148  CYS148      0.2296
     55  O          3.8600   17.2410   20.6570 O.2   148  CYS148     -0.2864
     56  CB         2.4370   18.3620   23.2180 C.3   148  CYS148      0.0983
     57  SG         1.2190   18.3600   24.5240 S.3   148  CYS148     -0.0798
     58  N          7.1420   16.9090   21.2830 N.3   151  PHE151     -0.1241
     59  CA         7.2310   16.1410   22.5050 C.3   151  PHE151      0.1605
     60  C          7.3240   14.6470   22.1730 C.2   151  PHE151      0.2264
     61  O          6.7690   13.8120   22.8650 O.2   151  PHE151     -0.2867
     62  CB         6.0090   16.4170   23.3880 C.3   151  PHE151      0.0534
     63  CG         6.1240   17.6370   24.2860 C.ar  151  PHE151     -0.0203
     64  CD1        5.8130   18.8990   23.8160 C.ar  151  PHE151     -0.0042
     65  CD2        6.4390   17.4890   25.6560 C.ar  151  PHE151     -0.0042
     66  CE1        5.8540   20.0140   24.6720 C.ar  151  PHE151     -0.0003
     67  CE2        6.4700   18.5890   26.5020 C.ar  151  PHE151     -0.0003
     68  CZ         6.1930   19.8550   26.0010 C.ar  151  PHE151     -0.0000
     69  N          8.5010   11.9480   25.0590 N.3   154  TYR154     -0.1227
     70  CA         7.4580   11.8470   26.0740 C.3   154  TYR154      0.1736
     71  C          6.3380   11.0310   25.4790 C.2   154  TYR154      0.2595
     72  O          5.8060   10.0720   26.1170 O.2   154  TYR154     -0.2718
     73  CB         6.9630   13.2530   26.4750 C.3   154  TYR154      0.0548
     74  CG         5.6900   13.2570   27.2980 C.ar  154  TYR154     -0.0200
     75  CD1        5.7180   12.9880   28.6530 C.ar  154  TYR154     -0.0009
     76  CD2        4.4730   13.5050   26.7040 C.ar  154  TYR154     -0.0009
     77  CE1        4.5560   12.9530   29.4060 C.ar  154  TYR154      0.0417
     78  CE2        3.2920   13.4930   27.4370 C.ar  154  TYR154      0.0417
     79  CZ         3.3380   13.2120   28.7810 C.ar  154  TYR154      0.1957
     80  OH         2.1860   13.1860   29.5070 O.3   154  TYR154     -0.2866
     81  N          5.9960   11.3750   24.2380 N.am  155  ASN155     -0.1974
     82  CA         4.8630   10.7410   23.5970 C.3   155  ASN155      0.1688
     83  C          5.1250    9.2390   23.3720 C.2   155  ASN155      0.2292
     84  O          4.2460    8.3960   23.5900 O.2   155  ASN155     -0.2864
     85  CB         4.4710   11.4380   22.3070 C.3   155  ASN155      0.1181
     86  CG         3.1620   10.9210   21.7790 C.2   155  ASN155      0.2629
     87  OD1        3.0420   10.4950   20.6080 O.2   155  ASN155     -0.2716
     88  ND2        2.1470   10.9300   22.6510 N.am  155  ASN155     -0.0877
     89  N          4.7010    7.5150   26.7530 N.3   158  LYS158     -0.1245
     90  CA         3.3050    7.3080   27.1250 C.3   158  LYS158      0.1561
     91  C          2.6430    6.2810   26.2430 C.2   158  LYS158      0.2260
     92  O          1.7500    5.5600   26.6930 O.2   158  LYS158     -0.2867
     93  CB         2.5390    8.6110   27.1120 C.3   158  LYS158      0.0271
     94  CG         2.9450    9.6060   28.2170 C.3   158  LYS158      0.0035
     95  CD         2.6830    8.9730   29.5920 C.3   158  LYS158      0.0206
     96  CE         2.7920    9.9550   30.7410 C.3   158  LYS158      0.1093
     97  NZ         2.6440    9.3120   32.0750 N.3   158  LYS158     -0.1314
     98  N         -6.3040   14.5420   30.5970 N.3   185  GLY185     -0.1210
     99  CA        -6.1610   15.3280   29.3920 C.3   185  GLY185      0.1956
    100  C         -5.2960   16.4680   29.8240 C.2   185  GLY185      0.2612
    101  O         -4.0770   16.4360   29.6660 O.2   185  GLY185     -0.2717
    102  N         -5.9540   17.4820   30.3650 N.am  186  VAL186     -0.1965
    103  CA        -5.2960   18.5590   31.0790 C.3   186  VAL186      0.1727
    104  C         -5.8310   18.5740   32.5120 C.2   186  VAL186      0.2617
    105  O         -7.0440   18.6100   32.7610 O.2   186  VAL186     -0.2715
    106  CB        -5.5160   19.9190   30.3990 C.3   186  VAL186      0.0290
    107  CG1       -5.2230   21.0440   31.3760 C.3   186  VAL186      0.0023
    108  CG2       -4.6110   20.0400   29.1950 C.3   186  VAL186      0.0023
    109  N         -4.9080   18.4970   33.4520 N.am  187  SER187     -0.1936
    110  CA        -5.2310   18.5620   34.8500 C.3   187  SER187      0.2055
    111  C         -4.2900   19.7150   35.3320 C.2   187  SER187      0.2643
    112  O         -4.1160   20.7310   34.6110 O.2   187  SER187     -0.2714
    113  CB        -4.9850   17.1760   35.4750 C.3   187  SER187      0.2130
    114  OG        -5.0490   17.1980   36.8930 O.3   187  SER187     -0.2179
    115  N         -3.6400   19.5580   36.4800 N.am  188  LEU188     -0.1963
    116  CA        -2.7820   20.6310   36.9890 C.3   188  LEU188      0.1728
    117  C         -1.7200   20.9220   35.9540 C.2   188  LEU188      0.2616
    118  O         -0.9600   20.0220   35.5350 O.2   188  LEU188     -0.2715
    119  CB        -2.1030   20.2480   38.2930 C.3   188  LEU188      0.0311
    120  CG        -3.0160   19.8250   39.4400 C.3   188  LEU188      0.0022
    121  CD1       -2.1460   19.4050   40.6270 C.3   188  LEU188      0.0001
    122  CD2       -3.9890   20.9570   39.7660 C.3   188  LEU188      0.0001
    123  N         -1.6890   22.1730   35.5200 N.am  189  LEU189     -0.1964
    124  CA        -0.7910   22.5660   34.4510 C.3   189  LEU189      0.1713
    125  C          0.6070   22.7570   35.0310 C.2   189  LEU189      0.2458
    126  O          0.7470   23.0510   36.2220 O.2   189  LEU189     -0.2730
    127  CB        -1.3290   23.8320   33.7670 C.3   189  LEU189      0.0310
    128  CG        -2.6380   23.4960   33.0300 C.3   189  LEU189      0.0022
    129  CD1       -3.6050   24.6500   32.9640 C.3   189  LEU189      0.0001
    130  CD2       -2.3320   22.9510   31.6350 C.3   189  LEU189      0.0001
    131  N          1.6450   22.5920   34.1930 N.am  190  PRO190     -0.2727
    132  CA         3.0210   22.7070   34.6930 C.3   190  PRO190      0.1402
    133  C          3.2770   24.0560   35.3610 C.2   190  PRO190      0.2269
    134  O          2.7420   25.0890   34.9380 O.2   190  PRO190     -0.2865
    135  CB         3.8890   22.5250   33.4350 C.3   190  PRO190      0.0296
    136  CG         2.9700   22.0030   32.3690 C.3   190  PRO190      0.0237
    137  CD         1.6000   22.5300   32.7200 C.3   190  PRO190      0.0939
    138  N          4.6300   26.8260   33.0950 N.3   193  MET193     -0.1245
    139  CA         3.7710   27.2990   32.0300 C.3   193  MET193      0.1570
    140  C          3.1800   28.6560   32.3680 C.2   193  MET193      0.2261
    141  O          2.7380   28.8890   33.4980 O.2   193  MET193     -0.2867
    142  CB         2.6410   26.2850   31.7410 C.3   193  MET193      0.0387
    143  CG         1.7420   26.6750   30.5640 C.3   193  MET193      0.0595
    144  SD         0.4060   25.5160   30.2040 S.3   193  MET193     -0.1393
    145  CE         1.1930   24.2940   29.1570 C.3   193  MET193      0.0692
    146  N         -5.3860   26.3160   27.0340 N.3   201  TRP201     -0.1241
    147  CA        -5.7300   24.8970   27.2060 C.3   201  TRP201      0.1605
    148  C         -7.0820   24.7200   27.9150 C.2   201  TRP201      0.2264
    149  O         -7.9470   23.9630   27.4240 O.2   201  TRP201     -0.2867
    150  CB        -4.6510   24.1870   27.9840 C.3   201  TRP201      0.0550
    151  CG        -3.4950   23.7710   27.1560 C.ar  201  TRP201      0.0003
    152  CD1       -2.2970   24.3620   27.1130 C.ar  201  TRP201      0.0946
    153  CD2       -3.4230   22.6370   26.2770 C.ar  201  TRP201      0.0152
    154  NE1       -1.4770   23.7010   26.2670 N.ar  201  TRP201     -0.2442
    155  CE2       -2.1370   22.6270   25.7350 C.ar  201  TRP201      0.0810
    156  CE3       -4.3260   21.6490   25.8910 C.ar  201  TRP201      0.0012
    157  CZ2       -1.7010   21.6560   24.8360 C.ar  201  TRP201      0.0191
    158  CZ3       -3.9030   20.6790   24.9950 C.ar  201  TRP201      0.0001
    159  CH2       -2.5840   20.6900   24.4800 C.ar  201  TRP201      0.0015
@<TRIPOS>BOND
     1    51    50    1
     2    51    45    1
     3    50    49    1
     4    48    47    2
     5    45    46    1
     6    49    46    1
     7    87    86    2
     8    47    46    1
     9    47    52   am
    10    55    54    2
    11    54    53    1
    12    58    59    1
    13    52    53    1
    14    86    85    1
    15    86    88   am
    16    53    56    1
    17    60    59    1
    18    60    61    2
    19    85    82    1
    20    40    39    2
    21    59    62    1
    22    44    43    1
    23    56    57    1
    24    39    38    1
    25    83    84    2
    26    83    82    1
    27    62    63    1
    28    82    81    1
    29    64    63   ar
    30    64    66   ar
    31    38    41    1
    32    38    37    1
    33    81    71   am
    34    63    65   ar
    35    43    42    1
    36    41    42    1
    37   159   157   ar
    38   159   158   ar
    39    66    68   ar
    40   157   155   ar
    41   158   156   ar
    42    69    70    1
    43    71    70    1
    44    71    72    2
    45    65    67   ar
    46   155   154   ar
    47   155   153   ar
    48   156   153   ar
    49    68    67   ar
    50    70    73    1
    51    91    92    2
    52    91    90    1
    53   154   152   ar
    54   153   151   ar
    55    73    74    1
    56    76    74   ar
    57    76    78   ar
    58    89    90    1
    59    32    31    2
    60   146   147    1
    61    35    34   ar
    62    93    90    1
    63    93    94    1
    64   152   151   ar
    65   151   150    1
    66   147   148    1
    67   147   150    1
    68    74    75   ar
    69   149   148    2
    70    78    79   ar
    71    34    36   ar
    72    34    33    1
    73    31    30    1
    74    33    30    1
    75    94    95    1
    76    26    28   ar
    77    26    24   ar
    78    75    77   ar
    79    30    29    1
    80    28    27   ar
    81    79    77   ar
    82    79    80    1
    83   145   144    1
    84   108   106    1
    85    24    23   ar
    86    99   100    1
    87    99    98    1
    88    95    96    1
    89   101   100    2
    90   100   102   am
    91    27    25   ar
    92   144   143    1
    93    20    19    1
    94    20    21    2
    95   102   103    1
    96   106   103    1
    97   106   107    1
    98    23    25   ar
    99    23    22    1
   100   143   142    1
   101    96    97    1
   102    19    22    1
   103    19    18    1
   104   103   104    1
   105   130   128    1
   106   142   139    1
   107   139   140    1
   108   139   138    1
   109   140   141    2
   110   136   137    1
   111   136   135    1
   112   104   105    2
   113   104   109   am
   114   137   131    1
   115   129   128    1
   116   128   127    1
   117    17    16    1
   118   135   132    1
   119   109   110    1
   120   127   124    1
   121   131   132    1
   122   131   125   am
   123    16    13    1
   124   124   125    1
   125   124   123    1
   126   112   111    2
   127    14    13    1
   128    14    15    2
   129   132   133    1
   130   110   111    1
   131   110   113    1
   132   134   133    2
   133    13    12    1
   134   125   126    2
   135   111   115   am
   136   113   114    1
   137   123   117   am
   138   118   117    2
   139   117   116    1
   140   115   116    1
   141    11     9    1
   142   116   119    1
   143     9    10    1
   144     9     8    2
   145   119   120    1
   146     8     7    1
   147   120   122    1
   148   120   121    1
   149     7     6    1
   150     5     6    1
   151     5     2    1
   152     3     2    1
   153     3     4    2
   154     2     1    1
