@<TRIPOS>MOLECULE
tmp/4cl9A00.pdb
 173 173 0 0 0
SMALL
GASTEIGER

@<TRIPOS>ATOM
      1  N         35.7310   36.2090    6.6730 N.3    34  TRP34      -0.1241
      2  CA        36.4460   37.4660    6.9280 C.3    34  TRP34       0.1605
      3  C         37.6030   37.6910    5.9980 C.2    34  TRP34       0.2264
      4  O         37.8700   38.8330    5.6130 O.2    34  TRP34      -0.2867
      5  CB        36.9380   37.5290    8.3650 C.3    34  TRP34       0.0550
      6  CG        37.3420   38.9110    8.8120 C.ar   34  TRP34       0.0003
      7  CD1       38.6050   39.4980    8.7580 C.ar   34  TRP34       0.0946
      8  CD2       36.4750   39.9290    9.4070 C.ar   34  TRP34       0.0152
      9  NE1       38.5710   40.7720    9.2620 N.ar   34  TRP34      -0.2442
     10  CE2       37.3200   41.0900    9.6700 C.ar   34  TRP34       0.0810
     11  CE3       35.1300   39.9870    9.7340 C.ar   34  TRP34       0.0012
     12  CZ2       36.8220   42.2440   10.2400 C.ar   34  TRP34       0.0191
     13  CZ3       34.6410   41.1570   10.3110 C.ar   34  TRP34       0.0001
     14  CH2       35.4670   42.2590   10.5520 C.ar   34  TRP34       0.0015
     15  N         35.3480   42.8790    2.5920 N.3    40  TRP40      -0.1228
     16  CA        35.5360   44.2120    3.1840 C.3    40  TRP40       0.1722
     17  C         34.3070   45.1030    3.2640 C.2    40  TRP40       0.2437
     18  O         34.1450   45.8100    4.2520 O.2    40  TRP40      -0.2733
     19  CB        36.7480   44.9560    2.5810 C.3    40  TRP40       0.0563
     20  CG        36.5800   45.3120    1.1340 C.ar   40  TRP40       0.0003
     21  CD1       36.9700   44.5690    0.0220 C.ar   40  TRP40       0.0946
     22  CD2       35.9380   46.5080    0.5950 C.ar   40  TRP40       0.0152
     23  NE1       36.6200   45.2140   -1.1320 N.ar   40  TRP40      -0.2442
     24  CE2       35.9940   46.3870   -0.8600 C.ar   40  TRP40       0.0810
     25  CE3       35.3370   47.6250    1.1520 C.ar   40  TRP40       0.0012
     26  CZ2       35.4630   47.3570   -1.6970 C.ar   40  TRP40       0.0191
     27  CZ3       34.8060   48.5940    0.3000 C.ar   40  TRP40       0.0001
     28  CH2       34.8790   48.4670   -1.0930 C.ar   40  TRP40       0.0015
     29  N         33.3980   45.0700    2.2650 N.am   41  PRO41      -0.2718
     30  CA        32.2290   45.9470    2.4400 C.3    41  PRO41       0.1535
     31  C         31.3090   45.5360    3.5860 C.2    41  PRO41       0.2599
     32  O         30.5040   46.3490    4.0390 O.2    41  PRO41      -0.2715
     33  CB        31.4840   45.8120    1.1120 C.3    41  PRO41       0.0310
     34  CG        32.5120   45.3030    0.1450 C.3    41  PRO41       0.0237
     35  CD        33.3600   44.3770    0.9630 C.3    41  PRO41       0.0939
     36  N         31.4350   44.2950    4.0430 N.am   42  PHE42      -0.1960
     37  CA        30.5760   43.7150    5.0580 C.3    42  PHE42       0.1771
     38  C         31.2330   43.6800    6.4360 C.2    42  PHE42       0.2619
     39  O         30.6370   43.1920    7.3880 O.2    42  PHE42      -0.2715
     40  CB        30.1880   42.2910    4.6270 C.3    42  PHE42       0.0574
     41  CG        29.5310   42.2370    3.2780 C.ar   42  PHE42      -0.0200
     42  CD1       28.1700   42.4800    3.1520 C.ar   42  PHE42      -0.0042
     43  CD2       30.2710   41.9800    2.1330 C.ar   42  PHE42      -0.0042
     44  CE1       27.5630   42.4590    1.9110 C.ar   42  PHE42      -0.0003
     45  CE2       29.6630   41.9550    0.8880 C.ar   42  PHE42      -0.0003
     46  CZ        28.3090   42.1930    0.7810 C.ar   42  PHE42      -0.0000
     47  N         32.4370   44.2270    6.5590 N.am   43  GLN43      -0.1963
     48  CA        33.2040   44.1460    7.8170 C.3    43  GLN43       0.1733
     49  C         32.8350   45.1970    8.8680 C.2    43  GLN43       0.2616
     50  O         33.4290   45.2350    9.9430 O.2    43  GLN43      -0.2715
     51  CB        34.7070   44.1920    7.5280 C.3    43  GLN43       0.0408
     52  CG        35.2360   42.8800    6.9700 C.3    43  GLN43       0.0908
     53  CD        36.6770   42.9520    6.5110 C.2    43  GLN43       0.2608
     54  OE1       37.2350   44.0310    6.3590 O.2    43  GLN43      -0.2717
     55  NE2       37.2750   41.7900    6.2560 N.am   43  GLN43      -0.0878
     56  N         31.8770   46.0630    8.5520 N.am   44  GLN44      -0.1964
     57  CA        31.4310   47.1060    9.4760 C.3    44  GLN44       0.1718
     58  C         30.0470   47.5570    9.0490 C.2    44  GLN44       0.2458
     59  O         29.6320   47.2690    7.9340 O.2    44  GLN44      -0.2730
     60  CB        32.4100   48.2790    9.4650 C.3    44  GLN44       0.0407
     61  CG        32.5840   48.9640    8.1140 C.3    44  GLN44       0.0908
     62  CD        33.3730   48.1420    7.1170 C.2    44  GLN44       0.2608
     63  OE1       34.5190   47.7770    7.3790 O.2    44  GLN44      -0.2717
     64  NE2       32.7680   47.8430    5.9660 N.am   44  GLN44      -0.0878
     65  N         29.3100   48.2450    9.9340 N.am   45  PRO45      -0.2716
     66  CA        27.9840   48.7430    9.5440 C.3    45  PRO45       0.1536
     67  C         27.9990   49.5840    8.2680 C.2    45  PRO45       0.2598
     68  O         28.9600   50.2950    8.0090 O.2    45  PRO45      -0.2715
     69  CB        27.5800   49.6010   10.7470 C.3    45  PRO45       0.0310
     70  CG        28.2780   48.9560   11.9040 C.3    45  PRO45       0.0237
     71  CD        29.6030   48.5150   11.3530 C.3    45  PRO45       0.0939
     72  N         26.9360   49.4890    7.4780 N.am   46  VAL46      -0.1964
     73  CA        26.8050   50.3180    6.2900 C.3    46  VAL46       0.1727
     74  C         26.8430   51.7920    6.6950 C.2    46  VAL46       0.2616
     75  O         26.0440   52.2410    7.5020 O.2    46  VAL46      -0.2715
     76  CB        25.4910   50.0200    5.5370 C.3    46  VAL46       0.0290
     77  CG1       25.3180   50.9750    4.3620 C.3    46  VAL46       0.0023
     78  CG2       25.4590   48.5740    5.0660 C.3    46  VAL46       0.0023
     79  N         27.7960   52.5330    6.1490 N.am   47  ASP47      -0.1971
     80  CA        27.9250   53.9580    6.4250 C.3    47  ASP47       0.1709
     81  C         27.2130   54.6950    5.3010 C.2    47  ASP47       0.2293
     82  O         27.7910   54.9790    4.2550 O.2    47  ASP47      -0.2864
     83  CB        29.4010   54.3520    6.5270 C.3    47  ASP47       0.1436
     84  CG        29.5960   55.7930    6.9480 C.2    47  ASP47       0.3671
     85  OD1       28.6630   56.6060    6.7790 O.co2  47  ASP47      -0.2456
     86  OD2       30.7030   56.1290    7.4250 O.co2  47  ASP47      -0.2456
     87  N         28.7240   58.1790    4.2850 N.3    50  LYS50      -0.1231
     88  CA        29.8710   58.0210    3.3870 C.3    50  LYS50       0.1693
     89  C         29.4230   57.6700    1.9590 C.2    50  LYS50       0.2591
     90  O         29.9790   58.1710    0.9880 O.2    50  LYS50      -0.2718
     91  CB        30.7950   56.9340    3.9320 C.3    50  LYS50       0.0285
     92  CG        31.9920   56.5990    3.0470 C.3    50  LYS50       0.0035
     93  CD        32.7890   55.4230    3.5910 C.3    50  LYS50       0.0206
     94  CE        33.6310   55.8410    4.7910 C.3    50  LYS50       0.1093
     95  NZ        34.5040   54.7640    5.3180 N.3    50  LYS50      -0.1314
     96  N         28.4210   56.8030    1.8410 N.am   51  LEU51      -0.1980
     97  CA        27.9290   56.3390    0.5400 C.3    51  LEU51       0.1596
     98  C         26.9030   57.2720   -0.1070 C.2    51  LEU51       0.2287
     99  O         26.4850   57.0340   -1.2410 O.2    51  LEU51      -0.2864
    100  CB        27.3080   54.9470    0.6950 C.3    51  LEU51       0.0297
    101  CG        28.3000   53.8220    1.0020 C.3    51  LEU51       0.0022
    102  CD1       27.5790   52.5640    1.4480 C.3    51  LEU51       0.0001
    103  CD2       29.1550   53.5490   -0.2260 C.3    51  LEU51       0.0001
    104  N         23.7270   57.5050    0.7000 N.3    53  LEU53      -0.1245
    105  CA        22.5340   56.7010    0.5060 C.3    53  LEU53       0.1561
    106  C         21.5630   57.0240    1.6320 C.2    53  LEU53       0.2260
    107  O         21.4010   56.2340    2.5570 O.2    53  LEU53      -0.2867
    108  CB        22.8810   55.2120    0.4960 C.3    53  LEU53       0.0270
    109  CG        23.8030   54.7390   -0.6310 C.3    53  LEU53       0.0019
    110  CD1       24.2270   53.2960   -0.3780 C.3    53  LEU53       0.0001
    111  CD2       23.1370   54.8900   -1.9940 C.3    53  LEU53       0.0001
    112  N         19.0540   54.3200    2.8680 N.3    56  TYR56      -0.1241
    113  CA        19.4470   52.9650    3.2420 C.3    56  TYR56       0.1605
    114  C         18.7120   52.5150    4.5050 C.2    56  TYR56       0.2264
    115  O         18.1440   51.4260    4.5480 O.2    56  TYR56      -0.2867
    116  CB        20.9670   52.8120    3.4300 C.3    56  TYR56       0.0534
    117  CG        21.3220   51.3730    3.7350 C.ar   56  TYR56      -0.0201
    118  CD1       21.4420   50.4340    2.7160 C.ar   56  TYR56      -0.0009
    119  CD2       21.4550   50.9360    5.0400 C.ar   56  TYR56      -0.0009
    120  CE1       21.7220   49.1040    2.9900 C.ar   56  TYR56       0.0417
    121  CE2       21.7340   49.6100    5.3220 C.ar   56  TYR56       0.0417
    122  CZ        21.8690   48.7030    4.2980 C.ar   56  TYR56       0.1957
    123  OH        22.1260   47.3860    4.6150 O.3    56  TYR56      -0.2866
    124  N         21.3040   42.9670    1.8400 N.3    95  CYS95      -0.1235
    125  CA        22.0220   43.2930    0.6250 C.3    95  CYS95       0.1677
    126  C         21.1610   42.9970   -0.5990 C.2    95  CYS95       0.2270
    127  O         21.0890   43.8070   -1.5140 O.2    95  CYS95      -0.2867
    128  CB        23.3270   42.5030    0.5810 C.3    95  CYS95       0.0956
    129  SG        24.4040   42.9390   -0.7820 S.3    95  CYS95      -0.0801
    130  N         18.1320   45.7080   -0.7030 N.3    98  TYR98      -0.1227
    131  CA        18.4650   47.0930   -1.0280 C.3    98  TYR98       0.1736
    132  C         18.9820   47.2700   -2.4520 C.2    98  TYR98       0.2595
    133  O         18.6510   48.2460   -3.1190 O.2    98  TYR98      -0.2718
    134  CB        19.4880   47.6730   -0.0380 C.3    98  TYR98       0.0548
    135  CG        19.7230   49.1410   -0.3080 C.ar   98  TYR98      -0.0200
    136  CD1       18.8130   50.1000    0.1150 C.ar   98  TYR98      -0.0009
    137  CD2       20.8140   49.5640   -1.0470 C.ar   98  TYR98      -0.0009
    138  CE1       18.9990   51.4350   -0.1700 C.ar   98  TYR98       0.0417
    139  CE2       21.0060   50.8970   -1.3400 C.ar   98  TYR98       0.0417
    140  CZ        20.0920   51.8290   -0.8990 C.ar   98  TYR98       0.1957
    141  OH        20.2720   53.1600   -1.2100 O.3    98  TYR98      -0.2866
    142  N         19.7980   46.3280   -2.9030 N.am   99  ASN99      -0.1974
    143  CA        20.5300   46.4530   -4.1620 C.3    99  ASN99       0.1688
    144  C         19.8420   45.6850   -5.2870 C.2    99  ASN99       0.2292
    145  O         18.9950   44.8330   -5.0320 O.2    99  ASN99      -0.2864
    146  CB        21.9570   45.9510   -3.9500 C.3    99  ASN99       0.1181
    147  CG        22.6830   46.7320   -2.8760 C.2    99  ASN99       0.2629
    148  OD1       23.1170   47.8620   -3.0980 O.2    99  ASN99      -0.2716
    149  ND2       22.7930   46.1460   -1.6970 N.am   99  ASN99      -0.0877
    150  N         27.3950   44.7510   -8.3590 N.3   104  ASP104     -0.1225
    151  CA        28.6400   44.1760   -7.8400 C.3   104  ASP104      0.1805
    152  C         28.5120   43.7240   -6.3900 C.2   104  ASP104      0.2597
    153  O         29.0000   42.6620   -6.0360 O.2   104  ASP104     -0.2718
    154  CB        29.7950   45.1750   -7.9420 C.3   104  ASP104      0.1424
    155  CG        30.2850   45.3740   -9.3620 C.2   104  ASP104      0.3668
    156  OD1       30.0090   44.5330  -10.2400 O.co2 104  ASP104     -0.2456
    157  OD2       30.9650   46.3870   -9.5970 O.co2 104  ASP104     -0.2456
    158  N         27.8560   44.5220   -5.5520 N.am  105  ILE105     -0.1980
    159  CA        27.7710   44.1820   -4.1270 C.3   105  ILE105      0.1595
    160  C         26.9730   42.8990   -3.9190 C.2   105  ILE105      0.2287
    161  O         27.2470   42.1390   -2.9910 O.2   105  ILE105     -0.2864
    162  CB        27.1880   45.3470   -3.2930 C.3   105  ILE105      0.0276
    163  CG1       27.3570   45.1220   -1.7800 C.3   105  ILE105      0.0022
    164  CG2       25.7220   45.5830   -3.6380 C.3   105  ILE105      0.0022
    165  CD1       28.7850   45.2030   -1.2640 C.3   105  ILE105      0.0001
    166  N         29.1960   39.9890   -4.7090 N.3   108  MET108     -0.1245
    167  CA        30.0820   39.8060   -3.5680 C.3   108  MET108      0.1570
    168  C         29.3600   39.0760   -2.4300 C.2   108  MET108      0.2261
    169  O         29.8900   38.1150   -1.8840 O.2   108  MET108     -0.2867
    170  CB        30.6320   41.1600   -3.0960 C.3   108  MET108      0.0387
    171  CG        31.5730   41.8060   -4.0940 C.3   108  MET108      0.0595
    172  SD        32.0550   43.4740   -3.6020 S.3   108  MET108     -0.1393
    173  CE        33.4460   43.1620   -2.5340 C.3   108  MET108      0.0692
@<TRIPOS>BOND
     1   156   155   ar
     2   157   155   ar
     3   155   154    1
     4   150   151    1
     5   154   151    1
     6   151   152    1
     7   152   153    2
     8   152   158   am
     9   158   159    1
    10   144   145    2
    11   144   143    1
    12   166   167    1
    13   143   146    1
    14   143   142    1
    15   159   160    1
    16   159   162    1
    17   171   172    1
    18   171   170    1
    19   146   147    1
    20   160   161    2
    21   164   162    1
    22   172   173    1
    23   167   170    1
    24   167   168    1
    25   162   163    1
    26   133   132    2
    27   148   147    2
    28   142   132   am
    29   147   149   am
    30   132   131    1
    31   168   169    2
    32   111   109    1
    33   163   165    1
    34    26    28   ar
    35    26    24   ar
    36   127   126    2
    37   139   137   ar
    38   139   140   ar
    39    99    98    2
    40   141   140    1
    41    23    24   ar
    42    23    21   ar
    43    28    27   ar
    44   137   135   ar
    45   131   130    1
    46   131   134    1
    47   140   138   ar
    48    24    22   ar
    49   129   128    1
    50   109   110    1
    51   109   108    1
    52   126   125    1
    53   135   134    1
    54   135   136   ar
    55   103   101    1
    56   138   136   ar
    57    98    97    1
    58    21    20   ar
    59    34    35    1
    60    34    33    1
    61    27    25   ar
    62   108   105    1
    63   105   104    1
    64   105   106    1
    65    97   100    1
    66    97    96    1
    67   128   125    1
    68    22    20   ar
    69    22    25   ar
    70   125   124    1
    71   100   101    1
    72    46    45   ar
    73    46    44   ar
    74    45    43   ar
    75    35    29    1
    76    90    89    2
    77   101   102    1
    78    33    30    1
    79    20    19    1
    80   106   107    2
    81    96    89   am
    82    44    42   ar
    83    89    88    1
    84    43    41   ar
    85    29    30    1
    86    29    17   am
    87    30    31    1
    88    19    16    1
    89    15    16    1
    90   118   120   ar
    91   118   117   ar
    92   112   113    1
    93   120   122   ar
    94    92    93    1
    95    92    91    1
    96    42    41   ar
    97    16    17    1
    98   113   116    1
    99   113   114    1
   100    17    18    2
   101    41    40    1
   102    88    91    1
   103    88    87    1
   104   116   117    1
   105    31    32    2
   106    31    36   am
   107    93    94    1
   108   117   119   ar
   109    36    37    1
   110    82    81    2
   111   122   123    1
   112   122   121   ar
   113    77    76    1
   114   114   115    2
   115    40    37    1
   116    94    95    1
   117   119   121   ar
   118    37    38    1
   119    78    76    1
   120    81    80    1
   121    76    73    1
   122     4     3    2
   123    64    62   am
   124     3     2    1
   125    79    80    1
   126    79    74   am
   127    55    53   am
   128    73    74    1
   129    73    72    1
   130    54    53    2
   131    80    83    1
   132    38    47   am
   133    38    39    2
   134    53    52    1
   135    83    84    1
   136    47    48    1
   137     1     2    1
   138    74    75    2
   139    85    84   ar
   140     2     5    1
   141    84    86   ar
   142    52    51    1
   143    62    63    2
   144    62    61    1
   145    72    67   am
   146    51    48    1
   147    48    49    1
   148    59    58    2
   149    68    67    2
   150    61    60    1
   151    67    66    1
   152     5     6    1
   153    56    49   am
   154    56    57    1
   155     7     6   ar
   156     7     9   ar
   157     6     8   ar
   158    49    50    2
   159    58    57    1
   160    58    65   am
   161     9    10   ar
   162     8    10   ar
   163     8    11   ar
   164    60    57    1
   165    66    65    1
   166    66    69    1
   167    10    12   ar
   168    11    13   ar
   169    65    71    1
   170    12    14   ar
   171    13    14   ar
   172    69    70    1
   173    71    70    1
