@<TRIPOS>MOLECULE
tmp/4clbA00.pdb
 143 139 0 0 0
SMALL
GASTEIGER

@<TRIPOS>ATOM
      1  N         -9.0230    3.7330   -6.9100 N.3    40  TRP40      -0.1228
      2  CA       -10.4010    3.3570   -7.2530 C.3    40  TRP40       0.1722
      3  C        -11.3230    4.4880   -7.6820 C.2    40  TRP40       0.2437
      4  O        -12.0800    4.3070   -8.6360 O.2    40  TRP40      -0.2733
      5  CB       -11.0260    2.4920   -6.1580 C.3    40  TRP40       0.0563
      6  CG       -11.0720    3.1490   -4.8110 C.ar   40  TRP40       0.0003
      7  CD1      -10.0790    3.1690   -3.8360 C.ar   40  TRP40       0.0946
      8  CD2      -12.1740    3.9230   -4.2460 C.ar   40  TRP40       0.0152
      9  NE1      -10.4840    3.8840   -2.7420 N.ar   40  TRP40      -0.2442
     10  CE2      -11.7300    4.3590   -2.9200 C.ar   40  TRP40       0.0810
     11  CE3      -13.4370    4.2860   -4.6860 C.ar   40  TRP40       0.0012
     12  CZ2      -12.5320    5.1190   -2.0930 C.ar   40  TRP40       0.0191
     13  CZ3      -14.2380    5.0540   -3.8390 C.ar   40  TRP40       0.0001
     14  CH2      -13.7950    5.4580   -2.5760 C.ar   40  TRP40       0.0015
     15  N        -11.2550    5.6760   -7.0380 N.am   41  PRO41      -0.2718
     16  CA       -12.1470    6.7390   -7.5140 C.3    41  PRO41       0.1535
     17  C        -11.8100    7.2260   -8.9260 C.2    41  PRO41       0.2598
     18  O        -12.6290    7.9000   -9.5500 O.2    41  PRO41      -0.2715
     19  CB       -11.9240    7.8760   -6.5000 C.3    41  PRO41       0.0310
     20  CG       -11.2340    7.2410   -5.3340 C.3    41  PRO41       0.0237
     21  CD       -10.3950    6.1690   -5.9490 C.3    41  PRO41       0.0939
     22  N        -10.6120    6.8890   -9.4030 N.am   42  PHE42      -0.1974
     23  CA       -10.1000    7.3540  -10.6900 C.3    42  PHE42       0.1639
     24  C        -10.0850    6.2780  -11.7820 C.2    42  PHE42       0.2290
     25  O         -9.5870    6.5260  -12.8820 O.2    42  PHE42      -0.2864
     26  CB        -8.6840    7.9000  -10.4930 C.3    42  PHE42       0.0560
     27  CG        -8.5930    8.9750   -9.4490 C.ar   42  PHE42      -0.0200
     28  CD1       -8.8600   10.3000   -9.7750 C.ar   42  PHE42      -0.0042
     29  CD2       -8.2540    8.6660   -8.1370 C.ar   42  PHE42      -0.0042
     30  CE1       -8.7750   11.2940   -8.8130 C.ar   42  PHE42      -0.0003
     31  CE2       -8.1750    9.6570   -7.1720 C.ar   42  PHE42      -0.0003
     32  CZ        -8.4380   10.9740   -7.5130 C.ar   42  PHE42      -0.0000
     33  N        -12.6940    4.9460  -13.3030 N.3    44  GLN44      -0.1245
     34  CA       -13.8040    5.1230  -14.2320 C.3    44  GLN44       0.1566
     35  C        -14.2370    6.5840  -14.1950 C.2    44  GLN44       0.2260
     36  O        -13.8700    7.3080  -13.2680 O.2    44  GLN44      -0.2867
     37  CB       -14.9780    4.1990  -13.8730 C.3    44  GLN44       0.0367
     38  CG       -15.5510    4.4090  -12.4800 C.3    44  GLN44       0.0905
     39  CD       -14.6550    3.8490  -11.3930 C.2    44  GLN44       0.2608
     40  OE1      -14.2090    2.7060  -11.4760 O.2    44  GLN44      -0.2717
     41  NE2      -14.3870    4.6490  -10.3710 N.am   44  GLN44      -0.0878
     42  N        -16.2060   10.0230  -13.4960 N.3    46  VAL46      -0.1231
     43  CA       -16.9460   10.4940  -12.3310 C.3    46  VAL46       0.1692
     44  C        -18.4350   10.3370  -12.6110 C.2    46  VAL46       0.2592
     45  O        -18.9650   10.9460  -13.5410 O.2    46  VAL46      -0.2718
     46  CB       -16.6300   11.9680  -12.0030 C.3    46  VAL46       0.0266
     47  CG1      -17.5220   12.4690  -10.8710 C.3    46  VAL46       0.0020
     48  CG2      -15.1600   12.1220  -11.6340 C.3    46  VAL46       0.0020
     49  N        -19.1020    9.5000  -11.8220 N.am   47  ASP47      -0.1974
     50  CA       -20.5440    9.2950  -11.9750 C.3    47  ASP47       0.1709
     51  C        -21.2570   10.3450  -11.1330 C.2    47  ASP47       0.2293
     52  O        -21.5910   10.1160   -9.9680 O.2    47  ASP47      -0.2864
     53  CB       -20.9460    7.8680  -11.5710 C.3    47  ASP47       0.1436
     54  CG       -22.3870    7.5360  -11.9270 C.2    47  ASP47       0.3671
     55  OD1      -23.2270    8.4570  -12.0220 O.co2  47  ASP47      -0.2456
     56  OD2      -22.6830    6.3330  -12.1100 O.co2  47  ASP47      -0.2456
     57  N        -24.8200    9.2860   -9.6530 N.3    50  LYS50      -0.1231
     58  CA       -24.7910    8.4500   -8.4460 C.3    50  LYS50       0.1693
     59  C        -24.2440    9.2040   -7.2330 C.2    50  LYS50       0.2591
     60  O        -24.7280    9.0190   -6.1170 O.2    50  LYS50      -0.2718
     61  CB       -23.9920    7.1670   -8.6810 C.3    50  LYS50       0.0285
     62  CG       -24.7110    6.1550   -9.5550 C.3    50  LYS50       0.0035
     63  CD       -23.9700    4.8290   -9.5690 C.3    50  LYS50       0.0206
     64  CE       -24.6290    3.8170  -10.4930 C.3    50  LYS50       0.1093
     65  NZ       -23.8820    2.5260  -10.5100 N.3    50  LYS50      -0.1314
     66  N        -23.2540   10.0670   -7.4520 N.am   51  LEU51      -0.1980
     67  CA       -22.7170   10.9040   -6.3780 C.3    51  LEU51       0.1596
     68  C        -23.6540   12.0740   -6.0500 C.2    51  LEU51       0.2287
     69  O        -23.4620   12.7570   -5.0470 O.2    51  LEU51      -0.2864
     70  CB       -21.3240   11.4360   -6.7510 C.3    51  LEU51       0.0297
     71  CG       -20.2190   10.3970   -6.9600 C.3    51  LEU51       0.0022
     72  CD1      -18.9630   11.0570   -7.5090 C.3    51  LEU51       0.0001
     73  CD2      -19.9140    9.6600   -5.6640 C.3    51  LEU51       0.0001
     74  N        -23.9970   14.9720   -7.6810 N.3    53  LEU53      -0.1245
     75  CA       -23.2300   16.2050   -7.7910 C.3    53  LEU53       0.1561
     76  C        -23.5420   16.8570   -9.1370 C.2    53  LEU53       0.2260
     77  O        -22.7400   16.7730  -10.0690 O.2    53  LEU53      -0.2867
     78  CB       -21.7340   15.9000   -7.6720 C.3    53  LEU53       0.0270
     79  CG       -21.2660   15.2990   -6.3440 C.3    53  LEU53       0.0019
     80  CD1      -19.7740   14.9990   -6.3980 C.3    53  LEU53       0.0001
     81  CD2      -21.5900   16.2160   -5.1760 C.3    53  LEU53       0.0001
     82  N        -20.8490   19.0200  -11.0370 N.3    56  TYR56      -0.1241
     83  CA       -19.5470   18.4980  -11.4670 C.3    56  TYR56       0.1605
     84  C        -19.2790   18.7760  -12.9460 C.2    56  TYR56       0.2264
     85  O        -18.2210   19.2920  -13.3010 O.2    56  TYR56      -0.2867
     86  CB       -19.3730   16.9980  -11.1770 C.3    56  TYR56       0.0534
     87  CG       -17.9690   16.5390  -11.5000 C.ar   56  TYR56      -0.0201
     88  CD1      -16.9370   16.6720  -10.5720 C.ar   56  TYR56      -0.0009
     89  CD2      -17.6560   16.0230  -12.7550 C.ar   56  TYR56      -0.0009
     90  CE1      -15.6380   16.2820  -10.8820 C.ar   56  TYR56       0.0417
     91  CE2      -16.3670   15.6270  -13.0720 C.ar   56  TYR56       0.0417
     92  CZ       -15.3620   15.7610  -12.1320 C.ar   56  TYR56       0.1957
     93  OH       -14.0780   15.3790  -12.4610 O.3    56  TYR56      -0.2866
     94  N         -9.6060   17.1070  -10.5320 N.3    95  CYS95      -0.1235
     95  CA        -9.8060   16.8010   -9.1250 C.3    95  CYS95       0.1677
     96  C         -9.4740   18.0240   -8.2730 C.2    95  CYS95       0.2270
     97  O        -10.2000   18.3630   -7.3390 O.2    95  CYS95      -0.2867
     98  CB        -8.9350   15.6130   -8.7140 C.3    95  CYS95       0.0956
     99  SG        -9.2380   14.9990   -7.0470 S.3    95  CYS95      -0.0801
    100  N        -12.2500   20.8720   -8.7720 N.3    98  TYR98      -0.1227
    101  CA       -13.5660   20.6490   -8.1810 C.3    98  TYR98       0.1736
    102  C        -13.5540   20.5320   -6.6510 C.2    98  TYR98       0.2595
    103  O        -14.4910   20.9740   -5.9830 O.2    98  TYR98      -0.2718
    104  CB       -14.2140   19.3980   -8.7880 C.3    98  TYR98       0.0548
    105  CG       -15.6190   19.2070   -8.2940 C.ar   98  TYR98      -0.0200
    106  CD1      -16.6710   19.9330   -8.8390 C.ar   98  TYR98      -0.0009
    107  CD2      -15.8890   18.3410   -7.2450 C.ar   98  TYR98      -0.0009
    108  CE1      -17.9650   19.7820   -8.3650 C.ar   98  TYR98       0.0417
    109  CE2      -17.1760   18.1770   -6.7710 C.ar   98  TYR98       0.0417
    110  CZ       -18.2060   18.9020   -7.3280 C.ar   98  TYR98       0.1957
    111  OH       -19.4850   18.7360   -6.8430 O.3    98  TYR98      -0.2866
    112  N        -12.5090   19.9180   -6.1030 N.am   99  ASN99      -0.1974
    113  CA       -12.4360   19.6320   -4.6690 C.3    99  ASN99       0.1688
    114  C        -11.5460   20.6520   -3.9590 C.2    99  ASN99       0.2292
    115  O        -10.9880   21.5280   -4.6060 O.2    99  ASN99      -0.2864
    116  CB       -11.9520   18.2010   -4.4530 C.3    99  ASN99       0.1181
    117  CG       -12.8270   17.1890   -5.1670 C.2    99  ASN99       0.2629
    118  OD1      -13.9270   16.8650   -4.7100 O.2    99  ASN99      -0.2716
    119  ND2      -12.3560   16.7120   -6.3140 N.am   99  ASN99      -0.0877
    120  N        -10.2400   14.2160    1.3060 N.3   104  ASP104     -0.1225
    121  CA        -9.5590   12.9330    1.1320 C.3   104  ASP104      0.1805
    122  C         -9.2430   12.6760   -0.3410 C.2   104  ASP104      0.2597
    123  O         -8.1690   12.1760   -0.6600 O.2   104  ASP104     -0.2718
    124  CB       -10.3960   11.7820    1.7060 C.3   104  ASP104      0.1424
    125  CG       -10.4310   11.7790    3.2310 C.2   104  ASP104      0.3668
    126  OD1       -9.7300   12.5990    3.8600 O.co2 104  ASP104     -0.2456
    127  OD2      -11.1620   10.9420    3.8040 O.co2 104  ASP104     -0.2456
    128  N        -10.1630   13.0460   -1.2300 N.am  105  ILE105     -0.1980
    129  CA        -9.9640   12.8160   -2.6670 C.3   105  ILE105      0.1595
    130  C         -8.7550   13.5960   -3.2030 C.2   105  ILE105      0.2287
    131  O         -8.0480   13.1130   -4.0910 O.2   105  ILE105     -0.2864
    132  CB       -11.2420   13.1270   -3.4810 C.3   105  ILE105      0.0276
    133  CG1      -11.1660   12.5170   -4.8880 C.3   105  ILE105      0.0022
    134  CG2      -11.4920   14.6280   -3.5600 C.3   105  ILE105      0.0022
    135  CD1      -11.1970   11.0040   -4.9220 C.3   105  ILE105      0.0001
    136  N         -5.6620   11.8160   -2.1130 N.3   108  MET108     -0.1245
    137  CA        -5.5600   10.6460   -2.9800 C.3   108  MET108      0.1570
    138  C         -4.9480   11.0270   -4.3280 C.2   108  MET108      0.2261
    139  O         -4.0180   10.3710   -4.7960 O.2   108  MET108     -0.2867
    140  CB        -6.9360    9.9940   -3.1560 C.3   108  MET108      0.0387
    141  CG        -7.4340    9.3210   -1.8820 C.3   108  MET108      0.0595
    142  SD        -9.1570    8.7990   -1.9360 S.3   108  MET108     -0.1393
    143  CE        -8.9850    7.1600   -2.6150 C.3   108  MET108      0.0692
@<TRIPOS>BOND
     1    34    35    1
     2    34    37    1
     3    34    33    1
     4    35    36    2
     5    37    38    1
     6    45    44    2
     7    42    43    1
     8    85    84    2
     9    91    89   ar
    10    91    92   ar
    11    84    83    1
    12    25    24    2
    13    89    87   ar
    14    44    43    1
    15    44    49   am
    16    38    39    1
    17    93    92    1
    18    43    46    1
    19    92    90   ar
    20    56    54   ar
    21    55    54   ar
    22    46    48    1
    23    46    47    1
    24    50    49    1
    25    50    53    1
    26    50    51    1
    27    54    53    1
    28    24    23    1
    29    87    86    1
    30    87    88   ar
    31    40    39    2
    32    83    86    1
    33    83    82    1
    34    39    41   am
    35    51    52    2
    36    90    88   ar
    37    23    26    1
    38    23    22    1
    39    94    95    1
    40    65    64    1
    41    64    63    1
    42    26    27    1
    43    77    76    2
    44    28    27   ar
    45    28    30   ar
    46    57    58    1
    47    63    62    1
    48    62    61    1
    49    18    17    2
    50    27    29   ar
    51    22    17   am
    52    76    75    1
    53    95    98    1
    54    95    96    1
    55    17    16    1
    56   106   108   ar
    57   106   105   ar
    58    30    32   ar
    59   104   105    1
    60   104   101    1
    61   100   101    1
    62    98    99    1
    63    61    58    1
    64     4     3    2
    65    58    59    1
    66   108   110   ar
    67   105   107   ar
    68    96    97    2
    69   101   102    1
    70    29    31   ar
    71    75    74    1
    72    75    78    1
    73     3     2    1
    74     3    15   am
    75    78    79    1
    76    16    15    1
    77    16    19    1
    78    32    31   ar
    79    72    71    1
    80    66    59   am
    81    66    67    1
    82   110   111    1
    83   110   109   ar
    84     2     1    1
    85     2     5    1
    86   107   109   ar
    87    59    60    2
    88    15    21    1
    89    71    70    1
    90    71    73    1
    91    70    67    1
    92   102   112   am
    93   102   103    2
    94    19    20    1
    95    80    79    1
    96    67    68    1
    97    79    81    1
    98   119   117   am
    99     5     6    1
   100   112   113    1
   101    68    69    2
   102    21    20    1
   103   117   118    2
   104   117   116    1
   105   135   133    1
   106   133   132    1
   107     6     8   ar
   108     6     7   ar
   109   139   138    2
   110    11     8   ar
   111    11    13   ar
   112   113   116    1
   113   113   114    1
   114   115   114    2
   115   138   137    1
   116     8    10   ar
   117   131   130    2
   118    13    14   ar
   119     7     9   ar
   120   134   132    1
   121   132   129    1
   122   130   129    1
   123   140   137    1
   124   140   141    1
   125   137   136    1
   126    10     9   ar
   127    10    12   ar
   128   129   128    1
   129   143   142    1
   130    14    12   ar
   131   142   141    1
   132   128   122   am
   133   123   122    2
   134   122   121    1
   135   121   120    1
   136   121   124    1
   137   124   125    1
   138   125   127   ar
   139   125   126   ar
