@<TRIPOS>MOLECULE
tmp/4cldB01.pdb
 133 127 0 0 0
SMALL
GASTEIGER

@<TRIPOS>ATOM
      1  N        -16.9710   15.2010   -7.8490 N.3    13  ARG13      -0.1245
      2  CA       -16.0610   15.3020   -6.6830 C.3    13  ARG13       0.1563
      3  C        -15.2450   14.0050   -6.4960 C.2    13  ARG13       0.2260
      4  O        -14.6260   13.5310   -7.4390 O.2    13  ARG13      -0.2867
      5  CB       -16.8630   15.7300   -5.4500 C.3    13  ARG13       0.0307
      6  CG       -17.4430   17.1190   -5.6290 C.3    13  ARG13       0.0489
      7  CD       -18.5240   17.5440   -4.6720 C.3    13  ARG13       0.2205
      8  NE       -18.1600   17.3500   -3.2550 N.pl3  13  ARG13      -0.0865
      9  CZ       -17.5350   18.2310   -2.4800 C.cat  13  ARG13       0.5346
     10  NH1      -17.1570   19.4400   -2.9450 N.pl3  13  ARG13       0.1354
     11  NH2      -17.3130   17.9070   -1.2050 N.pl3  13  ARG13       0.1354
     12  N        -22.7860    9.5460   -0.0140 N.3    94  SER94      -0.1217
     13  CA       -22.9290    9.9110    1.3690 C.3    94  SER94       0.1889
     14  C        -23.7400   11.1940    1.5280 C.2    94  SER94       0.2288
     15  O        -23.4210   12.2000    0.9300 O.2    94  SER94      -0.2866
     16  CB       -21.5140   10.1180    1.9410 C.3    94  SER94       0.2089
     17  OG       -21.5530   10.8000    3.2060 O.3    94  SER94      -0.2183
     18  N        -24.6250   14.2570    4.1120 N.3    96  PHE96      -0.1241
     19  CA       -23.7930   14.9620    5.0800 C.3    96  PHE96       0.1605
     20  C        -24.4280   16.3030    5.4240 C.2    96  PHE96       0.2264
     21  O        -24.4680   17.2350    4.5930 O.2    96  PHE96      -0.2867
     22  CB       -22.3580   15.1410    4.5450 C.3    96  PHE96       0.0534
     23  CG       -21.4690   16.0620    5.3710 C.ar   96  PHE96      -0.0203
     24  CD1      -20.8380   15.6130    6.5370 C.ar   96  PHE96      -0.0042
     25  CD2      -21.2450   17.3800    4.9680 C.ar   96  PHE96      -0.0042
     26  CE1      -20.0040   16.4370    7.2860 C.ar   96  PHE96      -0.0003
     27  CE2      -20.4120   18.2210    5.7240 C.ar   96  PHE96      -0.0003
     28  CZ       -19.7980   17.7550    6.8770 C.ar   96  PHE96      -0.0000
     29  N        -14.0770    8.2510    7.3240 N.3   143  ASP143     -0.1239
     30  CA       -13.7970    9.5980    7.7460 C.3   143  ASP143      0.1674
     31  C        -12.6630    9.5790    8.7580 C.2   143  ASP143      0.2266
     32  O        -12.7550    8.9260    9.7900 O.2   143  ASP143     -0.2867
     33  CB       -15.0690   10.2190    8.2970 C.3   143  ASP143      0.1410
     34  CG       -14.8800   11.6210    8.8590 C.2   143  ASP143      0.3668
     35  OD1      -13.7870   12.2480    8.7470 O.co2 143  ASP143     -0.2456
     36  OD2      -15.8810   12.0900    9.4650 O.co2 143  ASP143     -0.2456
     37  N        -11.7290   11.7830   10.6600 N.3   145  MET145     -0.1245
     38  CA       -12.1300   12.5090   11.8610 C.3   145  MET145      0.1570
     39  C        -13.2800   11.8640   12.6060 C.2   145  MET145      0.2261
     40  O        -13.9150   12.4800   13.3980 O.2   145  MET145     -0.2867
     41  CB       -12.4710   13.9490   11.4680 C.3   145  MET145      0.0387
     42  CG       -11.2800   14.5520   10.7450 C.3   145  MET145      0.0595
     43  SD        -9.8210   14.7350   11.8190 S.3   145  MET145     -0.1393
     44  CE       -10.2520   16.2640   12.6200 C.3   145  MET145      0.0692
     45  N        -17.3120   16.7360   13.9540 N.3   150  CYS150     -0.1235
     46  CA       -17.8680   18.0790   13.9440 C.3   150  CYS150      0.1677
     47  C        -19.0430   18.1600   14.9060 C.2   150  CYS150      0.2270
     48  O        -19.8350   17.2350   15.0360 O.2   150  CYS150     -0.2867
     49  CB       -18.2980   18.4730   12.5270 C.3   150  CYS150      0.0956
     50  SG       -16.9140   18.5680   11.3290 S.3   150  CYS150     -0.0801
     51  N        -24.6960   11.6740   11.1250 N.3   156  TYR156     -0.1241
     52  CA       -23.6020   11.5020   10.1640 C.3   156  TYR156      0.1605
     53  C        -22.4660   10.7040   10.8060 C.2   156  TYR156      0.2264
     54  O        -21.9710    9.7190   10.2140 O.2   156  TYR156     -0.2867
     55  CB       -23.0870   12.8700    9.6220 C.3   156  TYR156      0.0534
     56  CG       -21.8430   12.7230    8.7860 C.ar  156  TYR156     -0.0201
     57  CD1      -21.9040   12.2480    7.4840 C.ar  156  TYR156     -0.0009
     58  CD2      -20.6000   13.0180    9.3060 C.ar  156  TYR156     -0.0009
     59  CE1      -20.7530   12.0870    6.7310 C.ar  156  TYR156      0.0417
     60  CE2      -19.4370   12.8610    8.5540 C.ar  156  TYR156      0.0417
     61  CZ       -19.5220   12.3870    7.2700 C.ar  156  TYR156      0.1957
     62  OH       -18.3570   12.2220    6.5240 O.3   156  TYR156     -0.2866
     63  N        -20.8660    6.9550    9.8090 N.3   160  LYS160     -0.1245
     64  CA       -19.4610    6.6780    9.4940 C.3   160  LYS160      0.1561
     65  C        -18.8250    5.6880   10.4600 C.2   160  LYS160      0.2260
     66  O        -18.0040    4.8800   10.0520 O.2   160  LYS160     -0.2867
     67  CB       -18.6320    7.9420    9.3800 C.3   160  LYS160      0.0271
     68  CG       -18.9890    8.8120    8.1720 C.3   160  LYS160      0.0035
     69  CD       -18.9200    8.0130    6.8610 C.3   160  LYS160      0.0206
     70  CE       -18.6980    8.8890    5.6610 C.3   160  LYS160      0.1093
     71  NZ       -18.8230    8.2950    4.3150 N.3   160  LYS160     -0.1314
     72  N         -9.6710   13.3640    5.4220 N.3   187  GLY187     -0.1210
     73  CA        -9.8350   14.3420    6.5040 C.3   187  GLY187      0.1956
     74  C        -10.5860   15.5650    5.9620 C.2   187  GLY187      0.2612
     75  O        -11.8310   15.6660    6.0590 O.2   187  GLY187     -0.2717
     76  N         -9.8190   16.4920    5.4060 N.am  188  VAL188     -0.1965
     77  CA       -10.3440   17.6250    4.6520 C.3   188  VAL188      0.1727
     78  C         -9.9370   17.3690    3.2200 C.2   188  VAL188      0.2617
     79  O         -8.7330   17.3500    2.8870 O.2   188  VAL188     -0.2715
     80  CB        -9.7980   18.9790    5.1620 C.3   188  VAL188      0.0290
     81  CG1      -10.1830   20.0860    4.2120 C.3   188  VAL188      0.0023
     82  CG2      -10.3630   19.2940    6.5370 C.3   188  VAL188      0.0023
     83  N        -10.9220   17.0500    2.3920 N.am  189  SER189     -0.1936
     84  CA       -10.7130   16.9460    0.9550 C.3   189  SER189      0.2055
     85  C        -11.5530   18.0580    0.3490 C.2   189  SER189      0.2643
     86  O        -11.6800   19.1670    0.9420 O.2   189  SER189     -0.2714
     87  CB       -11.0880   15.5420    0.4070 C.3   189  SER189      0.2130
     88  OG       -10.8640   15.4120   -1.0200 O.3   189  SER189     -0.2179
     89  N        -12.1360   17.8090   -0.8070 N.am  190  LEU190     -0.1963
     90  CA       -12.9120   18.8660   -1.4740 C.3   190  LEU190      0.1728
     91  C        -13.9740   19.4820   -0.5650 C.2   190  LEU190      0.2616
     92  O        -14.8180   18.7760   -0.0080 O.2   190  LEU190     -0.2715
     93  CB       -13.5570   18.3410   -2.7620 C.3   190  LEU190      0.0311
     94  CG       -12.5920   17.8640   -3.8440 C.3   190  LEU190      0.0022
     95  CD1      -13.3910   17.4850   -5.0850 C.3   190  LEU190      0.0001
     96  CD2      -11.5400   18.9220   -4.1560 C.3   190  LEU190      0.0001
     97  N        -13.9110   20.8080   -0.3980 N.am  191  LEU191     -0.1964
     98  CA       -14.8290   21.5060    0.4750 C.3   191  LEU191      0.1713
     99  C        -16.1490   21.7630   -0.2330 C.2   191  LEU191      0.2458
    100  O        -16.2180   21.6690   -1.4480 O.2   191  LEU191     -0.2730
    101  CB       -14.2010   22.8070    0.9660 C.3   191  LEU191      0.0310
    102  CG       -13.0920   22.3500    1.9340 C.3   191  LEU191      0.0022
    103  CD1      -11.7990   23.1230    1.7960 C.3   191  LEU191      0.0001
    104  CD2      -13.6120   22.3620    3.3490 C.3   191  LEU191      0.0001
    105  N        -17.2020   22.0480    0.5350 N.am  192  PRO192     -0.2727
    106  CA       -18.4910   22.2250   -0.1090 C.3   192  PRO192      0.1402
    107  C        -18.4480   23.3470   -1.1470 C.2   192  PRO192      0.2269
    108  O        -17.7240   24.3650   -0.9730 O.2   192  PRO192     -0.2865
    109  CB       -19.4310   22.5430    1.0430 C.3   192  PRO192      0.0296
    110  CG       -18.7850   21.9510    2.2400 C.3   192  PRO192      0.0237
    111  CD       -17.3050   22.0560    2.0050 C.3   192  PRO192      0.0939
    112  N        -19.1460   27.0650   -0.0350 N.3   195  MET195     -0.1245
    113  CA       -18.5040   27.4320    1.2350 C.3   195  MET195      0.1570
    114  C        -17.5520   28.6150    0.9000 C.2   195  MET195      0.2261
    115  O        -16.7430   28.5310   -0.0330 O.2   195  MET195     -0.2867
    116  CB       -17.7350   26.2590    1.8720 C.3   195  MET195      0.0387
    117  CG       -16.9730   26.6250    3.1450 C.3   195  MET195      0.0595
    118  SD       -15.9140   25.3430    3.8850 S.3   195  MET195     -0.1393
    119  CE       -17.1040   24.4340    4.8870 C.3   195  MET195      0.0692
    120  N        -10.3660   25.5390    7.6530 N.3   203  TRP203     -0.1241
    121  CA       -10.0840   24.0930    7.5950 C.3   203  TRP203      0.1605
    122  C         -8.6950   23.8070    7.0110 C.2   203  TRP203      0.2264
    123  O         -7.9120   23.0480    7.5790 O.2   203  TRP203     -0.2867
    124  CB       -11.1700   23.3700    6.8260 C.3   203  TRP203      0.0550
    125  CG       -12.4250   23.3060    7.5750 C.ar  203  TRP203      0.0003
    126  CD1      -13.5090   24.1170    7.4300 C.ar  203  TRP203      0.0946
    127  CD2      -12.7180   22.4280    8.6670 C.ar  203  TRP203      0.0152
    128  NE1      -14.4770   23.7880    8.3660 N.ar  203  TRP203     -0.2442
    129  CE2      -14.0170   22.7380    9.1160 C.ar  203  TRP203      0.0810
    130  CE3      -12.0110   21.4010    9.3010 C.ar  203  TRP203      0.0012
    131  CZ2      -14.6120   22.0640   10.1680 C.ar  203  TRP203      0.0191
    132  CZ3      -12.6120   20.7110   10.3420 C.ar  203  TRP203      0.0001
    133  CH2      -13.8910   21.0400   10.7630 C.ar  203  TRP203      0.0015
@<TRIPOS>BOND
     1     1     2    1
     2     4     3    2
     3     2     3    1
     4     2     5    1
     5     6     5    1
     6     6     7    1
     7    95    94    1
     8     7     8    1
     9    96    94    1
    10    94    93    1
    11     8     9    2
    12    10     9    1
    13    93    90    1
    14     9    11    1
    15    90    89    1
    16    90    91    1
    17   100    99    2
    18   107   108    2
    19   107   106    1
    20    88    87    1
    21    89    85   am
    22    91    97   am
    23    91    92    2
    24    97    98    1
    25    99    98    1
    26    99   105   am
    27   106   105    1
    28   106   109    1
    29   112   113    1
    30   115   114    2
    31    12    13    1
    32    85    86    2
    33    85    84    1
    34    87    84    1
    35    98   101    1
    36   105   111    1
    37   114   113    1
    38    15    14    2
    39    84    83    1
    40   101   102    1
    41   109   110    1
    42   113   116    1
    43    13    14    1
    44    13    16    1
    45   103   102    1
    46   116   117    1
    47   102   104    1
    48    16    17    1
    49   111   110    1
    50    83    78   am
    51    79    78    2
    52   117   118    1
    53    78    77    1
    54   118   119    1
    55    18    19    1
    56    81    80    1
    57    71    70    1
    58    22    19    1
    59    22    23    1
    60    21    20    2
    61    77    80    1
    62    77    76    1
    63    25    23   ar
    64    25    27   ar
    65    19    20    1
    66    80    82    1
    67    23    24   ar
    68    76    74   am
    69    72    73    1
    70    70    69    1
    71    27    28   ar
    72    74    75    2
    73    74    73    1
    74    62    61    1
    75    24    26   ar
    76    59    61   ar
    77    59    57   ar
    78   124   125    1
    79   124   121    1
    80    69    68    1
    81    28    26   ar
    82   122   123    2
    83   122   121    1
    84    61    60   ar
    85    29    30    1
    86   126   125   ar
    87   126   128   ar
    88    57    56   ar
    89   125   127   ar
    90   121   120    1
    91    30    33    1
    92    30    31    1
    93    68    67    1
    94    33    34    1
    95   128   129   ar
    96    60    58   ar
    97   127   129   ar
    98   127   130   ar
    99    35    34   ar
   100    31    32    2
   101    56    58   ar
   102    56    55    1
   103    34    36   ar
   104   129   131   ar
   105   130   132   ar
   106    67    64    1
   107    64    63    1
   108    64    65    1
   109    55    52    1
   110    66    65    2
   111    52    53    1
   112    52    51    1
   113   131   133   ar
   114    54    53    2
   115   132   133   ar
   116    37    38    1
   117    42    41    1
   118    42    43    1
   119    50    49    1
   120    41    38    1
   121    43    44    1
   122    38    39    1
   123    49    46    1
   124    39    40    2
   125    46    45    1
   126    46    47    1
   127    47    48    2
