@<TRIPOS>MOLECULE
tmp/4cleA01.pdb
 98 92 0 0 0
SMALL
GASTEIGER

@<TRIPOS>ATOM
      1  N        -14.9230   13.9060    5.4450 N.3    13  ARG13      -0.1245
      2  CA       -13.5190   14.0050    5.7970 C.3    13  ARG13       0.1563
      3  C        -12.7710   12.7490    5.3440 C.2    13  ARG13       0.2260
      4  O        -12.9170   12.3500    4.2090 O.2    13  ARG13      -0.2867
      5  CB       -13.4100   14.3400    7.3000 C.3    13  ARG13       0.0307
      6  CG       -13.8080   15.8070    7.5980 C.3    13  ARG13       0.0489
      7  CD       -13.9340   16.1130    9.1020 C.3    13  ARG13       0.2205
      8  NE       -12.7060   15.7460    9.7820 N.pl3  13  ARG13      -0.0865
      9  CZ       -11.6030   16.4670    9.8070 C.cat  13  ARG13       0.5346
     10  NH1      -11.5400   17.6750    9.2330 N.pl3  13  ARG13       0.1354
     11  NH2      -10.5420   15.9700   10.3880 N.pl3  13  ARG13       0.1354
     12  N        -14.3440    7.3900   14.7610 N.3    94  SER94      -0.1217
     13  CA       -13.5720    7.6800   15.9350 C.3    94  SER94       0.1889
     14  C        -14.0870    8.9110   16.6680 C.2    94  SER94       0.2288
     15  O        -14.2010    9.9940   16.0480 O.2    94  SER94      -0.2866
     16  CB       -12.1310    7.8640   15.5060 C.3    94  SER94       0.2089
     17  OG       -11.3780    8.5580   16.4460 O.3    94  SER94      -0.2183
     18  N        -13.2220   11.7250   19.4400 N.3    96  PHE96      -0.1241
     19  CA       -11.9800   12.4210   19.7100 C.3    96  PHE96       0.1605
     20  C        -12.2150   13.6810   20.5210 C.2    96  PHE96       0.2264
     21  O        -12.8320   14.6030   20.0410 O.2    96  PHE96      -0.2867
     22  CB       -11.2600   12.7470   18.3700 C.3    96  PHE96       0.0534
     23  CG       -10.0370   13.5870   18.5190 C.ar   96  PHE96      -0.0203
     24  CD1       -8.8350   13.0540   18.9160 C.ar   96  PHE96      -0.0042
     25  CD2      -10.0750   14.9580   18.2360 C.ar   96  PHE96      -0.0042
     26  CE1       -7.7020   13.8280   19.0660 C.ar   96  PHE96      -0.0003
     27  CE2       -8.9450   15.7320   18.3820 C.ar   96  PHE96      -0.0003
     28  CZ        -7.7560   15.1760   18.7770 C.ar   96  PHE96      -0.0000
     29  N         -3.0360    6.0270   14.7010 N.3   145  ASP145     -0.1239
     30  CA        -2.5750    7.4120   14.9520 C.3   145  ASP145      0.1674
     31  C         -1.0600    7.3380   15.0700 C.2   145  ASP145      0.2266
     32  O         -0.5530    6.6400   15.9370 O.2   145  ASP145     -0.2867
     33  CB        -3.2170    7.9440   16.2470 C.3   145  ASP145      0.1410
     34  CG        -2.8500    9.4100   16.5700 C.2   145  ASP145      0.3668
     35  OD1       -1.8140    9.9010   16.1350 O.co2 145  ASP145     -0.2456
     36  OD2       -3.6280   10.0580   17.3050 O.co2 145  ASP145     -0.2456
     37  N         -8.6910    8.6550   24.6830 N.3   158  TYR158     -0.1241
     38  CA        -8.4890    8.5580   23.2310 C.3   158  TYR158      0.1605
     39  C         -7.2060    7.7920   22.9070 C.2   158  TYR158      0.2264
     40  O         -7.2010    6.8910   22.0690 O.2   158  TYR158     -0.2867
     41  CB        -8.4440    9.9640   22.5810 C.3   158  TYR158      0.0534
     42  CG        -7.8810    9.9030   21.1860 C.ar  158  TYR158     -0.0201
     43  CD1       -8.6690    9.5170   20.1120 C.ar  158  TYR158     -0.0009
     44  CD2       -6.5510   10.1560   20.9650 C.ar  158  TYR158     -0.0009
     45  CE1       -8.1370    9.4460   18.8420 C.ar  158  TYR158      0.0417
     46  CE2       -6.0040   10.1080   19.6980 C.ar  158  TYR158      0.0417
     47  CZ        -6.7780    9.7280   18.6500 C.ar  158  TYR158      0.1957
     48  OH        -6.2010    9.6390   17.4080 O.3   158  TYR158     -0.2866
     49  N         -6.7130    4.1770   20.8310 N.3   162  LYS162     -0.1245
     50  CA        -5.8270    3.9380   19.6670 C.3   162  LYS162      0.1561
     51  C         -4.7440    2.8770   19.9490 C.2   162  LYS162      0.2260
     52  O         -4.3680    2.1390   19.0710 O.2   162  LYS162     -0.2867
     53  CB        -5.2190    5.2130   19.1900 C.3   162  LYS162      0.0271
     54  CG        -6.2360    6.1820   18.6000 C.3   162  LYS162      0.0035
     55  CD        -6.9490    5.5750   17.3990 C.3   162  LYS162      0.0206
     56  CE        -7.5800    6.5980   16.4740 C.3   162  LYS162      0.1093
     57  NZ        -8.5480    6.0590   15.4840 N.3   162  LYS162     -0.1314
     58  N         -0.8230   11.4420   10.8290 N.3   189  GLY189     -0.1225
     59  CA        -0.1560   12.3410   11.7650 C.3   189  GLY189      0.1811
     60  C         -1.0650   13.5190   12.0230 C.2   189  GLY189      0.2280
     61  O         -1.8960   13.5080   12.9500 O.2   189  GLY189     -0.2866
     62  N         -3.8040   15.6610    9.7960 N.3   191  SER191     -0.1202
     63  CA        -4.5750   15.4050    8.6160 C.3   191  SER191      0.2020
     64  C         -5.8320   16.2600    8.5470 C.2   191  SER191      0.2619
     65  O         -6.6450   16.2640    9.4490 O.2   191  SER191     -0.2717
     66  CB        -4.9780   13.9190    8.6000 C.3   191  SER191      0.2103
     67  OG        -3.8720   13.1290    8.9460 O.3   191  SER191     -0.2182
     68  N         -6.0130   16.9310    7.4210 N.am  192  LEU192     -0.1965
     69  CA        -7.2110   17.7270    7.1870 C.3   192  LEU192      0.1728
     70  C         -7.7390   18.5810    8.3600 C.2   192  LEU192      0.2616
     71  O         -8.6590   18.1980    9.0550 O.2   192  LEU192     -0.2715
     72  CB        -8.2930   16.7550    6.7160 C.3   192  LEU192      0.0311
     73  CG        -9.5080   17.3630    6.0360 C.3   192  LEU192      0.0022
     74  CD1       -9.0170   18.2040    4.8600 C.3   192  LEU192      0.0001
     75  CD2      -10.4340   16.2180    5.6550 C.3   192  LEU192      0.0001
     76  N         -7.1710   19.7630    8.5630 N.am  193  LEU193     -0.1964
     77  CA        -7.5560   20.5480    9.7400 C.3   193  LEU193      0.1713
     78  C         -8.9450   21.1380    9.4810 C.2   193  LEU193      0.2458
     79  O         -9.2270   21.5250    8.3370 O.2   193  LEU193     -0.2730
     80  CB        -6.5510   21.6500    9.9850 C.3   193  LEU193      0.0310
     81  CG        -5.1740   21.0920   10.3180 C.3   193  LEU193      0.0022
     82  CD1       -4.1560   22.2160   10.1600 C.3   193  LEU193      0.0001
     83  CD2       -5.1700   20.4940   11.7250 C.3   193  LEU193      0.0001
     84  N         -9.8220   21.1540   10.5090 N.am  194  PRO194     -0.2727
     85  CA       -11.1470   21.7210   10.2710 C.3   194  PRO194      0.1402
     86  C        -11.0220   23.1950    9.8390 C.2   194  PRO194      0.2269
     87  O        -10.1940   23.9240   10.3930 O.2   194  PRO194     -0.2865
     88  CB       -11.8470   21.6030   11.6500 C.3   194  PRO194      0.0296
     89  CG       -11.0250   20.6400   12.4380 C.3   194  PRO194      0.0237
     90  CD        -9.6140   20.8200   11.9290 C.3   194  PRO194      0.0939
     91  N        -11.1860   25.5990   12.6440 N.3   197  MET197     -0.1245
     92  CA       -10.0040   25.9410   13.4540 C.3   197  MET197      0.1570
     93  C         -9.3640   27.2960   13.1050 C.2   197  MET197      0.2261
     94  O         -9.3620   27.7350   11.9520 O.2   197  MET197     -0.2867
     95  CB        -8.9530   24.8370   13.3290 C.3   197  MET197      0.0387
     96  CG        -7.7550   25.0090   14.2330 C.3   197  MET197      0.0595
     97  SD        -6.5080   23.7230   13.9910 S.3   197  MET197     -0.1393
     98  CE        -7.3710   22.2460   14.5480 C.3   197  MET197      0.0692
@<TRIPOS>BOND
     1     4     3    2
     2    74    73    1
     3     3     2    1
     4     1     2    1
     5    75    73    1
     6     2     5    1
     7    73    72    1
     8    72    69    1
     9    69    68    1
    10    69    70    1
    11     5     6    1
    12    68    64   am
    13     6     7    1
    14    79    78    2
    15    70    76   am
    16    70    71    2
    17    64    63    1
    18    64    65    2
    19    76    77    1
    20    66    63    1
    21    66    67    1
    22    63    62    1
    23     7     8    1
    24    10     9    1
    25    78    77    1
    26    78    84   am
    27    77    80    1
    28     8     9    2
    29     9    11    1
    30    86    85    1
    31    86    87    2
    32    80    81    1
    33    82    81    1
    34    85    84    1
    35    85    88    1
    36    81    83    1
    37    84    90    1
    38    58    59    1
    39    88    89    1
    40    59    60    1
    41    90    89    1
    42    94    93    2
    43    60    61    2
    44    91    92    1
    45    93    92    1
    46    95    92    1
    47    95    96    1
    48    97    96    1
    49    97    98    1
    50    29    30    1
    51    12    13    1
    52    30    31    1
    53    30    33    1
    54    31    32    2
    55    57    56    1
    56    16    13    1
    57    16    17    1
    58    13    14    1
    59    15    14    2
    60    35    34   ar
    61    33    34    1
    62    56    55    1
    63    34    36   ar
    64    55    54    1
    65    48    47    1
    66    25    27   ar
    67    25    23   ar
    68    22    23    1
    69    22    19    1
    70    27    28   ar
    71    23    24   ar
    72    54    53    1
    73    47    45   ar
    74    47    46   ar
    75    28    26   ar
    76    45    43   ar
    77    24    26   ar
    78    52    51    2
    79    53    50    1
    80    18    19    1
    81    50    51    1
    82    50    49    1
    83    46    44   ar
    84    19    20    1
    85    21    20    2
    86    43    42   ar
    87    44    42   ar
    88    42    41    1
    89    40    39    2
    90    41    38    1
    91    39    38    1
    92    38    37    1
