@<TRIPOS>MOLECULE
tmp/4cleA02.pdb
 126 122 0 0 0
SMALL
GASTEIGER

@<TRIPOS>ATOM
      1  N        -13.2220   11.7250   19.4400 N.3    96  PHE96      -0.1241
      2  CA       -11.9800   12.4210   19.7100 C.3    96  PHE96       0.1605
      3  C        -12.2150   13.6810   20.5210 C.2    96  PHE96       0.2264
      4  O        -12.8320   14.6030   20.0410 O.2    96  PHE96      -0.2867
      5  CB       -11.2600   12.7470   18.3700 C.3    96  PHE96       0.0534
      6  CG       -10.0370   13.5870   18.5190 C.ar   96  PHE96      -0.0203
      7  CD1       -8.8350   13.0540   18.9160 C.ar   96  PHE96      -0.0042
      8  CD2      -10.0750   14.9580   18.2360 C.ar   96  PHE96      -0.0042
      9  CE1       -7.7020   13.8280   19.0660 C.ar   96  PHE96      -0.0003
     10  CE2       -8.9450   15.7320   18.3820 C.ar   96  PHE96      -0.0003
     11  CZ        -7.7560   15.1760   18.7770 C.ar   96  PHE96      -0.0000
     12  N         -3.0360    6.0270   14.7010 N.3   145  ASP145     -0.1239
     13  CA        -2.5750    7.4120   14.9520 C.3   145  ASP145      0.1674
     14  C         -1.0600    7.3380   15.0700 C.2   145  ASP145      0.2266
     15  O         -0.5530    6.6400   15.9370 O.2   145  ASP145     -0.2867
     16  CB        -3.2170    7.9440   16.2470 C.3   145  ASP145      0.1410
     17  CG        -2.8500    9.4100   16.5700 C.2   145  ASP145      0.3668
     18  OD1       -1.8140    9.9010   16.1350 O.co2 145  ASP145     -0.2456
     19  OD2       -3.6280   10.0580   17.3050 O.co2 145  ASP145     -0.2456
     20  N          1.0080    9.3460   16.2780 N.3   147  MET147     -0.1245
     21  CA         1.4880    9.9190   17.5340 C.3   147  MET147      0.1570
     22  C          1.0780    9.1210   18.7620 C.2   147  MET147      0.2261
     23  O          1.1770    9.6260   19.8790 O.2   147  MET147     -0.2867
     24  CB         0.9960   11.3740   17.6450 C.3   147  MET147      0.0387
     25  CG         1.3910   12.2150   16.4370 C.3   147  MET147      0.0595
     26  SD         3.1880   12.2840   16.2650 S.3   147  MET147     -0.1393
     27  CE         3.7200   13.2450   17.6800 C.3   147  MET147      0.0692
     28  N         -0.8510   13.5050   22.9760 N.3   152  CYS152     -0.1235
     29  CA        -1.2480   14.8450   23.3780 C.3   152  CYS152      0.1677
     30  C         -1.7300   14.8760   24.8330 C.2   152  CYS152      0.2270
     31  O         -2.3800   13.9430   25.3250 O.2   152  CYS152     -0.2867
     32  CB        -2.3400   15.3490   22.4770 C.3   152  CYS152      0.0956
     33  SG        -1.7000   15.7430   20.8310 S.3   152  CYS152     -0.0801
     34  N         -5.3500   13.6740   26.6310 N.3   155  PHE155     -0.1241
     35  CA        -6.0890   12.7560   25.7660 C.3   155  PHE155      0.1605
     36  C         -5.9180   11.2560   26.1500 C.2   155  PHE155      0.2264
     37  O         -5.9030   10.4050   25.2750 O.2   155  PHE155     -0.2867
     38  CB        -5.7000   12.9990   24.2770 C.3   155  PHE155      0.0534
     39  CG        -6.3690   14.2040   23.6390 C.ar  155  PHE155     -0.0203
     40  CD1       -5.8460   15.4800   23.8150 C.ar  155  PHE155     -0.0042
     41  CD2       -7.5120   14.0630   22.8490 C.ar  155  PHE155     -0.0042
     42  CE1       -6.4540   16.5810   23.2220 C.ar  155  PHE155     -0.0003
     43  CE2       -8.1270   15.1630   22.2480 C.ar  155  PHE155     -0.0003
     44  CZ        -7.5990   16.4280   22.4360 C.ar  155  PHE155     -0.0000
     45  N         -8.6910    8.6550   24.6830 N.3   158  TYR158     -0.1241
     46  CA        -8.4890    8.5580   23.2310 C.3   158  TYR158      0.1605
     47  C         -7.2060    7.7920   22.9070 C.2   158  TYR158      0.2264
     48  O         -7.2010    6.8910   22.0690 O.2   158  TYR158     -0.2867
     49  CB        -8.4440    9.9640   22.5810 C.3   158  TYR158      0.0534
     50  CG        -7.8810    9.9030   21.1860 C.ar  158  TYR158     -0.0201
     51  CD1       -8.6690    9.5170   20.1120 C.ar  158  TYR158     -0.0009
     52  CD2       -6.5510   10.1560   20.9650 C.ar  158  TYR158     -0.0009
     53  CE1       -8.1370    9.4460   18.8420 C.ar  158  TYR158      0.0417
     54  CE2       -6.0040   10.1080   19.6980 C.ar  158  TYR158      0.0417
     55  CZ        -6.7780    9.7280   18.6500 C.ar  158  TYR158      0.1957
     56  OH        -6.2010    9.6390   17.4080 O.3   158  TYR158     -0.2866
     57  N         -2.3710    8.1140   10.4720 N.3   188  PRO188     -0.2102
     58  CA        -2.1440    9.5160   10.1450 C.3   188  PRO188      0.1504
     59  C         -1.4390   10.3280   11.2200 C.2   188  PRO188      0.2576
     60  O         -1.5170    9.9960   12.4140 O.2   188  PRO188     -0.2718
     61  CB        -3.5830   10.0720   10.0130 C.3   188  PRO188      0.0282
     62  CG        -4.4720    8.8960    9.9050 C.3   188  PRO188      0.0208
     63  CD        -3.7930    7.8380   10.6710 C.3   188  PRO188      0.0893
     64  N         -0.8230   11.4420   10.8290 N.am  189  GLY189     -0.1943
     65  CA        -0.1560   12.3410   11.7650 C.3   189  GLY189      0.2014
     66  C         -1.0650   13.5190   12.0230 C.2   189  GLY189      0.2639
     67  O         -1.8960   13.5080   12.9500 O.2   189  GLY189     -0.2714
     68  N         -0.8870   14.5510   11.2140 N.am  190  VAL190     -0.1963
     69  CA        -1.8230   15.6580   11.1650 C.3   190  VAL190      0.1727
     70  C         -2.4800   15.6620    9.7910 C.2   190  VAL190      0.2616
     71  O         -1.8010   15.6820    8.7570 O.2   190  VAL190     -0.2715
     72  CB        -1.1080   16.9920   11.4330 C.3   190  VAL190      0.0290
     73  CG1       -2.0750   18.1340   11.2440 C.3   190  VAL190      0.0023
     74  CG2       -0.5210   17.0000   12.8330 C.3   190  VAL190      0.0023
     75  N         -3.8040   15.6610    9.7960 N.am  191  SER191     -0.1950
     76  CA        -4.5750   15.4050    8.6160 C.3   191  SER191      0.1924
     77  C         -5.8320   16.2600    8.5470 C.2   191  SER191      0.2314
     78  O         -6.6450   16.2640    9.4490 O.2   191  SER191     -0.2863
     79  CB        -4.9780   13.9190    8.6000 C.3   191  SER191      0.2116
     80  OG        -3.8720   13.1290    8.9460 O.3   191  SER191     -0.2180
     81  N         -7.1710   19.7630    8.5630 N.3   193  LEU193     -0.1231
     82  CA        -7.5560   20.5480    9.7400 C.3   193  LEU193      0.1678
     83  C         -8.9450   21.1380    9.4810 C.2   193  LEU193      0.2434
     84  O         -9.2270   21.5250    8.3370 O.2   193  LEU193     -0.2733
     85  CB        -6.5510   21.6500    9.9850 C.3   193  LEU193      0.0284
     86  CG        -5.1740   21.0920   10.3180 C.3   193  LEU193      0.0019
     87  CD1       -4.1560   22.2160   10.1600 C.3   193  LEU193      0.0001
     88  CD2       -5.1700   20.4940   11.7250 C.3   193  LEU193      0.0001
     89  N         -9.8220   21.1540   10.5090 N.am  194  PRO194     -0.2729
     90  CA       -11.1470   21.7210   10.2710 C.3   194  PRO194      0.1401
     91  C        -11.0220   23.1950    9.8390 C.2   194  PRO194      0.2269
     92  O        -10.1940   23.9240   10.3930 O.2   194  PRO194     -0.2865
     93  CB       -11.8470   21.6030   11.6500 C.3   194  PRO194      0.0296
     94  CG       -11.0250   20.6400   12.4380 C.3   194  PRO194      0.0237
     95  CD        -9.6140   20.8200   11.9290 C.3   194  PRO194      0.0939
     96  N        -11.1860   25.5990   12.6440 N.3   197  MET197     -0.1245
     97  CA       -10.0040   25.9410   13.4540 C.3   197  MET197      0.1570
     98  C         -9.3640   27.2960   13.1050 C.2   197  MET197      0.2261
     99  O         -9.3620   27.7350   11.9520 O.2   197  MET197     -0.2867
    100  CB        -8.9530   24.8370   13.3290 C.3   197  MET197      0.0387
    101  CG        -7.7550   25.0090   14.2330 C.3   197  MET197      0.0595
    102  SD        -6.5080   23.7230   13.9910 S.3   197  MET197     -0.1393
    103  CE        -7.3710   22.2460   14.5480 C.3   197  MET197      0.0692
    104  N         -3.7530   28.3290   15.2890 N.3   201  GLU201     -0.1245
    105  CA        -3.7260   26.9480   15.7140 C.3   201  GLU201      0.1567
    106  C         -3.4220   26.0150   14.5400 C.2   201  GLU201      0.2260
    107  O         -2.6800   25.0700   14.6990 O.2   201  GLU201     -0.2867
    108  CB        -5.0530   26.5710   16.3520 C.3   201  GLU201      0.0388
    109  CG        -4.9440   25.3970   17.3180 C.3   201  GLU201      0.1160
    110  CD        -6.2970   24.8540   17.7660 C.2   201  GLU201      0.3649
    111  OE1       -7.3230   25.5620   17.6070 O.co2 201  GLU201     -0.2457
    112  OE2       -6.3360   23.7020   18.2740 O.co2 201  GLU201     -0.2457
    113  N          0.2440   23.5990   14.1150 N.3   205  TRP205     -0.1241
    114  CA         0.2900   22.1700   13.7450 C.3   205  TRP205      0.1605
    115  C          1.0210   21.9580   12.4330 C.2   205  TRP205      0.2264
    116  O          1.8480   21.0640   12.3190 O.2   205  TRP205     -0.2867
    117  CB        -1.1030   21.5940   13.6460 C.3   205  TRP205      0.0550
    118  CG        -1.6500   21.2560   14.9680 C.ar  205  TRP205      0.0003
    119  CD1       -2.5370   21.9860   15.6940 C.ar  205  TRP205      0.0946
    120  CD2       -1.3700   20.0850   15.7290 C.ar  205  TRP205      0.0152
    121  NE1       -2.8100   21.3570   16.8730 N.ar  205  TRP205     -0.2442
    122  CE2       -2.1110   20.1800   16.9210 C.ar  205  TRP205      0.0810
    123  CE3       -0.5720   18.9490   15.5150 C.ar  205  TRP205      0.0012
    124  CZ2       -2.0780   19.1900   17.9030 C.ar  205  TRP205      0.0191
    125  CZ3       -0.5230   17.9770   16.4980 C.ar  205  TRP205      0.0001
    126  CH2       -1.2710   18.1020   17.6790 C.ar  205  TRP205      0.0015
@<TRIPOS>BOND
     1    84    83    2
     2    77    76    1
     3    77    78    2
     4    81    82    1
     5    79    76    1
     6    79    80    1
     7    76    75    1
     8    71    70    2
     9    83    82    1
    10    83    89   am
    11    82    85    1
    12    70    75   am
    13    70    69    1
    14    91    90    1
    15    91    92    2
    16    62    61    1
    17    62    63    1
    18    85    86    1
    19    61    58    1
    20    58    57    1
    21    58    59    1
    22    87    86    1
    23    90    89    1
    24    90    93    1
    25    86    88    1
    26    57    63    1
    27    89    95    1
    28    64    59   am
    29    64    65    1
    30    69    68    1
    31    69    72    1
    32    68    66   am
    33    59    60    2
    34    73    72    1
    35    72    74    1
    36    93    94    1
    37    65    66    1
    38    95    94    1
    39    99    98    2
    40    66    67    2
    41   116   115    2
    42   115   114    1
    43    96    97    1
    44    98    97    1
    45   100    97    1
    46   100   101    1
    47   117   114    1
    48   117   118    1
    49   114   113    1
    50   102   101    1
    51   102   103    1
    52   106   107    2
    53   106   105    1
    54    12    13    1
    55    13    14    1
    56    13    16    1
    57   118   119   ar
    58   118   120   ar
    59    14    15    2
    60   104   105    1
    61   123   120   ar
    62   123   125   ar
    63   119   121   ar
    64   105   108    1
    65   120   122   ar
    66    18    17   ar
    67    16    17    1
    68    26    25    1
    69    26    27    1
    70    20    21    1
    71   108   109    1
    72    25    24    1
    73   125   126   ar
    74    17    19   ar
    75   121   122   ar
    76   122   124   ar
    77   109   110    1
    78    56    55    1
    79    21    24    1
    80    21    22    1
    81   111   110   ar
    82   126   124   ar
    83   110   112   ar
    84     8    10   ar
    85     8     6   ar
    86     5     6    1
    87     5     2    1
    88    10    11   ar
    89     6     7   ar
    90    55    53   ar
    91    55    54   ar
    92    22    23    2
    93    11     9   ar
    94    53    51   ar
    95     7     9   ar
    96     1     2    1
    97    54    52   ar
    98     2     3    1
    99     4     3    2
   100    51    50   ar
   101    33    32    1
   102    52    50   ar
   103    50    49    1
   104    48    47    2
   105    43    44   ar
   106    43    41   ar
   107    44    42   ar
   108    32    29    1
   109    49    46    1
   110    41    39   ar
   111    47    46    1
   112    28    29    1
   113    42    40   ar
   114    46    45    1
   115    29    30    1
   116    39    40   ar
   117    39    38    1
   118    38    35    1
   119    30    31    2
   120    37    36    2
   121    35    36    1
   122    35    34    1
