@<TRIPOS>MOLECULE
tmp/4clhA02.pdb
 125 123 0 0 0
SMALL
GASTEIGER

@<TRIPOS>ATOM
      1  N         13.9320   -8.8120   19.0390 N.3    96  PHE96      -0.1241
      2  CA        12.6970   -9.5040   19.2590 C.3    96  PHE96       0.1605
      3  C         12.9980  -10.7630   20.0520 C.2    96  PHE96       0.2264
      4  O         13.7170  -11.5880   19.5860 O.2    96  PHE96      -0.2867
      5  CB        12.0240   -9.8690   17.9290 C.3    96  PHE96       0.0534
      6  CG        10.7830  -10.7410   18.0770 C.ar   96  PHE96      -0.0203
      7  CD1        9.5420  -10.1810   18.3020 C.ar   96  PHE96      -0.0042
      8  CD2       10.8700  -12.1390   18.0000 C.ar   96  PHE96      -0.0042
      9  CE1        8.4030  -10.9610   18.4220 C.ar   96  PHE96      -0.0003
     10  CE2        9.7350  -12.9220   18.1440 C.ar   96  PHE96      -0.0003
     11  CZ         8.5010  -12.3350   18.3770 C.ar   96  PHE96      -0.0000
     12  N          3.7840   -3.1350   14.1710 N.3   145  ASP145     -0.1239
     13  CA         3.2950   -4.4970   14.4370 C.3   145  ASP145      0.1674
     14  C          1.7890   -4.4180   14.5990 C.2   145  ASP145      0.2266
     15  O          1.3060   -3.7740   15.4910 O.2   145  ASP145     -0.2867
     16  CB         3.9570   -5.0380   15.7000 C.3   145  ASP145      0.1410
     17  CG         3.5840   -6.5100   16.0140 C.2   145  ASP145      0.3668
     18  OD1        2.4980   -6.9820   15.6090 O.co2 145  ASP145     -0.2456
     19  OD2        4.4450   -7.1680   16.6280 O.co2 145  ASP145     -0.2456
     20  N         -0.2480   -6.4720   15.7730 N.3   147  MET147     -0.1245
     21  CA        -0.7510   -7.0780   17.0090 C.3   147  MET147      0.1570
     22  C         -0.4230   -6.2530   18.2570 C.2   147  MET147      0.2261
     23  O         -0.5200   -6.7210   19.3710 O.2   147  MET147     -0.2867
     24  CB        -0.2310   -8.5130   17.1390 C.3   147  MET147      0.0387
     25  CG        -0.6210   -9.4010   15.9670 C.3   147  MET147      0.0595
     26  SD        -2.3550   -9.3390   15.4790 S.3   147  MET147     -0.1393
     27  CE        -3.1740   -9.8270   16.9880 C.3   147  MET147      0.0692
     28  N          1.4110  -10.5270   22.5230 N.3   152  CYS152     -0.1235
     29  CA         1.7650  -11.8790   22.8740 C.3   152  CYS152      0.1677
     30  C          2.2950  -11.9420   24.2880 C.2   152  CYS152      0.2270
     31  O          2.9770  -11.0490   24.7870 O.2   152  CYS152     -0.2867
     32  CB         2.7670  -12.4710   21.8860 C.3   152  CYS152      0.0956
     33  SG         2.0560  -12.4700   20.2200 S.3   152  CYS152     -0.0801
     34  N          5.9580  -10.7270   26.1330 N.3   155  PHE155     -0.1241
     35  CA         6.7120   -9.8210   25.2420 C.3   155  PHE155      0.1605
     36  C          6.5720   -8.3400   25.6010 C.2   155  PHE155      0.2264
     37  O          6.6300   -7.4670   24.7280 O.2   155  PHE155     -0.2867
     38  CB         6.3450  -10.0660   23.7740 C.3   155  PHE155      0.0534
     39  CG         7.0060  -11.3030   23.1730 C.ar  155  PHE155     -0.0203
     40  CD1        6.4770  -12.5690   23.3990 C.ar  155  PHE155     -0.0042
     41  CD2        8.1540  -11.1930   22.4100 C.ar  155  PHE155     -0.0042
     42  CE1        7.0840  -13.7190   22.8410 C.ar  155  PHE155     -0.0003
     43  CE2        8.7480  -12.3100   21.8270 C.ar  155  PHE155     -0.0003
     44  CZ         8.2260  -13.5790   22.0520 C.ar  155  PHE155     -0.0000
     45  N          9.3520   -5.7260   24.1380 N.3   158  TYR158     -0.1241
     46  CA         9.1380   -5.6350   22.7060 C.3   158  TYR158      0.1605
     47  C          7.8640   -4.8330   22.3780 C.2   158  TYR158      0.2264
     48  O          7.8730   -3.9460   21.5190 O.2   158  TYR158     -0.2867
     49  CB         9.1010   -7.0250   22.0710 C.3   158  TYR158      0.0534
     50  CG         8.5610   -7.0210   20.6550 C.ar  158  TYR158     -0.0201
     51  CD1        9.3630   -6.6860   19.5840 C.ar  158  TYR158     -0.0009
     52  CD2        7.2290   -7.3230   20.4130 C.ar  158  TYR158     -0.0009
     53  CE1        8.8560   -6.6660   18.2920 C.ar  158  TYR158      0.0417
     54  CE2        6.7120   -7.3190   19.1350 C.ar  158  TYR158      0.0417
     55  CZ         7.5220   -6.9770   18.0810 C.ar  158  TYR158      0.1957
     56  OH         6.9770   -6.9600   16.8350 O.3   158  TYR158     -0.2866
     57  N          2.9880   -5.2500    9.9320 N.3   188  PRO188     -0.2102
     58  CA         2.7260   -6.6670    9.6360 C.3   188  PRO188      0.1504
     59  C          2.0150   -7.3610   10.7630 C.2   188  PRO188      0.2576
     60  O          2.1450   -6.9550   11.9220 O.2   188  PRO188     -0.2718
     61  CB         4.1470   -7.2520    9.4370 C.3   188  PRO188      0.0282
     62  CG         5.0180   -6.0170    9.2190 C.3   188  PRO188      0.0208
     63  CD         4.4220   -5.0000   10.1190 C.3   188  PRO188      0.0893
     64  N          1.3110   -8.4580   10.4540 N.am  189  GLY189     -0.1943
     65  CA         0.7810   -9.3400   11.4680 C.3   189  GLY189      0.2014
     66  C          1.7240  -10.5140   11.5480 C.2   189  GLY189      0.2639
     67  O          2.7870  -10.4340   12.1610 O.2   189  GLY189     -0.2714
     68  N          1.3430  -11.6140   10.9140 N.am  190  VAL190     -0.1963
     69  CA         2.2520  -12.7440   10.7280 C.3   190  VAL190      0.1727
     70  C          2.8390  -12.6200    9.3140 C.2   190  VAL190      0.2617
     71  O          2.1150  -12.6200    8.3130 O.2   190  VAL190     -0.2715
     72  CB         1.5490  -14.0850   10.9000 C.3   190  VAL190      0.0290
     73  CG1        2.5520  -15.2360   10.8150 C.3   190  VAL190      0.0023
     74  CG2        0.8380  -14.1120   12.2480 C.3   190  VAL190      0.0023
     75  N          4.1470  -12.4280    9.2690 N.am  191  SER191     -0.1936
     76  CA         4.8950  -12.4600    8.0370 C.3   191  SER191      0.2055
     77  C          5.9690  -13.5490    8.2350 C.2   191  SER191      0.2643
     78  O          5.6810  -14.6160    8.8420 O.2   191  SER191     -0.2714
     79  CB         5.4800  -11.0850    7.6810 C.3   191  SER191      0.2130
     80  OG         6.0970  -11.1290    6.3960 O.3   191  SER191     -0.2179
     81  N          7.1690  -13.3400    7.7060 N.am  192  LEU192     -0.1963
     82  CA         8.1240  -14.4290    7.6260 C.3   192  LEU192      0.1728
     83  C          8.4020  -14.9720    9.0110 C.2   192  LEU192      0.2616
     84  O          8.6970  -14.2010    9.9550 O.2   192  LEU192     -0.2715
     85  CB         9.4330  -13.9770    7.0010 C.3   192  LEU192      0.0311
     86  CG         9.4320  -13.5290    5.5500 C.3   192  LEU192      0.0022
     87  CD1       10.8100  -12.9830    5.2290 C.3   192  LEU192      0.0001
     88  CD2        9.0250  -14.6420    4.5840 C.3   192  LEU192      0.0001
     89  N          8.3130  -16.2950    9.1240 N.am  193  LEU193     -0.1964
     90  CA         8.4890  -16.9920   10.3850 C.3   193  LEU193      0.1713
     91  C          9.9590  -17.3630   10.6080 C.2   193  LEU193      0.2458
     92  O         10.7530  -17.2990    9.6790 O.2   193  LEU193     -0.2730
     93  CB         7.6220  -18.2530   10.4090 C.3   193  LEU193      0.0310
     94  CG         6.1340  -17.9550   10.1800 C.3   193  LEU193      0.0022
     95  CD1        5.4060  -19.2300    9.8000 C.3   193  LEU193      0.0001
     96  CD2        5.5360  -17.3020   11.4020 C.3   193  LEU193      0.0001
     97  N         10.3350  -17.6930   11.8590 N.am  194  PRO194     -0.2727
     98  CA        11.7440  -18.0880   12.0620 C.3   194  PRO194      0.1402
     99  C         12.0380  -19.4120   11.3840 C.2   194  PRO194      0.2269
    100  O         11.1500  -20.2690   11.3330 O.2   194  PRO194     -0.2865
    101  CB        11.8820  -18.2210   13.5930 C.3   194  PRO194      0.0296
    102  CG        10.5790  -17.7570   14.1840 C.3   194  PRO194      0.0237
    103  CD         9.5390  -17.7230   13.0950 C.3   194  PRO194      0.0939
    104  N         11.6030  -22.2990   13.7620 N.3   197  MET197     -0.1245
    105  CA        10.2730  -22.5590   14.3130 C.3   197  MET197      0.1570
    106  C          9.7420  -23.8930   13.7830 C.2   197  MET197      0.2261
    107  O          9.7800  -24.1430   12.5950 O.2   197  MET197     -0.2867
    108  CB         9.2980  -21.3900   13.9950 C.3   197  MET197      0.0387
    109  CG         7.8840  -21.6090   14.5070 C.3   197  MET197      0.0595
    110  SD         6.6650  -20.2670   14.2670 S.3   197  MET197     -0.1393
    111  CE         7.2300  -19.0230   15.4280 C.3   197  MET197      0.0692
    112  N          0.2600  -20.4200   13.8270 N.3   205  TRP205     -0.1241
    113  CA         0.2340  -18.9910   13.4720 C.3   205  TRP205      0.1605
    114  C         -0.5210  -18.7720   12.1530 C.2   205  TRP205      0.2264
    115  O         -1.4500  -17.9220   12.0800 O.2   205  TRP205     -0.2867
    116  CB         1.6440  -18.3980   13.4490 C.3   205  TRP205      0.0550
    117  CG         2.1350  -18.0570   14.8350 C.ar  205  TRP205      0.0003
    118  CD1        3.0750  -18.7250   15.5770 C.ar  205  TRP205      0.0946
    119  CD2        1.6810  -16.9620   15.6550 C.ar  205  TRP205      0.0152
    120  NE1        3.2080  -18.1280   16.8170 N.ar  205  TRP205     -0.2442
    121  CE2        2.3810  -17.0300   16.8740 C.ar  205  TRP205      0.0810
    122  CE3        0.7610  -15.9220   15.4630 C.ar  205  TRP205      0.0012
    123  CZ2        2.1860  -16.0940   17.8960 C.ar  205  TRP205      0.0191
    124  CZ3        0.5700  -14.9950   16.4820 C.ar  205  TRP205      0.0001
    125  CH2        1.2700  -15.0950   17.6800 C.ar  205  TRP205      0.0015
@<TRIPOS>BOND
     1    88    86    1
     2    87    86    1
     3    86    85    1
     4    80    79    1
     5    85    82    1
     6    82    81    1
     7    82    83    1
     8    79    76    1
     9    81    77   am
    10    76    77    1
    11    76    75    1
    12    77    78    2
    13    71    70    2
    14    83    89   am
    15    83    84    2
    16    89    90    1
    17    62    61    1
    18    62    63    1
    19    75    70   am
    20    70    69    1
    21    61    58    1
    22    58    57    1
    23    58    59    1
    24    92    91    2
    25    95    94    1
    26    57    63    1
    27    94    93    1
    28    94    96    1
    29    90    93    1
    30    90    91    1
    31    64    59   am
    32    64    65    1
    33    91    97   am
    34    69    72    1
    35    69    68    1
    36    59    60    2
    37    73    72    1
    38    72    74    1
    39    68    66   am
    40   100    99    2
    41    99    98    1
    42    65    66    1
    43    66    67    2
    44    97    98    1
    45    97   103    1
    46    98   101    1
    47   115   114    2
    48   114   113    1
    49   107   106    2
    50   103   102    1
    51   116   113    1
    52   116   117    1
    53   113   112    1
    54   101   102    1
    55   104   105    1
    56   106   105    1
    57   108   105    1
    58   108   109    1
    59    12    13    1
    60   110   109    1
    61   110   111    1
    62    13    14    1
    63    13    16    1
    64    14    15    2
    65   117   118   ar
    66   117   119   ar
    67   122   119   ar
    68   122   124   ar
    69    26    25    1
    70    26    27    1
    71   118   120   ar
    72    18    17   ar
    73   119   121   ar
    74    16    17    1
    75    20    21    1
    76    25    24    1
    77    17    19   ar
    78   124   125   ar
    79   120   121   ar
    80    56    55    1
    81   121   123   ar
    82    21    24    1
    83    21    22    1
    84   125   123   ar
    85     5     6    1
    86     5     2    1
    87     8     6   ar
    88     8    10   ar
    89     6     7   ar
    90    55    53   ar
    91    55    54   ar
    92    10    11   ar
    93    22    23    2
    94    53    51   ar
    95     7     9   ar
    96    11     9   ar
    97     1     2    1
    98    54    52   ar
    99     2     3    1
   100    51    50   ar
   101     4     3    2
   102    33    32    1
   103    52    50   ar
   104    50    49    1
   105    48    47    2
   106    43    44   ar
   107    43    41   ar
   108    32    29    1
   109    44    42   ar
   110    49    46    1
   111    47    46    1
   112    41    39   ar
   113    28    29    1
   114    46    45    1
   115    42    40   ar
   116    29    30    1
   117    39    40   ar
   118    39    38    1
   119    38    35    1
   120    30    31    2
   121    37    36    2
   122    35    36    1
   123    35    34    1
