@<TRIPOS>MOLECULE
tmp/4clhA01.pdb
 92 86 0 0 0
SMALL
GASTEIGER

@<TRIPOS>ATOM
      1  N         15.4720  -11.0790    4.7310 N.3    13  ARG13      -0.1197
      2  CA        14.0740  -11.1650    5.1190 C.3    13  ARG13       0.1779
      3  C         13.2960   -9.8950    4.6700 C.2    13  ARG13       0.2305
      4  O         13.3600   -9.4990    3.5330 O.2    13  ARG13      -0.2863
      5  CB        13.9400  -11.4490    6.6340 C.2    13  ARG13      -0.0007
      6  CG        14.5980  -12.7450    7.1100 C.2    13  ARG13       0.0176
      7  CD        14.7280  -12.9090    8.6300 C.3    13  ARG13       0.2464
      8  NE        13.4480  -12.6710    9.2930 N.pl3  13  ARG13      -0.0815
      9  CZ        12.4500  -13.5380    9.4290 C.cat  13  ARG13       0.5349
     10  NH1       12.5300  -14.7970    8.9870 N.pl3  13  ARG13       0.1354
     11  NH2       11.3390  -13.1400   10.0300 N.pl3  13  ARG13       0.1354
     12  N         15.0660   -4.5010   14.1650 N.3    94  SER94      -0.1217
     13  CA        14.3300   -4.7600   15.3690 C.3    94  SER94       0.1889
     14  C         14.8260   -5.9900   16.1060 C.2    94  SER94       0.2288
     15  O         14.9120   -7.0720   15.5220 O.2    94  SER94      -0.2866
     16  CB        12.8680   -4.9300   15.0070 C.3    94  SER94       0.2089
     17  OG        12.1020   -5.5100   16.0590 O.3    94  SER94      -0.2183
     18  N         13.9320   -8.8120   19.0390 N.3    96  PHE96      -0.1241
     19  CA        12.6970   -9.5040   19.2590 C.3    96  PHE96       0.1605
     20  C         12.9980  -10.7630   20.0520 C.2    96  PHE96       0.2264
     21  O         13.7170  -11.5880   19.5860 O.2    96  PHE96      -0.2867
     22  CB        12.0240   -9.8690   17.9290 C.3    96  PHE96       0.0534
     23  CG        10.7830  -10.7410   18.0770 C.ar   96  PHE96      -0.0203
     24  CD1        9.5420  -10.1810   18.3020 C.ar   96  PHE96      -0.0042
     25  CD2       10.8700  -12.1390   18.0000 C.ar   96  PHE96      -0.0042
     26  CE1        8.4030  -10.9610   18.4220 C.ar   96  PHE96      -0.0003
     27  CE2        9.7350  -12.9220   18.1440 C.ar   96  PHE96      -0.0003
     28  CZ         8.5010  -12.3350   18.3770 C.ar   96  PHE96      -0.0000
     29  N          3.7840   -3.1350   14.1710 N.3   145  ASP145     -0.1239
     30  CA         3.2950   -4.4970   14.4370 C.3   145  ASP145      0.1674
     31  C          1.7890   -4.4180   14.5990 C.2   145  ASP145      0.2266
     32  O          1.3060   -3.7740   15.4910 O.2   145  ASP145     -0.2867
     33  CB         3.9570   -5.0380   15.7000 C.3   145  ASP145      0.1410
     34  CG         3.5840   -6.5100   16.0140 C.2   145  ASP145      0.3668
     35  OD1        2.4980   -6.9820   15.6090 O.co2 145  ASP145     -0.2456
     36  OD2        4.4450   -7.1680   16.6280 O.co2 145  ASP145     -0.2456
     37  N          9.3520   -5.7260   24.1380 N.3   158  TYR158     -0.1241
     38  CA         9.1380   -5.6350   22.7060 C.3   158  TYR158      0.1605
     39  C          7.8640   -4.8330   22.3780 C.2   158  TYR158      0.2264
     40  O          7.8730   -3.9460   21.5190 O.2   158  TYR158     -0.2867
     41  CB         9.1010   -7.0250   22.0710 C.3   158  TYR158      0.0534
     42  CG         8.5610   -7.0210   20.6550 C.ar  158  TYR158     -0.0201
     43  CD1        9.3630   -6.6860   19.5840 C.ar  158  TYR158     -0.0009
     44  CD2        7.2290   -7.3230   20.4130 C.ar  158  TYR158     -0.0009
     45  CE1        8.8560   -6.6660   18.2920 C.ar  158  TYR158      0.0417
     46  CE2        6.7120   -7.3190   19.1350 C.ar  158  TYR158      0.0417
     47  CZ         7.5220   -6.9770   18.0810 C.ar  158  TYR158      0.1957
     48  OH         6.9770   -6.9600   16.8350 O.3   158  TYR158     -0.2866
     49  N          7.3940   -1.3450   20.2930 N.3   162  LYS162     -0.1245
     50  CA         6.5050   -1.0900   19.1430 C.3   162  LYS162      0.1561
     51  C          5.4270   -0.0340   19.3860 C.2   162  LYS162      0.2260
     52  O          5.0910    0.7450   18.4910 O.2   162  LYS162     -0.2867
     53  CB         5.8860   -2.3810   18.6720 C.3   162  LYS162      0.0271
     54  CG         6.8950   -3.2950   17.9650 C.3   162  LYS162      0.0035
     55  CD         7.6390   -2.6620   16.8030 C.3   162  LYS162      0.0206
     56  CE         8.2560   -3.7810   15.9770 C.3   162  LYS162      0.1093
     57  NZ         9.2470   -3.3010   14.9970 N.3   162  LYS162     -0.1314
     58  N          1.3110   -8.4580   10.4540 N.3   189  GLY189     -0.1225
     59  CA         0.7810   -9.3400   11.4680 C.3   189  GLY189      0.1811
     60  C          1.7240  -10.5140   11.5480 C.2   189  GLY189      0.2280
     61  O          2.7870  -10.4340   12.1610 O.2   189  GLY189     -0.2866
     62  N          7.1690  -13.3400    7.7060 N.3   192  LEU192     -0.1231
     63  CA         8.1240  -14.4290    7.6260 C.3   192  LEU192      0.1693
     64  C          8.4020  -14.9720    9.0110 C.2   192  LEU192      0.2592
     65  O          8.6970  -14.2010    9.9550 O.2   192  LEU192     -0.2718
     66  CB         9.4330  -13.9770    7.0010 C.3   192  LEU192      0.0284
     67  CG         9.4320  -13.5290    5.5500 C.3   192  LEU192      0.0019
     68  CD1       10.8100  -12.9830    5.2290 C.3   192  LEU192      0.0001
     69  CD2        9.0250  -14.6420    4.5840 C.3   192  LEU192      0.0001
     70  N          8.3130  -16.2950    9.1240 N.am  193  LEU193     -0.1966
     71  CA         8.4890  -16.9920   10.3850 C.3   193  LEU193      0.1713
     72  C          9.9590  -17.3630   10.6080 C.2   193  LEU193      0.2458
     73  O         10.7530  -17.2990    9.6790 O.2   193  LEU193     -0.2730
     74  CB         7.6220  -18.2530   10.4090 C.3   193  LEU193      0.0310
     75  CG         6.1340  -17.9550   10.1800 C.3   193  LEU193      0.0022
     76  CD1        5.4060  -19.2300    9.8000 C.3   193  LEU193      0.0001
     77  CD2        5.5360  -17.3020   11.4020 C.3   193  LEU193      0.0001
     78  N         10.3350  -17.6930   11.8590 N.am  194  PRO194     -0.2727
     79  CA        11.7440  -18.0880   12.0620 C.3   194  PRO194      0.1402
     80  C         12.0380  -19.4120   11.3840 C.2   194  PRO194      0.2269
     81  O         11.1500  -20.2690   11.3330 O.2   194  PRO194     -0.2865
     82  CB        11.8820  -18.2210   13.5930 C.3   194  PRO194      0.0296
     83  CG        10.5790  -17.7570   14.1840 C.3   194  PRO194      0.0237
     84  CD         9.5390  -17.7230   13.0950 C.3   194  PRO194      0.0939
     85  N         11.6030  -22.2990   13.7620 N.3   197  MET197     -0.1245
     86  CA        10.2730  -22.5590   14.3130 C.3   197  MET197      0.1570
     87  C          9.7420  -23.8930   13.7830 C.2   197  MET197      0.2261
     88  O          9.7800  -24.1430   12.5950 O.2   197  MET197     -0.2867
     89  CB         9.2980  -21.3900   13.9950 C.3   197  MET197      0.0387
     90  CG         7.8840  -21.6090   14.5070 C.3   197  MET197      0.0595
     91  SD         6.6650  -20.2670   14.2670 S.3   197  MET197     -0.1393
     92  CE         7.2300  -19.0230   15.4280 C.3   197  MET197      0.0692
@<TRIPOS>BOND
     1     4     3    2
     2    69    67    1
     3     3     2    1
     4     1     2    1
     5     2     5    1
     6    68    67    1
     7    67    66    1
     8     5     6    2
     9    66    63    1
    10     6     7    1
    11    63    62    1
    12    63    64    1
    13     7     8    1
    14    10     9    1
    15    64    70   am
    16    64    65    2
    17    70    71    1
    18     8     9    2
    19     9    11    1
    20    73    72    2
    21    76    75    1
    22    75    74    1
    23    75    77    1
    24    71    74    1
    25    71    72    1
    26    58    59    1
    27    72    78   am
    28    81    80    2
    29    80    79    1
    30    59    60    1
    31    60    61    2
    32    78    79    1
    33    78    84    1
    34    79    82    1
    35    88    87    2
    36    84    83    1
    37    82    83    1
    38    85    86    1
    39    87    86    1
    40    89    86    1
    41    89    90    1
    42    12    13    1
    43    29    30    1
    44    91    90    1
    45    91    92    1
    46    30    31    1
    47    30    33    1
    48    31    32    2
    49    57    56    1
    50    16    13    1
    51    16    17    1
    52    13    14    1
    53    15    14    2
    54    35    34   ar
    55    33    34    1
    56    56    55    1
    57    34    36   ar
    58    55    54    1
    59    48    47    1
    60    22    23    1
    61    22    19    1
    62    54    53    1
    63    25    23   ar
    64    25    27   ar
    65    23    24   ar
    66    47    45   ar
    67    47    46   ar
    68    27    28   ar
    69    45    43   ar
    70    24    26   ar
    71    28    26   ar
    72    52    51    2
    73    53    50    1
    74    18    19    1
    75    46    44   ar
    76    50    51    1
    77    50    49    1
    78    19    20    1
    79    43    42   ar
    80    21    20    2
    81    44    42   ar
    82    42    41    1
    83    40    39    2
    84    41    38    1
    85    39    38    1
    86    38    37    1
