@<TRIPOS>MOLECULE
tmp/4cloA01.pdb
 134 128 0 0 0
SMALL
GASTEIGER

@<TRIPOS>ATOM
      1  N        -14.5810   13.8060    5.3740 N.3    13  ARG13      -0.1245
      2  CA       -13.1760   13.9570    5.7040 C.3    13  ARG13       0.1563
      3  C        -12.4010   12.7480    5.2410 C.2    13  ARG13       0.2260
      4  O        -12.5400   12.3540    4.0920 O.2    13  ARG13      -0.2867
      5  CB       -13.0230   14.3120    7.1890 C.3    13  ARG13       0.0307
      6  CG       -13.5350   15.7160    7.4890 C.3    13  ARG13       0.0489
      7  CD       -13.7110   16.0270    8.9630 C.3    13  ARG13       0.2205
      8  NE       -12.5090   15.6960    9.7280 N.pl3  13  ARG13      -0.0865
      9  CZ       -11.4730   16.4890    9.8790 C.cat  13  ARG13       0.5346
     10  NH1      -11.4270   17.6940    9.3060 N.pl3  13  ARG13       0.1354
     11  NH2      -10.4310   16.0350   10.5370 N.pl3  13  ARG13       0.1354
     12  N        -14.0970    7.4980   14.6440 N.3    94  SER94      -0.1217
     13  CA       -13.3670    7.6800   15.8870 C.3    94  SER94       0.1889
     14  C        -13.8220    8.9150   16.6160 C.2    94  SER94       0.2288
     15  O        -13.9250    9.9640   15.9910 O.2    94  SER94      -0.2866
     16  CB       -11.8850    7.7680   15.5280 C.3    94  SER94       0.2089
     17  OG       -11.1040    8.4230   16.4650 O.3    94  SER94      -0.2183
     18  N        -12.7850   11.7880   19.4240 N.3    96  PHE96      -0.1241
     19  CA       -11.5420   12.4640   19.7490 C.3    96  PHE96       0.1605
     20  C        -11.8600   13.7230   20.5270 C.2    96  PHE96       0.2264
     21  O        -12.4460   14.6600   19.9780 O.2    96  PHE96      -0.2867
     22  CB       -10.7720   12.7890   18.4380 C.3    96  PHE96       0.0534
     23  CG        -9.5300   13.5940   18.6110 C.ar   96  PHE96      -0.0203
     24  CD1       -8.3160   12.9890   18.9560 C.ar   96  PHE96      -0.0042
     25  CD2       -9.5290   14.9610   18.3850 C.ar   96  PHE96      -0.0042
     26  CE1       -7.1470   13.7330   19.1170 C.ar   96  PHE96      -0.0003
     27  CE2       -8.3670   15.7030   18.5130 C.ar   96  PHE96      -0.0003
     28  CZ        -7.1560   15.1000   18.8690 C.ar   96  PHE96      -0.0000
     29  N         -2.8370    6.0100   14.6420 N.3   144  ASP144     -0.1239
     30  CA        -2.3400    7.3710   14.8970 C.3   144  ASP144      0.1674
     31  C         -0.8260    7.3410   15.0800 C.2   144  ASP144      0.2266
     32  O         -0.2990    6.6370   15.9710 O.2   144  ASP144     -0.2867
     33  CB        -3.0110    7.9210   16.1580 C.3   144  ASP144      0.1410
     34  CG        -2.6810    9.3670   16.4490 C.2   144  ASP144      0.3668
     35  OD1       -1.6100    9.8750   16.0640 O.co2 144  ASP144     -0.2456
     36  OD2       -3.5240   10.0020   17.1110 O.co2 144  ASP144     -0.2456
     37  N         -1.0400   13.6470   22.7590 N.3   151  CYS151     -0.1235
     38  CA        -1.5120   14.9710   23.0880 C.3   151  CYS151      0.1677
     39  C         -1.7980   15.0160   24.5930 C.2   151  CYS151      0.2270
     40  O         -2.3320   14.0730   25.1650 O.2   151  CYS151     -0.2867
     41  CB        -2.7440   15.2960   22.2610 C.3   151  CYS151      0.0956
     42  SG        -2.3410   15.6450   20.5350 S.3   151  CYS151     -0.0801
     43  N         -8.4780    8.6490   24.6390 N.3   157  TYR157     -0.1241
     44  CA        -8.2650    8.5770   23.1890 C.3   157  TYR157      0.1605
     45  C         -7.0060    7.7670   22.8780 C.2   157  TYR157      0.2264
     46  O         -7.0190    6.8310   22.0830 O.2   157  TYR157     -0.2867
     47  CB        -8.1780    9.9800   22.5630 C.3   157  TYR157      0.0534
     48  CG        -7.6120    9.8940   21.1710 C.ar  157  TYR157     -0.0201
     49  CD1       -8.4200    9.5060   20.1040 C.ar  157  TYR157     -0.0009
     50  CD2       -6.2870   10.1270   20.9300 C.ar  157  TYR157     -0.0009
     51  CE1       -7.8890    9.3710   18.8120 C.ar  157  TYR157      0.0417
     52  CE2       -5.7470   10.0390   19.6290 C.ar  157  TYR157      0.0417
     53  CZ        -6.5560    9.6380   18.5910 C.ar  157  TYR157      0.1957
     54  OH        -6.0340    9.5270   17.3310 O.3   157  TYR157     -0.2866
     55  N         -6.4690    4.1120   20.8120 N.3   161  LYS161     -0.1245
     56  CA        -5.6300    3.8850   19.6260 C.3   161  LYS161      0.1561
     57  C         -4.5500    2.8280   19.9050 C.2   161  LYS161      0.2260
     58  O         -4.1980    2.0220   19.0360 O.2   161  LYS161     -0.2867
     59  CB        -5.0160    5.1810   19.1180 C.3   161  LYS161      0.0271
     60  CG        -6.0160    6.1680   18.4660 C.3   161  LYS161      0.0035
     61  CD        -6.7170    5.5720   17.2510 C.3   161  LYS161      0.0206
     62  CE        -7.4390    6.6360   16.3950 C.3   161  LYS161      0.1093
     63  NZ        -8.4500    5.9880   15.4880 N.3   161  LYS161     -0.1314
     64  N         -0.4170   11.2830   10.7740 N.3   188  GLY188     -0.1210
     65  CA         0.0500   12.2950   11.6680 C.3   188  GLY188      0.1956
     66  C         -1.0510   13.3470   11.6690 C.2   188  GLY188      0.2612
     67  O         -2.2180   13.0310   11.8230 O.2   188  GLY188     -0.2717
     68  N         -0.7110   14.5840   11.4230 N.am  189  VAL189     -0.1965
     69  CA        -1.7440   15.6090   11.3530 C.3   189  VAL189      0.1727
     70  C         -2.2820   15.6220    9.9430 C.2   189  VAL189      0.2617
     71  O         -1.5180   15.6260    8.9890 O.2   189  VAL189     -0.2715
     72  CB        -1.1970   16.9830   11.7110 C.3   189  VAL189      0.0290
     73  CG1       -2.3400   17.9800   11.7190 C.3   189  VAL189      0.0023
     74  CG2       -0.5190   16.9350   13.0770 C.3   189  VAL189      0.0023
     75  N         -3.5980   15.6630    9.8290 N.am  190  SER190     -0.1936
     76  CA        -4.2720   15.5870    8.5730 C.3   190  SER190      0.2055
     77  C         -5.5340   16.4620    8.6070 C.2   190  SER190      0.2643
     78  O         -6.2480   16.4760    9.6020 O.2   190  SER190     -0.2714
     79  CB        -4.6500   14.1110    8.3410 C.3   190  SER190      0.2130
     80  OG        -5.4570   13.9680    7.1700 O.3   190  SER190     -0.2179
     81  N         -5.8370   17.1550    7.5210 N.am  191  LEU191     -0.1963
     82  CA        -7.1210   17.8540    7.3800 C.3   191  LEU191      0.1728
     83  C         -7.4740   18.7250    8.6050 C.2   191  LEU191      0.2616
     84  O         -8.2600   18.3540    9.4340 O.2   191  LEU191     -0.2715
     85  CB        -8.2330   16.8290    7.0870 C.3   191  LEU191      0.0311
     86  CG        -9.3350   17.2270    6.0960 C.3   191  LEU191      0.0022
     87  CD1       -8.7540   18.0450    4.9410 C.3   191  LEU191      0.0001
     88  CD2      -10.1070   16.0080    5.6060 C.3   191  LEU191      0.0001
     89  N         -6.8550   19.8920    8.7210 N.am  192  LEU192     -0.1964
     90  CA        -7.0970   20.7380    9.8910 C.3   192  LEU192      0.1713
     91  C         -8.4770   21.3630    9.7800 C.2   192  LEU192      0.2458
     92  O         -8.8820   21.7580    8.6770 O.2   192  LEU192     -0.2730
     93  CB        -6.0490   21.8180    9.9970 C.3   192  LEU192      0.0310
     94  CG        -4.6920   21.2240   10.3530 C.3   192  LEU192      0.0022
     95  CD1       -3.6450   22.3200   10.2730 C.3   192  LEU192      0.0001
     96  CD2       -4.7430   20.5760   11.7320 C.3   192  LEU192      0.0001
     97  N         -9.2200   21.4190   10.9050 N.am  193  PRO193     -0.2727
     98  CA       -10.5470   22.0370   10.7500 C.3   193  PRO193      0.1402
     99  C        -10.4490   23.4990   10.2290 C.2   193  PRO193      0.2269
    100  O         -9.5150   24.2400   10.5930 O.2   193  PRO193     -0.2865
    101  CB       -11.1520   21.9450   12.1570 C.3   193  PRO193      0.0296
    102  CG       -10.4460   20.7890   12.7930 C.3   193  PRO193      0.0237
    103  CD        -9.0470   20.7780   12.2260 C.3   193  PRO193      0.0939
    104  N        -10.5720   26.1230   13.1970 N.3   196  MET196     -0.1245
    105  CA        -9.3470   26.3230   13.9450 C.3   196  MET196      0.1570
    106  C         -8.5790   27.5810   13.4900 C.2   196  MET196      0.2261
    107  O         -8.4140   27.8390   12.2900 O.2   196  MET196     -0.2867
    108  CB        -8.5000   25.0490   13.8220 C.3   196  MET196      0.0387
    109  CG        -7.1610   25.1010   14.5130 C.3   196  MET196      0.0595
    110  SD        -6.2130   23.5810   14.2820 S.3   196  MET196     -0.1393
    111  CE        -4.5910   24.2260   14.6150 C.3   196  MET196      0.0692
    112  N         -2.9660   29.0690   14.6690 N.3   200  GLU200     -0.1245
    113  CA        -2.8070   27.7590   15.3110 C.3   200  GLU200      0.1567
    114  C         -2.4830   26.6760   14.2650 C.2   200  GLU200      0.2260
    115  O         -1.6480   25.8150   14.4990 O.2   200  GLU200     -0.2867
    116  CB        -4.0510   27.3730   16.1280 C.3   200  GLU200      0.0388
    117  CG        -3.7160   26.5360   17.3600 C.3   200  GLU200      0.1160
    118  CD        -4.8850   25.7070   17.8910 C.2   200  GLU200      0.3649
    119  OE1       -6.0510   26.1710   17.8080 O.co2 200  GLU200     -0.2457
    120  OE2       -4.6330   24.5840   18.4030 O.co2 200  GLU200     -0.2457
    121  N          1.1960   24.3460   13.8720 N.3   204  TRP204     -0.1241
    122  CA         1.2630   22.9020   13.6430 C.3   204  TRP204      0.1605
    123  C          1.8660   22.5310   12.2850 C.2   204  TRP204      0.2264
    124  O          2.7830   21.7130   12.2120 O.2   204  TRP204     -0.2867
    125  CB        -0.1260   22.2510   13.7920 C.3   204  TRP204      0.0550
    126  CG        -0.5080   22.0900   15.2330 C.ar  204  TRP204      0.0003
    127  CD1       -1.2670   22.9420   15.9960 C.ar  204  TRP204      0.0946
    128  CD2       -0.1000   21.0310   16.1050 C.ar  204  TRP204      0.0152
    129  NE1       -1.3590   22.4640   17.2950 N.ar  204  TRP204     -0.2442
    130  CE2       -0.6670   21.2850   17.3760 C.ar  204  TRP204      0.0810
    131  CE3        0.6730   19.8730   15.9290 C.ar  204  TRP204      0.0012
    132  CZ2       -0.4680   20.4300   18.4610 C.ar  204  TRP204      0.0191
    133  CZ3        0.8630   19.0230   17.0110 C.ar  204  TRP204      0.0001
    134  CH2        0.2940   19.2990   18.2490 C.ar  204  TRP204      0.0015
@<TRIPOS>BOND
     1     4     3    2
     2    87    86    1
     3     3     2    1
     4     1     2    1
     5    88    86    1
     6     2     5    1
     7    86    85    1
     8    85    82    1
     9    80    79    1
    10     5     6    1
    11    82    81    1
    12    82    83    1
    13     6     7    1
    14    81    77   am
    15    79    76    1
    16    76    77    1
    17    76    75    1
    18    83    89   am
    19    83    84    2
    20    77    78    2
    21    92    91    2
    22    89    90    1
    23     7     8    1
    24    71    70    2
    25    10     9    1
    26     8     9    2
    27    91    90    1
    28    91    97   am
    29    75    70   am
    30     9    11    1
    31    90    93    1
    32    70    69    1
    33    93    94    1
    34    99   100    2
    35    99    98    1
    36    95    94    1
    37    94    96    1
    38    98    97    1
    39    98   101    1
    40    64    65    1
    41    97   103    1
    42    69    68    1
    43    69    72    1
    44    68    66   am
    45    65    66    1
    46    66    67    2
    47    72    73    1
    48    72    74    1
    49   101   102    1
    50   124   123    2
    51   103   102    1
    52   123   122    1
    53   107   106    2
    54   104   105    1
    55   106   105    1
    56   122   125    1
    57   122   121    1
    58   125   126    1
    59   108   105    1
    60   108   109    1
    61   114   115    2
    62   114   113    1
    63   110   109    1
    64   110   111    1
    65    29    30    1
    66    12    13    1
    67   112   113    1
    68    30    31    1
    69    30    33    1
    70    31    32    2
    71   126   127   ar
    72   126   128   ar
    73   113   116    1
    74    63    62    1
    75    16    13    1
    76    16    17    1
    77    13    14    1
    78   131   128   ar
    79   131   133   ar
    80    15    14    2
    81   127   129   ar
    82    35    34   ar
    83   128   130   ar
    84   116   117    1
    85    33    34    1
    86    62    61    1
    87    34    36   ar
    88   133   134   ar
    89    61    60    1
    90   129   130   ar
    91    54    53    1
    92   117   118    1
    93   130   132   ar
    94   119   118   ar
    95   118   120   ar
    96   134   132   ar
    97    25    27   ar
    98    25    23   ar
    99    22    23    1
   100    22    19    1
   101    60    59    1
   102    27    28   ar
   103    53    51   ar
   104    53    52   ar
   105    23    24   ar
   106    51    49   ar
   107    28    26   ar
   108    24    26   ar
   109    58    57    2
   110    59    56    1
   111    18    19    1
   112    56    57    1
   113    56    55    1
   114    52    50   ar
   115    19    20    1
   116    21    20    2
   117    49    48   ar
   118    42    41    1
   119    50    48   ar
   120    48    47    1
   121    46    45    2
   122    41    38    1
   123    47    44    1
   124    37    38    1
   125    45    44    1
   126    38    39    1
   127    44    43    1
   128    39    40    2
