@<TRIPOS>MOLECULE
tmp/4clpA01.pdb
 184 173 0 0 0
SMALL
GASTEIGER

@<TRIPOS>ATOM
      1  N        -46.4460   -0.6040   -1.8660 N.3    52  THR52      -0.1218
      2  CA       -46.2280   -0.8650   -3.3030 C.3    52  THR52       0.1862
      3  C        -47.5010   -1.3500   -4.0150 C.2    52  THR52       0.2287
      4  O        -47.8600   -0.8150   -5.0890 O.2    52  THR52      -0.2866
      5  CB       -44.9470   -1.6810   -3.6090 C.3    52  THR52       0.1770
      6  OG1      -43.8200   -0.9750   -3.0470 O.3    52  THR52      -0.2211
      7  CG2      -44.7610   -1.7730   -5.1140 C.3    52  THR52       0.0375
      8  N        -36.7350    6.2160    0.8870 N.3    97  ALA97      -0.1231
      9  CA       -36.7330    5.4340   -0.4130 C.3    97  ALA97       0.1694
     10  C        -38.0240    4.7360   -0.4320 C.2    97  ALA97       0.2592
     11  O        -38.1910    3.7830    0.2940 O.2    97  ALA97      -0.2718
     12  CB       -35.6170    4.4520   -0.4460 C.3    97  ALA97       0.0304
     13  N        -38.9650    5.2820   -1.1810 N.am   98  GLY98      -0.1957
     14  CA       -40.2700    4.6750   -1.3170 C.3    98  GLY98       0.1869
     15  C        -41.0450    4.7290    0.0020 C.2    98  GLY98       0.2309
     16  O        -41.2960    5.8280    0.5650 O.2    98  GLY98      -0.2863
     17  N        -29.1740   -3.4570    6.1110 N.3   169  ARG169     -0.1245
     18  CA       -29.9790   -3.9310    4.9660 C.3   169  ARG169      0.1563
     19  C        -30.2660   -5.4530    5.0700 C.2   169  ARG169      0.2260
     20  O        -31.3940   -5.8950    4.8680 O.2   169  ARG169     -0.2867
     21  CB       -29.2560   -3.6830    3.6550 C.3   169  ARG169      0.0307
     22  CG       -30.1600   -4.1290    2.4950 C.3   169  ARG169      0.0489
     23  CD       -29.7500   -3.5510    1.1420 C.3   169  ARG169      0.2205
     24  NE       -29.8250   -2.0790    1.1100 N.pl3 169  ARG169     -0.0865
     25  CZ       -30.8290   -1.3510    0.6060 C.cat 169  ARG169      0.5346
     26  NH1      -31.9050   -1.9150    0.0870 N.pl3 169  ARG169      0.1354
     27  NH2      -30.7470   -0.0260    0.6270 N.pl3 169  ARG169      0.1354
     28  N        -32.8240   -6.0010    7.9460 N.3   172  GLN172     -0.1231
     29  CA       -34.1840   -5.6650    7.5130 C.3   172  GLN172      0.1698
     30  C        -34.8000   -6.7060    6.5040 C.2   172  GLN172      0.2592
     31  O        -35.9660   -7.0350    6.5960 O.2   172  GLN172     -0.2718
     32  CB       -34.1940   -4.2340    6.9250 C.3   172  GLN172      0.0381
     33  CG       -35.5860   -3.6220    6.8820 C.3   172  GLN172      0.0905
     34  CD       -36.1580   -3.8840    5.5450 C.2   172  GLN172      0.2608
     35  OE1      -35.4110   -3.9430    4.5710 O.2   172  GLN172     -0.2717
     36  NE2      -37.4530   -4.1060    5.4770 N.am  172  GLN172     -0.0878
     37  N        -34.0040   -7.1560    5.5450 N.am  173  ASN173     -0.1974
     38  CA       -34.3940   -8.2320    4.6260 C.3   173  ASN173      0.1688
     39  C        -34.6990   -9.5860    5.2350 C.2   173  ASN173      0.2292
     40  O        -35.4660  -10.2890    4.6190 O.2   173  ASN173     -0.2864
     41  CB       -33.3250   -8.4310    3.5760 C.3   173  ASN173      0.1181
     42  CG       -33.3620   -7.3510    2.5430 C.2   173  ASN173      0.2629
     43  OD1      -34.3790   -6.6630    2.4090 O.2   173  ASN173     -0.2716
     44  ND2      -32.2670   -7.1670    1.8170 N.am  173  ASN173     -0.0877
     45  N        -32.3760    1.7490  -13.3270 N.3   288  PHE288     -0.1241
     46  CA       -31.7780    1.4590  -12.0420 C.3   288  PHE288      0.1605
     47  C        -30.3880    0.9140  -12.3320 C.2   288  PHE288      0.2264
     48  O        -30.2400   -0.1750  -12.9260 O.2   288  PHE288     -0.2867
     49  CB       -32.6540    0.4510  -11.2830 C.3   288  PHE288      0.0534
     50  CG       -32.8310    0.7910   -9.8270 C.ar  288  PHE288     -0.0203
     51  CD1      -31.7640    1.1620   -9.0660 C.ar  288  PHE288     -0.0042
     52  CD2      -34.0770    0.7010   -9.2310 C.ar  288  PHE288     -0.0042
     53  CE1      -31.9280    1.4840   -7.7160 C.ar  288  PHE288     -0.0003
     54  CE2      -34.2540    0.9840   -7.9020 C.ar  288  PHE288     -0.0003
     55  CZ       -33.1710    1.3510   -7.1240 C.ar  288  PHE288     -0.0000
     56  N        -32.9920   10.2370   -9.0150 N.3   325  ASN325     -0.1225
     57  CA       -33.9390   10.4180   -7.9260 C.3   325  ASN325      0.1785
     58  C        -33.3390   10.0590   -6.5590 C.2   325  ASN325      0.2597
     59  O        -33.6590   10.6740   -5.5410 O.2   325  ASN325     -0.2718
     60  CB       -35.1470    9.5210   -8.1900 C.3   325  ASN325      0.1169
     61  CG       -36.2100    9.6340   -7.1320 C.2   325  ASN325      0.2627
     62  OD1      -36.2680    8.8380   -6.2130 O.2   325  ASN325     -0.2716
     63  ND2      -37.0960   10.5940   -7.3060 N.am  325  ASN325     -0.0877
     64  N        -32.4860    9.0490   -6.5090 N.am  326  LYS326     -0.1980
     65  CA       -31.9510    8.5650   -5.2560 C.3   326  LYS326      0.1596
     66  C        -30.6800    7.7320   -5.4890 C.2   326  LYS326      0.2287
     67  O        -30.5160    7.0580   -6.5440 O.2   326  LYS326     -0.2864
     68  CB       -33.0940    7.7230   -4.5450 C.3   326  LYS326      0.0298
     69  CG       -33.1330    7.7050   -3.0130 C.3   326  LYS326      0.0038
     70  CD       -33.3370    9.0550   -2.2980 C.3   326  LYS326      0.0206
     71  CE       -34.7710    9.5600   -2.5410 C.3   326  LYS326      0.1093
     72  NZ       -35.0690   10.7830   -1.7300 N.3   326  LYS326     -0.1314
     73  N        -28.0590    4.9440   -3.2570 N.3   328  PHE328     -0.1241
     74  CA       -27.7910    4.2270   -1.9960 C.3   328  PHE328      0.1605
     75  C        -26.8890    3.0810   -2.2480 C.2   328  PHE328      0.2264
     76  O        -26.6350    2.7000   -3.3670 O.2   328  PHE328     -0.2867
     77  CB       -29.0080    3.6720   -1.2760 C.3   328  PHE328      0.0534
     78  CG       -30.1830    3.6020   -2.1130 C.ar  328  PHE328     -0.0203
     79  CD1      -30.1490    2.8490   -3.2180 C.ar  328  PHE328     -0.0042
     80  CD2      -31.2950    4.3600   -1.8260 C.ar  328  PHE328     -0.0042
     81  CE1      -31.2110    2.8410   -4.0650 C.ar  328  PHE328     -0.0003
     82  CE2      -32.3760    4.3350   -2.6460 C.ar  328  PHE328     -0.0003
     83  CZ       -32.3070    3.5940   -3.7820 C.ar  328  PHE328     -0.0000
     84  N        -26.5360   -0.7730   -1.9740 N.3   330  PHE330     -0.1227
     85  CA       -27.1890   -2.0810   -1.8060 C.3   330  PHE330      0.1736
     86  C        -26.2970   -3.0670   -0.9560 C.2   330  PHE330      0.2595
     87  O        -25.2110   -2.7000   -0.4070 O.2   330  PHE330     -0.2718
     88  CB       -27.5560   -2.6620   -3.2000 C.3   330  PHE330      0.0547
     89  CG       -28.9650   -2.3350   -3.6240 C.ar  330  PHE330     -0.0202
     90  CD1      -29.5250   -1.0750   -3.3510 C.ar  330  PHE330     -0.0042
     91  CD2      -29.7490   -3.2850   -4.2710 C.ar  330  PHE330     -0.0042
     92  CE1      -30.8290   -0.7780   -3.7320 C.ar  330  PHE330     -0.0003
     93  CE2      -31.0530   -3.0020   -4.6410 C.ar  330  PHE330     -0.0003
     94  CZ       -31.5940   -1.7510   -4.3730 C.ar  330  PHE330     -0.0000
     95  N        -26.7980   -4.3000   -0.8200 N.am  331  ASP331     -0.1974
     96  CA       -25.9920   -5.4420   -0.3670 C.3   331  ASP331      0.1709
     97  C        -24.7420   -5.4770   -1.2640 C.2   331  ASP331      0.2293
     98  O        -23.6040   -5.4470   -0.7760 O.2   331  ASP331     -0.2864
     99  CB       -26.7790   -6.7740   -0.4740 C.3   331  ASP331      0.1436
    100  CG       -28.0430   -6.7890    0.3820 C.2   331  ASP331      0.3671
    101  OD1      -27.9200   -6.7140    1.6220 O.co2 331  ASP331     -0.2456
    102  OD2      -29.1600   -6.8660   -0.1810 O.co2 331  ASP331     -0.2456
    103  N        -30.9100    5.3360   -8.6740 N.3   337  LEU337     -0.1245
    104  CA       -32.2930    5.2530   -9.1820 C.3   337  LEU337      0.1561
    105  C        -32.5780    6.4590  -10.0440 C.2   337  LEU337      0.2260
    106  O        -32.7060    7.5610   -9.5510 O.2   337  LEU337     -0.2867
    107  CB       -33.2910    5.1140   -8.0040 C.3   337  LEU337      0.0270
    108  CG       -34.7440    4.6860   -8.2440 C.3   337  LEU337      0.0019
    109  CD1      -35.5330    4.4800   -6.9030 C.3   337  LEU337      0.0001
    110  CD2      -35.3950    5.6430   -9.1640 C.3   337  LEU337      0.0001
    111  N        -39.5680   11.2440   -3.7260 N.3   397  THR397     -0.1203
    112  CA       -39.2770    9.8280   -3.9560 C.3   397  THR397      0.1994
    113  C        -40.3090    9.2300   -4.9720 C.2   397  THR397      0.2618
    114  O        -41.2910    9.8690   -5.3760 O.2   397  THR397     -0.2717
    115  CB       -39.2810    9.0910   -2.5920 C.3   397  THR397      0.1784
    116  OG1      -38.6540    7.7770   -2.6990 O.3   397  THR397     -0.2211
    117  CG2      -40.5800    8.9780   -2.0970 C.3   397  THR397      0.0376
    118  N        -40.0720    8.0050   -5.3810 N.am  398  VAL398     -0.1965
    119  CA       -40.9740    7.2650   -6.2880 C.3   398  VAL398      0.1727
    120  C        -41.2990    5.9180   -5.6710 C.2   398  VAL398      0.2616
    121  O        -40.5250    5.3680   -4.8750 O.2   398  VAL398     -0.2715
    122  CB       -40.3440    7.0750   -7.6510 C.3   398  VAL398      0.0290
    123  CG1      -40.1560    8.3880   -8.3120 C.3   398  VAL398      0.0023
    124  CG2      -38.9910    6.3400   -7.5160 C.3   398  VAL398      0.0023
    125  N        -42.5160    5.4560   -5.9370 N.am  399  ILE399     -0.1963
    126  CA       -42.9860    4.2180   -5.4150 C.3   399  ILE399      0.1727
    127  C        -43.7630    3.5590   -6.5500 C.2   399  ILE399      0.2616
    128  O        -44.6230    4.1940   -7.2190 O.2   399  ILE399     -0.2715
    129  CB       -43.9510    4.3970   -4.2310 C.3   399  ILE399      0.0290
    130  CG1      -43.2850    5.1460   -3.0670 C.3   399  ILE399      0.0022
    131  CG2      -44.4820    3.0330   -3.7580 C.3   399  ILE399      0.0023
    132  CD1      -44.3370    5.5220   -2.0230 C.3   399  ILE399      0.0001
    133  N        -43.5330    2.2880   -6.7170 N.am  400  GLY400     -0.1955
    134  CA       -44.3020    1.5580   -7.7260 C.3   400  GLY400      0.1869
    135  C        -43.7150    0.2040   -8.0560 C.2   400  GLY400      0.2309
    136  O        -42.5350   -0.0630   -7.8350 O.2   400  GLY400     -0.2863
    137  N        -40.6200    0.2590  -10.1200 N.3   403  VAL403     -0.1231
    138  CA       -39.4010    0.6100   -9.4520 C.3   403  VAL403      0.1692
    139  C        -38.7860   -0.6400   -8.9030 C.2   403  VAL403      0.2592
    140  O        -37.5980   -0.9090   -9.0960 O.2   403  VAL403     -0.2718
    141  CB       -39.6690    1.6520   -8.2840 C.3   403  VAL403      0.0266
    142  CG1      -38.3770    2.0140   -7.6700 C.3   403  VAL403      0.0020
    143  CG2      -40.3290    2.8850   -8.7860 C.3   403  VAL403      0.0020
    144  N        -39.6010   -1.4590   -8.2120 N.am  404  ASN404     -0.1974
    145  CA       -39.1480   -2.7030   -7.6530 C.3   404  ASN404      0.1688
    146  C        -38.6620   -3.6650   -8.7680 C.2   404  ASN404      0.2292
    147  O        -37.7170   -4.3810   -8.6020 O.2   404  ASN404     -0.2864
    148  CB       -40.3160   -3.3940   -6.8800 C.3   404  ASN404      0.1181
    149  CG       -40.8760   -2.5420   -5.7260 C.2   404  ASN404      0.2629
    150  OD1      -40.3960   -1.4410   -5.4140 O.2   404  ASN404     -0.2716
    151  ND2      -41.9040   -3.0720   -5.0820 N.am  404  ASN404     -0.0877
    152  N        -35.1990   -2.6580  -10.0220 N.3   407  ALA407     -0.1231
    153  CA       -34.2060   -3.0560   -8.9880 C.3   407  ALA407      0.1694
    154  C        -33.9070   -4.5340   -8.9830 C.2   407  ALA407      0.2591
    155  O        -32.7270   -4.9270   -8.8850 O.2   407  ALA407     -0.2718
    156  CB       -34.6660   -2.6060   -7.5820 C.3   407  ALA407      0.0304
    157  N        -34.9420   -5.3680   -9.0630 N.am  408  ARG408     -0.1980
    158  CA       -34.7700   -6.8120   -9.0970 C.3   408  ARG408      0.1597
    159  C        -34.0900   -7.2920  -10.3810 C.2   408  ARG408      0.2287
    160  O        -33.2530   -8.1960  -10.3520 O.2   408  ARG408     -0.2864
    161  CB       -36.1070   -7.5410   -9.0300 C.3   408  ARG408      0.0334
    162  CG       -36.8850   -7.2850   -7.7260 C.3   408  ARG408      0.0492
    163  CD       -36.0260   -7.6290   -6.5380 C.3   408  ARG408      0.2205
    164  NE       -36.5710   -7.2670   -5.2370 N.pl3 408  ARG408     -0.0865
    165  CZ       -35.9850   -7.6360   -4.0990 C.cat 408  ARG408      0.5346
    166  NH1      -34.8470   -8.3480   -4.1220 N.pl3 408  ARG408      0.1354
    167  NH2      -36.5310   -7.3030   -2.9350 N.pl3 408  ARG408      0.1354
    168  N        -30.4330   -6.7630  -10.1860 N.3   411  MET411     -0.1245
    169  CA       -29.8180   -7.7280   -9.2290 C.3   411  MET411      0.1570
    170  C        -29.7850   -9.1510   -9.8180 C.2   411  MET411      0.2261
    171  O        -28.8300   -9.8610   -9.6980 O.2   411  MET411     -0.2867
    172  CB       -30.6030   -7.7760   -7.8700 C.3   411  MET411      0.0387
    173  CG       -30.7670   -6.4530   -7.1040 C.3   411  MET411      0.0595
    174  SD       -32.0840   -6.5520   -5.8350 S.3   411  MET411     -0.1393
    175  CE       -31.7170   -8.2210   -5.1970 C.3   411  MET411      0.0692
    176  N        -37.4690  -12.4470   -6.1490 N.3   443  LYS443     -0.1245
    177  CA       -37.9930  -11.9910   -4.8130 C.3   443  LYS443      0.1561
    178  C        -38.7580  -10.7150   -4.9730 C.2   443  LYS443      0.2260
    179  O        -38.1600   -9.6850   -5.2840 O.2   443  LYS443     -0.2867
    180  CB       -36.8760  -11.7450   -3.7720 C.3   443  LYS443      0.0271
    181  CG       -37.3860  -11.3650   -2.4040 C.3   443  LYS443      0.0035
    182  CD       -36.2390  -11.1400   -1.4460 C.3   443  LYS443      0.0206
    183  CE       -36.7440  -10.4830   -0.1700 C.3   443  LYS443      0.1093
    184  NZ       -35.6580  -10.2830    0.8340 N.3   443  LYS443     -0.1314
@<TRIPOS>BOND
     1    45    46    1
     2    48    47    2
     3    47    46    1
     4    46    49    1
     5    49    50    1
     6   159   160    2
     7   159   158    1
     8   168   169    1
     9   137   138    1
    10   105   106    2
    11   105   104    1
    12   152   153    1
    13    50    52   ar
    14    50    51   ar
    15   170   171    2
    16   170   169    1
    17   138   139    1
    18   138   141    1
    19    52    54   ar
    20   169   172    1
    21   104   103    1
    22   104   107    1
    23   110   108    1
    24   158   157    1
    25   158   161    1
    26   140   139    2
    27    51    53   ar
    28   157   154   am
    29   161   162    1
    30    56    57    1
    31   153   154    1
    32   153   156    1
    33   154   155    2
    34   139   144   am
    35   143   141    1
    36   146   147    2
    37   146   145    1
    38   123   122    1
    39   141   142    1
    40   108   107    1
    41   108   109    1
    42   144   145    1
    43    60    57    1
    44    60    61    1
    45   135   136    2
    46   135   134    1
    47    57    58    1
    48    54    55   ar
    49   172   173    1
    50   162   163    1
    51   134   133    1
    52    53    55   ar
    53   145   148    1
    54   122   124    1
    55   122   119    1
    56    63    61   am
    57   128   127    2
    58    61    62    2
    59   173   174    1
    60   148   149    1
    61   133   127   am
    62    58    64   am
    63    58    59    2
    64   127   126    1
    65    67    66    2
    66   163   164    1
    67    64    65    1
    68   119   120    1
    69   119   118    1
    70   176   177    1
    71   125   120   am
    72   125   126    1
    73   174   175    1
    74   149   150    2
    75   149   151   am
    76   120   121    2
    77    66    65    1
    78   126   129    1
    79   118   113   am
    80   114   113    2
    81   179   178    2
    82    65    68    1
    83   164   165    2
    84     7     5    1
    85     4     3    2
    86   178   177    1
    87   113   112    1
    88   177   180    1
    89    93    94   ar
    90    93    91   ar
    91    68    69    1
    92    94    92   ar
    93    91    89   ar
    94   129   131    1
    95   129   130    1
    96   166   165    1
    97   165   167    1
    98    81    83   ar
    99    81    79   ar
   100     3     2    1
   101   112   111    1
   102   112   115    1
   103    83    82   ar
   104   180   181    1
   105    92    90   ar
   106    89    90   ar
   107    89    88    1
   108     5     2    1
   109     5     6    1
   110    76    75    2
   111     2     1    1
   112    73    74    1
   113    79    78   ar
   114    88    85    1
   115   130   132    1
   116    69    70    1
   117   116   115    1
   118    82    80   ar
   119   115   117    1
   120    71    70    1
   121    71    72    1
   122   181   182    1
   123    75    74    1
   124    78    80   ar
   125    78    77    1
   126    74    77    1
   127    84    85    1
   128    85    86    1
   129   182   183    1
   130    14    13    1
   131    14    15    1
   132    97    98    2
   133    97    96    1
   134    13    10   am
   135    86    95   am
   136    86    87    2
   137    95    96    1
   138    99    96    1
   139    99   100    1
   140    12     9    1
   141    10     9    1
   142    10    11    2
   143     9     8    1
   144   102   100   ar
   145   183   184    1
   146    15    16    2
   147    26    25    1
   148   100   101   ar
   149    25    27    1
   150    25    24    2
   151    24    23    1
   152    23    22    1
   153    44    42   am
   154    43    42    2
   155    22    21    1
   156    42    41    1
   157    41    38    1
   158    21    18    1
   159    35    34    2
   160    40    39    2
   161    38    39    1
   162    38    37    1
   163    20    19    2
   164    18    19    1
   165    18    17    1
   166    36    34   am
   167    34    33    1
   168    37    30   am
   169    30    31    2
   170    30    29    1
   171    33    32    1
   172    32    29    1
   173    29    28    1
