@<TRIPOS>MOLECULE
tmp/4cluA00.pdb
 87 79 0 0 0
SMALL
GASTEIGER

@<TRIPOS>ATOM
      1  N        -19.5090  -33.9200    7.0640 N.3    47  ASP47      -0.1225
      2  CA       -19.6860  -34.6310    5.7870 C.3    47  ASP47       0.1805
      3  C        -20.1940  -36.0280    6.0280 C.2    47  ASP47       0.2598
      4  O        -19.5780  -36.7590    6.7830 O.2    47  ASP47      -0.2718
      5  CB       -18.3410  -34.7500    5.1080 C.3    47  ASP47       0.1424
      6  CG       -18.4290  -35.4330    3.7450 C.2    47  ASP47       0.3668
      7  OD1      -19.1920  -34.9800    2.9140 O.co2  47  ASP47      -0.2456
      8  OD2      -17.6670  -36.3650    3.4850 O.co2  47  ASP47      -0.2456
      9  N        -21.2900  -36.4100    5.3860 N.am   48  ILE48      -0.1966
     10  CA       -21.7340  -37.7990    5.3470 C.3    48  ILE48       0.1727
     11  C        -21.0090  -38.5470    4.2480 C.2    48  ILE48       0.2617
     12  O        -21.3130  -38.3690    3.0860 O.2    48  ILE48      -0.2715
     13  CB       -23.2290  -37.8950    5.0000 C.3    48  ILE48       0.0290
     14  CG1      -24.0740  -36.9360    5.8460 C.3    48  ILE48       0.0022
     15  CG2      -23.7450  -39.3140    5.2140 C.3    48  ILE48       0.0023
     16  CD1      -23.8180  -36.9970    7.3090 C.3    48  ILE48       0.0001
     17  N        -20.0390  -39.3770    4.5560 N.am   49  SER49      -0.1936
     18  CA       -19.5160  -40.2390    3.5030 C.3    49  SER49       0.2055
     19  C        -20.5790  -41.2080    3.0070 C.2    49  SER49       0.2643
     20  O        -21.3680  -41.7210    3.7980 O.2    49  SER49      -0.2714
     21  CB       -18.3670  -41.0850    3.9790 C.3    49  SER49       0.2130
     22  OG       -17.8910  -41.8310    2.8640 O.3    49  SER49      -0.2179
     23  N        -20.6060  -41.4610    1.7020 N.am   50  GLY50      -0.1954
     24  CA       -21.3100  -42.6240    1.1640 C.3    50  GLY50       0.1869
     25  C        -22.5880  -42.3580    0.4270 C.2    50  GLY50       0.2309
     26  O        -23.1120  -43.2640   -0.2330 O.2    50  GLY50      -0.2863
     27  N        -22.7880  -40.3370   -1.9820 N.3    52  THR52      -0.1203
     28  CA       -22.4740  -40.1770   -3.3970 C.3    52  THR52       0.1994
     29  C        -22.5790  -41.5410   -4.0580 C.2    52  THR52       0.2617
     30  O        -23.3080  -41.6960   -5.0330 O.2    52  THR52      -0.2717
     31  CB       -21.1420  -39.4240   -3.6110 C.3    52  THR52       0.1784
     32  OG1      -21.2620  -38.1380   -2.9890 O.3    52  THR52      -0.2211
     33  CG2      -20.8580  -39.2640   -5.0440 C.3    52  THR52       0.0376
     34  N        -21.9670  -42.5770   -3.4700 N.am   53  ALA53      -0.1979
     35  CA       -22.1900  -43.9760   -3.9360 C.3    53  ALA53       0.1597
     36  C        -23.6270  -44.5110   -3.8980 C.2    53  ALA53       0.2287
     37  O        -24.0590  -45.2690   -4.7600 O.2    53  ALA53      -0.2864
     38  CB       -21.3250  -44.8930   -3.1140 C.3    53  ALA53       0.0319
     39  N        -23.7780  -33.8350    0.3350 N.3    99  ASP99      -0.1239
     40  CA       -24.0970  -34.4770    1.6110 C.3    99  ASP99       0.1674
     41  C        -23.2790  -33.9150    2.7750 C.2    99  ASP99       0.2266
     42  O        -23.0760  -34.5910    3.7940 O.2    99  ASP99      -0.2867
     43  CB       -23.9830  -36.0290    1.5010 C.3    99  ASP99       0.1410
     44  CG       -22.6840  -36.4840    0.9680 C.2    99  ASP99       0.3668
     45  OD1      -21.7350  -35.6650    0.8720 O.co2  99  ASP99      -0.2456
     46  OD2      -22.6160  -37.7060    0.6140 O.co2  99  ASP99      -0.2456
     47  N        -17.9110  -37.6090    9.0310 N.3   138  LYS138     -0.1245
     48  CA       -16.5920  -37.0050    9.2930 C.3   138  LYS138      0.1561
     49  C        -16.7390  -35.5100    9.6130 C.2   138  LYS138      0.2260
     50  O        -17.4210  -34.8070    8.8690 O.2   138  LYS138     -0.2867
     51  CB       -15.7470  -37.0230    8.0190 C.3   138  LYS138      0.0271
     52  CG       -15.3020  -38.3670    7.4650 C.3   138  LYS138      0.0035
     53  CD       -14.3650  -38.1030    6.2750 C.3   138  LYS138      0.0206
     54  CE       -14.3910  -39.2380    5.2790 C.3   138  LYS138      0.1093
     55  NZ       -15.6710  -39.1790    4.5140 N.3   138  LYS138     -0.1314
     56  N        -11.4650  -31.5610    7.8540 N.3   173  GLN173     -0.1245
     57  CA       -12.4370  -32.5920    7.4190 C.3   173  GLN173      0.1566
     58  C        -11.8720  -33.6530    6.3920 C.2   173  GLN173      0.2260
     59  O        -12.1430  -34.8540    6.5110 O.2   173  GLN173     -0.2867
     60  CB       -13.7120  -31.8950    6.8930 C.3   173  GLN173      0.0367
     61  CG       -14.9080  -32.8310    6.7910 C.3   173  GLN173      0.0905
     62  CD       -14.9060  -33.4460    5.4280 C.2   173  GLN173      0.2608
     63  OE1      -14.3910  -32.8430    4.4810 O.2   173  GLN173     -0.2717
     64  NE2      -15.4000  -34.6540    5.3200 N.am  173  GLN173     -0.0878
     65  N        -18.6100  -34.9830   -8.2100 N.3   405  ASN405     -0.1240
     66  CA       -17.3030  -35.2080   -7.6380 C.3   405  ASN405      0.1653
     67  C        -16.2340  -35.2590   -8.7680 C.2   405  ASN405      0.2266
     68  O        -15.1470  -34.7530   -8.6220 O.2   405  ASN405     -0.2867
     69  CB       -17.2820  -36.5450   -6.8430 C.3   405  ASN405      0.1155
     70  CG       -18.1190  -36.4720   -5.5620 C.2   405  ASN405      0.2627
     71  OD1      -18.9770  -35.5990   -5.4090 O.2   405  ASN405     -0.2716
     72  ND2      -17.8600  -37.3960   -4.6280 N.am  405  ASN405     -0.0877
     73  N        -12.8780  -33.0220   -9.1280 N.3   409  ARG409     -0.1245
     74  CA       -11.5440  -33.6130   -9.1340 C.3   409  ARG409      0.1563
     75  C        -10.7870  -33.2710  -10.4380 C.2   409  ARG409      0.2260
     76  O         -9.5770  -33.0070  -10.4280 O.2   409  ARG409     -0.2867
     77  CB       -11.5720  -35.1380   -8.9200 C.3   409  ARG409      0.0307
     78  CG       -12.0990  -35.6470   -7.5450 C.3   409  ARG409      0.0489
     79  CD       -11.2780  -35.0460   -6.4170 C.3   409  ARG409      0.2205
     80  NE       -11.6400  -35.4070   -5.0390 N.pl3 409  ARG409     -0.0865
     81  CZ       -12.5300  -34.7590   -4.2790 C.cat 409  ARG409      0.5346
     82  NH1      -13.2260  -33.7140   -4.7390 N.pl3 409  ARG409      0.1354
     83  NH2      -12.7380  -35.1760   -3.0370 N.pl3 409  ARG409      0.1354
     84  N        -10.8810  -40.3100   -4.8070 N.3   445  GLY445     -0.1225
     85  CA       -12.2870  -40.7100   -4.7850 C.3   445  GLY445      0.1811
     86  C        -12.9310  -40.8120   -6.1530 C.2   445  GLY445      0.2280
     87  O        -14.0240  -40.2940   -6.3620 O.2   445  GLY445     -0.2866
@<TRIPOS>BOND
     1    75    76    2
     2    75    74    1
     3    74    73    1
     4    74    77    1
     5    77    78    1
     6    67    68    2
     7    67    66    1
     8    65    66    1
     9    66    69    1
    10    78    79    1
    11    69    70    1
    12    79    80    1
    13    87    86    2
    14    86    85    1
    15    70    71    2
    16    70    72   am
    17    33    31    1
    18    80    81    2
    19    30    29    2
    20    84    85    1
    21    37    36    2
    22    82    81    1
    23    81    83    1
    24    29    34   am
    25    29    28    1
    26    35    36    1
    27    35    34    1
    28    35    38    1
    29    31    28    1
    30    31    32    1
    31    28    27    1
    32    26    25    2
    33    39    40    1
    34    25    24    1
    35    46    44   ar
    36    45    44   ar
    37    44    43    1
    38    24    23    1
    39    43    40    1
    40    40    41    1
    41    23    19   am
    42    41    42    2
    43    22    21    1
    44     7     6   ar
    45    19    18    1
    46    19    20    2
    47    12    11    2
    48     8     6   ar
    49    18    21    1
    50    18    17    1
    51     6     5    1
    52    11    17   am
    53    11    10    1
    54    63    62    2
    55    55    54    1
    56    13    15    1
    57    13    10    1
    58    13    14    1
    59     5     2    1
    60    54    53    1
    61    64    62   am
    62    10     9    1
    63     9     3   am
    64    62    61    1
    65     2     3    1
    66     2     1    1
    67    14    16    1
    68     3     4    2
    69    53    52    1
    70    58    59    2
    71    58    57    1
    72    61    60    1
    73    60    57    1
    74    57    56    1
    75    52    51    1
    76    51    48    1
    77    50    49    2
    78    47    48    1
    79    48    49    1
