@<TRIPOS>MOLECULE
tmp/4clwA00.pdb
 227 216 0 0 0
SMALL
GASTEIGER

@<TRIPOS>ATOM
      1  N         19.6470   32.9310   -6.9060 N.3    47  ASP47      -0.1225
      2  CA        20.1920   33.3300   -5.5910 C.3    47  ASP47       0.1805
      3  C         21.1260   34.5040   -5.7420 C.2    47  ASP47       0.2598
      4  O         22.1170   34.4090   -6.4440 O.2    47  ASP47      -0.2718
      5  CB        20.9370   32.1580   -4.9200 C.3    47  ASP47       0.1424
      6  CG        21.4890   32.5090   -3.5100 C.2    47  ASP47       0.3668
      7  OD1       20.7980   33.2320   -2.7580 O.co2  47  ASP47      -0.2456
      8  OD2       22.6260   32.0670   -3.1640 O.co2  47  ASP47      -0.2456
      9  N         20.8580   35.6080   -5.0630 N.am   48  ILE48      -0.1966
     10  CA        21.8830   36.6620   -4.9710 C.3    48  ILE48       0.1727
     11  C         22.8070   36.5390   -3.7560 C.2    48  ILE48       0.2617
     12  O         22.3370   36.3710   -2.6400 O.2    48  ILE48      -0.2715
     13  CB        21.2550   38.0320   -4.8610 C.3    48  ILE48       0.0290
     14  CG1       20.4760   38.2970   -6.1500 C.3    48  ILE48       0.0022
     15  CG2       22.3430   39.0830   -4.5960 C.3    48  ILE48       0.0023
     16  CD1       19.7430   39.6110   -6.1110 C.3    48  ILE48       0.0001
     17  N         24.0980   36.7000   -4.0040 N.am   49  SER49      -0.1936
     18  CA        25.1210   36.7560   -2.9780 C.3    49  SER49       0.2055
     19  C         25.5940   38.1720   -2.7360 C.2    49  SER49       0.2644
     20  O         25.6740   38.9850   -3.6500 O.2    49  SER49      -0.2714
     21  CB        26.3650   35.9390   -3.3860 C.3    49  SER49       0.2130
     22  OG        26.4550   34.8170   -2.5580 O.3    49  SER49      -0.2179
     23  N         25.9430   38.4390   -1.4900 N.am   50  GLY50      -0.1939
     24  CA        26.5120   39.7150   -1.1030 C.3    50  GLY50       0.2014
     25  C         25.5370   40.5950   -0.3720 C.2    50  GLY50       0.2639
     26  O         25.9440   41.5880    0.1880 O.2    50  GLY50      -0.2714
     27  N         24.2610   40.2300   -0.3430 N.am   51  PHE51      -0.1959
     28  CA        23.3360   41.0480    0.3730 C.3    51  PHE51       0.1771
     29  C         23.3600   40.9620    1.8460 C.2    51  PHE51       0.2620
     30  O         23.0580   41.9870    2.4760 O.2    51  PHE51      -0.2715
     31  CB        21.8970   40.9620   -0.1350 C.3    51  PHE51       0.0574
     32  CG        21.6130   42.0130   -1.1270 C.ar   51  PHE51      -0.0200
     33  CD1       21.5420   43.3490   -0.7300 C.ar   51  PHE51      -0.0042
     34  CD2       21.5030   41.7030   -2.4800 C.ar   51  PHE51      -0.0042
     35  CE1       21.3320   44.3610   -1.6720 C.ar   51  PHE51      -0.0003
     36  CE2       21.3100   42.7090   -3.4410 C.ar   51  PHE51      -0.0003
     37  CZ        21.2170   44.0420   -3.0390 C.ar   51  PHE51      -0.0000
     38  N         23.6760   39.8140    2.4490 N.am   52  THR52      -0.1937
     39  CA        23.6000   39.8250    3.9560 C.3    52  THR52       0.2028
     40  C         24.7940   40.5720    4.5390 C.2    52  THR52       0.2642
     41  O         24.7360   41.0630    5.6960 O.2    52  THR52      -0.2714
     42  CB        23.5030   38.4300    4.6300 C.3    52  THR52       0.1808
     43  OG1       24.6950   37.6890    4.3230 O.3    52  THR52      -0.2208
     44  CG2       22.2670   37.6770    4.0990 C.3    52  THR52       0.0379
     45  N         25.8840   40.6070    3.7620 N.am   53  ALA53      -0.1977
     46  CA        27.0280   41.4350    4.1200 C.3    53  ALA53       0.1597
     47  C         26.6780   42.9210    3.9690 C.2    53  ALA53       0.2287
     48  O         27.0450   43.7390    4.8110 O.2    53  ALA53      -0.2864
     49  CB        28.2450   41.0790    3.2830 C.3    53  ALA53       0.0319
     50  N         12.8140   34.3440   -0.9150 N.3    97  ALA97      -0.1231
     51  CA        13.3880   33.8260    0.3510 C.3    97  ALA97       0.1694
     52  C         14.6450   34.6420    0.5870 C.2    97  ALA97       0.2593
     53  O         15.7000   34.3950   -0.0020 O.2    97  ALA97      -0.2718
     54  CB        13.6800   32.3510    0.2260 C.3    97  ALA97       0.0304
     55  N         14.4880   35.7070    1.3490 N.am   98  GLY98      -0.1942
     56  CA        15.5580   36.6420    1.5210 C.3    98  GLY98       0.2014
     57  C         15.9220   37.3250    0.2230 C.2    98  GLY98       0.2638
     58  O         15.1080   38.0320   -0.4020 O.2    98  GLY98      -0.2714
     59  N         17.1740   37.1570   -0.1750 N.am   99  ASP99      -0.1971
     60  CA        17.6810   37.7400   -1.4280 C.3    99  ASP99       0.1709
     61  C         17.7140   36.7110   -2.6090 C.2    99  ASP99       0.2293
     62  O         18.4660   36.8750   -3.5450 O.2    99  ASP99      -0.2864
     63  CB        19.0840   38.3500   -1.1600 C.3    99  ASP99       0.1436
     64  CG        20.0500   37.3450   -0.5370 C.2    99  ASP99       0.3671
     65  OD1       19.6210   36.1330   -0.4190 O.co2  99  ASP99      -0.2456
     66  OD2       21.1700   37.7950   -0.0790 O.co2  99  ASP99      -0.2456
     67  N         23.7740   33.3040   -8.6150 N.3   136  LYS136     -0.1245
     68  CA        23.8340   31.9010   -8.9980 C.3   136  LYS136      0.1561
     69  C         22.4040   31.4370   -9.3550 C.2   136  LYS136      0.2260
     70  O         21.4640   31.8200   -8.6720 O.2   136  LYS136     -0.2867
     71  CB        24.3540   31.0370   -7.8480 C.3   136  LYS136      0.0271
     72  CG        25.7590   31.3760   -7.3870 C.3   136  LYS136      0.0035
     73  CD        26.0430   30.9390   -5.9610 C.3   136  LYS136      0.0206
     74  CE        27.2990   31.6570   -5.4620 C.3   136  LYS136      0.1093
     75  NZ        27.9600   31.0070   -4.2970 N.3   136  LYS136     -0.1314
     76  N         17.4170   23.1350   -5.8960 N.3   168  ARG168     -0.1245
     77  CA        18.2770   23.5970   -4.8170 C.3   168  ARG168      0.1563
     78  C         19.6780   22.9960   -4.9260 C.2   168  ARG168      0.2260
     79  O         20.6420   23.7030   -4.7800 O.2   168  ARG168     -0.2867
     80  CB        17.7090   23.3080   -3.4220 C.3   168  ARG168      0.0307
     81  CG        18.4470   24.1080   -2.3250 C.3   168  ARG168      0.0489
     82  CD        17.7050   24.1490   -0.9750 C.3   168  ARG168      0.2205
     83  NE        16.4860   24.9610   -1.0600 N.pl3 168  ARG168     -0.0865
     84  CZ        16.3250   26.1790   -0.5410 C.cat 168  ARG168      0.5346
     85  NH1       17.2950   26.7650    0.1560 N.pl3 168  ARG168      0.1354
     86  NH2       15.1700   26.8130   -0.7170 N.pl3 168  ARG168      0.1354
     87  N         21.5010   24.9100   -7.7600 N.3   171  GLN171     -0.1245
     88  CA        21.9070   26.2360   -7.3240 C.3   171  GLN171      0.1566
     89  C         23.0990   26.2000   -6.3180 C.2   171  GLN171      0.2260
     90  O         24.0000   27.0140   -6.4320 O.2   171  GLN171     -0.2867
     91  CB        20.7010   27.0240   -6.7460 C.3   171  GLN171      0.0367
     92  CG        21.0150   28.4940   -6.4350 C.3   171  GLN171      0.0905
     93  CD        21.4950   28.6760   -5.0140 C.2   171  GLN171      0.2608
     94  OE1       20.9690   28.0490   -4.0900 O.2   171  GLN171     -0.2717
     95  NE2       22.5210   29.5070   -4.8320 N.am  171  GLN171     -0.0878
     96  N         14.1710   28.8850   13.3140 N.3   287  PHE287     -0.1241
     97  CA        14.1380   28.1530   12.0780 C.3   287  PHE287      0.1605
     98  C         13.9290   26.6890   12.3600 C.2   287  PHE287      0.2264
     99  O         14.8120   25.9830   12.9480 O.2   287  PHE287     -0.2867
    100  CB        15.4580   28.3860   11.3330 C.3   287  PHE287      0.0534
    101  CG        15.2990   28.7450    9.8870 C.ar  287  PHE287     -0.0203
    102  CD1       14.4270   28.0610    9.0620 C.ar  287  PHE287     -0.0042
    103  CD2       16.0280   29.7920    9.3490 C.ar  287  PHE287     -0.0042
    104  CE1       14.2760   28.4180    7.7010 C.ar  287  PHE287     -0.0003
    105  CE2       15.8960   30.1660    8.0090 C.ar  287  PHE287     -0.0003
    106  CZ        15.0190   29.4820    7.1870 C.ar  287  PHE287     -0.0000
    107  N          7.1400   33.4390    8.9930 N.3   324  ASN324     -0.1225
    108  CA         7.4410   34.3660    7.9170 C.3   324  ASN324      0.1785
    109  C          7.2780   33.6480    6.5910 C.2   324  ASN324      0.2597
    110  O          6.7500   34.2070    5.6640 O.2   324  ASN324     -0.2718
    111  CB         8.8460   34.9460    8.0380 C.3   324  ASN324      0.1169
    112  CG         9.2310   35.8370    6.8480 C.2   324  ASN324      0.2627
    113  OD1        9.9550   35.4410    5.9410 O.2   324  ASN324     -0.2716
    114  ND2        8.7440   37.0470    6.8620 N.am  324  ASN324     -0.0877
    115  N          7.6990   32.3920    6.5230 N.am  325  LYS325     -0.1980
    116  CA         7.6820   31.6070    5.3000 C.3   325  LYS325      0.1596
    117  C          7.9080   30.1440    5.6160 C.2   325  LYS325      0.2287
    118  O          8.6060   29.7840    6.6140 O.2   325  LYS325     -0.2864
    119  CB         8.9170   31.9640    4.4700 C.3   325  LYS325      0.0298
    120  CG         8.8870   33.2650    3.7280 C.3   325  LYS325      0.0038
    121  CD         8.3290   33.0960    2.3200 C.3   325  LYS325      0.0206
    122  CE         7.7890   34.4410    1.8600 C.3   325  LYS325      0.1093
    123  NZ         8.7160   35.5560    2.1880 N.3   325  LYS325     -0.1314
    124  N          9.1490   26.5750    3.3770 N.3   327  PHE327     -0.1241
    125  CA         9.6700   26.0160    2.1290 C.3   327  PHE327      0.1605
    126  C         10.3930   24.7330    2.3420 C.2   327  PHE327      0.2264
    127  O         10.7550   24.4000    3.4740 O.2   327  PHE327     -0.2867
    128  CB        10.6270   26.9840    1.4890 C.3   327  PHE327      0.0534
    129  CG        11.4960   27.6050    2.4500 C.ar  327  PHE327     -0.0203
    130  CD1       12.6640   26.9690    2.8490 C.ar  327  PHE327     -0.0042
    131  CD2       11.1140   28.7750    3.0450 C.ar  327  PHE327     -0.0042
    132  CE1       13.4750   27.5450    3.8140 C.ar  327  PHE327     -0.0003
    133  CE2       11.8920   29.3470    3.9990 C.ar  327  PHE327     -0.0003
    134  CZ        13.0760   28.7300    4.3850 C.ar  327  PHE327     -0.0000
    135  N         13.7190   22.6250    2.0180 N.3   329  PHE329     -0.1241
    136  CA        15.2010   22.6020    1.9190 C.3   329  PHE329      0.1605
    137  C         15.6550   21.2870    1.3170 C.2   329  PHE329      0.2264
    138  O         14.8270   20.4160    1.0400 O.2   329  PHE329     -0.2867
    139  CB        15.8470   22.7250    3.2910 C.3   329  PHE329      0.0534
    140  CG        16.5020   24.0450    3.5340 C.ar  329  PHE329     -0.0203
    141  CD1       15.8400   25.2340    3.2590 C.ar  329  PHE329     -0.0042
    142  CD2       17.7720   24.1040    4.0670 C.ar  329  PHE329     -0.0042
    143  CE1       16.4500   26.4610    3.5000 C.ar  329  PHE329     -0.0003
    144  CE2       18.3800   25.3230    4.3130 C.ar  329  PHE329     -0.0003
    145  CZ        17.7200   26.5020    4.0320 C.ar  329  PHE329     -0.0000
    146  N         10.2610   29.3010    8.7880 N.3   336  LEU336     -0.1245
    147  CA        11.0540   30.4250    9.2550 C.3   336  LEU336      0.1561
    148  C         10.1760   31.2900   10.1310 C.2   336  LEU336      0.2260
    149  O          9.2610   31.9500    9.6430 O.2   336  LEU336     -0.2867
    150  CB        11.6190   31.1890    8.1210 C.3   336  LEU336      0.0270
    151  CG        12.7450   32.2230    8.3630 C.3   336  LEU336      0.0019
    152  CD1       13.1110   32.8740    7.0400 C.3   336  LEU336      0.0001
    153  CD2       12.4070   33.2620    9.3610 C.3   336  LEU336      0.0001
    154  N          9.8310   39.9750    3.5570 N.3   396  THR396     -0.1203
    155  CA        10.8970   39.0050    3.8420 C.3   396  THR396      0.1994
    156  C         11.9200   39.5010    4.9260 C.2   396  THR396      0.2618
    157  O         11.8930   40.6560    5.3520 O.2   396  THR396     -0.2717
    158  CB        11.5480   38.4820    2.5220 C.3   396  THR396      0.1784
    159  OG1       12.3360   37.2790    2.8080 O.3   396  THR396     -0.2211
    160  CG2       12.4490   39.4770    1.9370 C.3   396  THR396      0.0376
    161  N         12.7540   38.5850    5.3970 N.am  397  VAL397     -0.1965
    162  CA        13.8130   38.9050    6.3420 C.3   397  VAL397      0.1727
    163  C         15.1680   38.4850    5.7290 C.2   397  VAL397      0.2616
    164  O         15.2810   37.4600    5.0850 O.2   397  VAL397     -0.2715
    165  CB        13.6020   38.2360    7.6770 C.3   397  VAL397      0.0290
    166  CG1       12.4280   38.8530    8.3380 C.3   397  VAL397      0.0023
    167  CG2       13.4040   36.7120    7.5260 C.3   397  VAL397      0.0023
    168  N         16.1630   39.3540    5.8640 N.am  398  ILE398     -0.1977
    169  CA        17.4910   39.1210    5.3370 C.3   398  ILE398      0.1596
    170  C         18.4520   39.4980    6.4540 C.2   398  ILE398      0.2287
    171  O         18.3130   40.5680    7.1230 O.2   398  ILE398     -0.2864
    172  CB        17.7680   40.0140    4.1240 C.3   398  ILE398      0.0276
    173  CG1       16.8060   39.6780    3.0210 C.3   398  ILE398      0.0022
    174  CG2       19.2220   39.8570    3.6060 C.3   398  ILE398      0.0022
    175  CD1       16.8710   40.6600    1.8640 C.3   398  ILE398      0.0001
    176  N         19.7270   35.2880   10.1440 N.3   402  VAL402     -0.1231
    177  CA        18.7690   34.4090    9.4790 C.3   402  VAL402      0.1692
    178  C         19.5560   33.2520    8.8800 C.2   402  VAL402      0.2592
    179  O         19.1640   32.0780    9.0550 O.2   402  VAL402     -0.2718
    180  CB        17.9220   35.1430    8.3570 C.3   402  VAL402      0.0266
    181  CG1       16.9530   34.2010    7.7620 C.3   402  VAL402      0.0020
    182  CG2       17.1650   36.3850    8.8600 C.3   402  VAL402      0.0020
    183  N         20.6620   33.5600    8.1760 N.am  403  ASN403     -0.1974
    184  CA        21.5440   32.5350    7.6430 C.3   403  ASN403      0.1688
    185  C         22.0790   31.5750    8.7650 C.2   403  ASN403      0.2292
    186  O         22.1460   30.3620    8.5860 O.2   403  ASN403     -0.2864
    187  CB        22.8020   33.1440    6.9720 C.3   403  ASN403      0.1181
    188  CG        22.5070   33.8990    5.6840 C.2   403  ASN403      0.2629
    189  OD1       21.3510   34.2080    5.3780 O.2   403  ASN403     -0.2716
    190  ND2       23.5610   34.1980    4.9160 N.am  403  ASN403     -0.0877
    191  N         19.4760   29.0940    9.9790 N.3   406  ALA406     -0.1231
    192  CA        19.3250   28.0970    8.9090 C.3   406  ALA406      0.1694
    193  C         20.4610   27.0930    8.8630 C.2   406  ALA406      0.2591
    194  O         20.2070   25.9100    8.7580 O.2   406  ALA406     -0.2718
    195  CB        19.1300   28.7520    7.5430 C.3   406  ALA406      0.0304
    196  N         21.7060   27.5510    8.9970 N.am  407  ARG407     -0.1980
    197  CA        22.8280   26.6370    9.0080 C.3   407  ARG407      0.1597
    198  C         22.8900   25.7750   10.2950 C.2   407  ARG407      0.2287
    199  O         23.3070   24.6250   10.2280 O.2   407  ARG407     -0.2864
    200  CB        24.1660   27.3610    8.8300 C.3   407  ARG407      0.0334
    201  CG        24.2750   28.2270    7.5560 C.3   407  ARG407      0.0492
    202  CD        23.9730   27.3820    6.3670 C.3   407  ARG407      0.2205
    203  NE        24.4740   27.8620    5.0860 N.pl3 407  ARG407     -0.0865
    204  CZ        24.1370   27.3020    3.9170 C.cat 407  ARG407      0.5346
    205  NH1       23.3180   26.2450    3.8630 N.pl3 407  ARG407      0.1354
    206  NH2       24.6150   27.7940    2.7880 N.pl3 407  ARG407      0.1354
    207  N         20.7790   22.6840   10.1460 N.3   410  MET410     -0.1245
    208  CA        21.3740   21.7160    9.1960 C.3   410  MET410      0.1570
    209  C         22.6160   21.0950    9.7830 C.2   410  MET410      0.2261
    210  O         22.8360   19.9290    9.6550 O.2   410  MET410     -0.2867
    211  CB        21.8190   22.3820    7.8830 C.3   410  MET410      0.0387
    212  CG        20.6990   22.8840    6.9830 C.3   410  MET410      0.0595
    213  SD        21.3500   23.7350    5.5240 S.3   410  MET410     -0.1393
    214  CE        21.0590   25.4280    6.0200 C.3   410  MET410      0.0692
    215  N         28.6790   26.8310    6.0830 N.3   442  LYS442     -0.1231
    216  CA        28.6360   27.5150    4.7710 C.3   442  LYS442      0.1693
    217  C         28.0870   28.9160    4.8400 C.2   442  LYS442      0.2592
    218  O         26.8700   29.1440    5.1250 O.2   442  LYS442     -0.2718
    219  CB        27.8120   26.7210    3.7420 C.3   442  LYS442      0.0285
    220  CG        28.1410   27.0050    2.3230 C.3   442  LYS442      0.0035
    221  CD        27.3150   26.1030    1.4690 C.3   442  LYS442      0.0206
    222  CE        27.6610   26.2650    0.0190 C.3   442  LYS442      0.1093
    223  NZ        26.6120   25.6180   -0.8140 N.3   442  LYS442     -0.1314
    224  N         28.9730   29.8640    4.5510 N.am  443  GLY443     -0.1957
    225  CA        28.5580   31.2520    4.4650 C.3   443  GLY443      0.1869
    226  C         28.1220   31.7380    5.8300 C.2   443  GLY443      0.2309
    227  O         27.0230   32.3180    6.0010 O.2   443  GLY443     -0.2863
@<TRIPOS>BOND
     1    69    68    1
     2    69    70    2
     3    68    67    1
     4    68    71    1
     5    71    72    1
     6    87    88    1
     7    72    73    1
     8    88    91    1
     9    88    89    1
    10     1     2    1
    11    91    92    1
    12     4     3    2
    13    92    93    1
    14    90    89    2
    15    14    16    1
    16    14    13    1
    17    73    74    1
    18    76    77    1
    19     3     2    1
    20     3     9   am
    21     2     5    1
    22    74    75    1
    23     9    10    1
    24    93    95   am
    25    93    94    2
    26    10    13    1
    27    10    11    1
    28    78    77    1
    29    78    79    2
    30     5     6    1
    31    13    15    1
    32    77    80    1
    33    17    11   am
    34    17    18    1
    35    11    12    2
    36    20    19    2
    37    62    61    2
    38     6     8   ar
    39     6     7   ar
    40    36    37   ar
    41    36    34   ar
    42    80    81    1
    43    21    18    1
    44    21    22    1
    45    37    35   ar
    46    18    19    1
    47    19    23   am
    48    61    60    1
    49    34    32   ar
    50    81    82    1
    51    35    33   ar
    52    23    24    1
    53    60    63    1
    54    60    59    1
    55    63    64    1
    56    32    33   ar
    57    32    31    1
    58    24    25    1
    59    83    82    1
    60    83    84    2
    61    50    51    1
    62   223   222    1
    63    86    84    1
    64    84    85    1
    65    64    65   ar
    66    64    66   ar
    67    58    57    2
    68    25    27   am
    69    25    26    2
    70    27    28    1
    71    59    57   am
    72    31    28    1
    73    53    52    2
    74   222   221    1
    75    57    56    1
    76    54    51    1
    77    51    52    1
    78    28    29    1
    79    52    55   am
    80   138   137    2
    81   137   136    1
    82    55    56    1
    83   221   220    1
    84   128   125    1
    85   128   129    1
    86    29    38   am
    87    29    30    2
    88   122   123    1
    89   122   121    1
    90   175   173    1
    91   136   135    1
    92   136   139    1
    93   160   158    1
    94   125   126    1
    95   125   124    1
    96   121   120    1
    97   220   219    1
    98   126   127    2
    99    38    39    1
   100   129   130   ar
   101   129   131   ar
   102   158   159    1
   103   158   155    1
   104   206   204    1
   105   130   132   ar
   106   173   172    1
   107   131   133   ar
   108   141   143   ar
   109   141   140   ar
   110    49    46    1
   111   139   140    1
   112   143   145   ar
   113   140   142   ar
   114   154   155    1
   115   174   172    1
   116   120   119    1
   117   219   216    1
   118    45    46    1
   119    45    40   am
   120   132   134   ar
   121   155   156    1
   122   205   204    1
   123   204   203    2
   124    39    40    1
   125    39    42    1
   126    47    46    1
   127    47    48    2
   128   133   134   ar
   129   145   144   ar
   130   142   144   ar
   131    44    42    1
   132   172   169    1
   133    43    42    1
   134   225   224    1
   135   225   226    1
   136   119   116    1
   137    40    41    2
   138   224   217   am
   139   216   217    1
   140   216   215    1
   141   217   218    2
   142   190   188   am
   143   156   157    2
   144   156   161   am
   145   164   163    2
   146   203   202    1
   147   116   117    1
   148   116   115    1
   149   169   168    1
   150   169   170    1
   151   189   188    2
   152   161   162    1
   153   213   214    1
   154   213   212    1
   155   117   118    2
   156   110   109    2
   157   188   187    1
   158   163   168   am
   159   163   162    1
   160   226   227    2
   161   113   112    2
   162   162   165    1
   163   202   201    1
   164   170   171    2
   165   115   109   am
   166   109   108    1
   167   112   114   am
   168   112   111    1
   169   187   184    1
   170   212   211    1
   171   152   151    1
   172   106   104   ar
   173   106   105   ar
   174   167   165    1
   175   195   192    1
   176   201   200    1
   177   184   183    1
   178   184   185    1
   179   165   166    1
   180   104   102   ar
   181   181   180    1
   182   211   208    1
   183   108   111    1
   184   108   107    1
   185   105   103   ar
   186   150   151    1
   187   150   147    1
   188   183   178   am
   189   180   182    1
   190   180   177    1
   191   151   153    1
   192   186   185    2
   193   194   193    2
   194   146   147    1
   195   200   197    1
   196   193   192    1
   197   193   196   am
   198   178   179    2
   199   178   177    1
   200   192   191    1
   201   196   197    1
   202   197   198    1
   203   102   101   ar
   204   208   209    1
   205   208   207    1
   206   147   148    1
   207   103   101   ar
   208   177   176    1
   209   149   148    2
   210   210   209    2
   211   101   100    1
   212   199   198    2
   213   100    97    1
   214    97    98    1
   215    97    96    1
   216    98    99    2
