@<TRIPOS>MOLECULE
tmp/4clwA01.pdb
 131 130 0 0 0
SMALL
GASTEIGER

@<TRIPOS>ATOM
      1  N          1.3350   39.9230   -3.7270 N.3    19  HIS19      -0.1226
      2  CA         2.0110   39.1040   -2.8040 C.3    19  HIS19       0.1752
      3  C          1.9310   37.6370   -3.0970 C.2    19  HIS19       0.2596
      4  O          2.4950   36.8420   -2.3530 O.2    19  HIS19      -0.2718
      5  CB         1.5010   39.3480   -1.3620 C.3    19  HIS19       0.0759
      6  CG         1.8580   40.6950   -0.8770 C.ar   19  HIS19       0.0818
      7  ND1        2.9590   40.9080   -0.0730 N.ar   19  HIS19      -0.2268
      8  CD2        1.3600   41.9210   -1.1760 C.ar   19  HIS19       0.1154
      9  CE1        3.0960   42.2040    0.1640 C.ar   19  HIS19       0.1986
     10  NE2        2.1330   42.8450   -0.4850 N.ar   19  HIS19      -0.2212
     11  N          1.2590   37.2620   -4.1680 N.am   20  LEU20      -0.1966
     12  CA         1.0580   35.8500   -4.4590 C.3    20  LEU20       0.1713
     13  C          1.3450   35.5170   -5.9120 C.2    20  LEU20       0.2458
     14  O          1.2170   36.3740   -6.8110 O.2    20  LEU20      -0.2730
     15  CB        -0.3940   35.4780   -4.1520 C.3    20  LEU20       0.0310
     16  CG        -0.7960   35.5690   -2.6890 C.3    20  LEU20       0.0022
     17  CD1       -2.3100   35.6130   -2.5500 C.3    20  LEU20       0.0001
     18  CD2       -0.1610   34.3970   -1.9510 C.3    20  LEU20       0.0001
     19  N          1.7500   34.2550   -6.1470 N.am   21  PRO21      -0.2727
     20  CA         1.9210   33.8070   -7.4960 C.3    21  PRO21       0.1402
     21  C          0.5950   33.4470   -8.1690 C.2    21  PRO21       0.2269
     22  O         -0.4370   33.2000   -7.4990 O.2    21  PRO21      -0.2865
     23  CB         2.7590   32.5470   -7.3330 C.3    21  PRO21       0.0296
     24  CG         2.2700   31.9490   -6.0420 C.3    21  PRO21       0.0237
     25  CD         2.0470   33.1850   -5.1570 C.3    21  PRO21       0.0939
     26  N          7.1710   32.2710   -7.5870 N.3    94  LEU94      -0.1231
     27  CA         6.4710   31.5190   -6.5340 C.3    94  LEU94       0.1693
     28  C          6.7510   32.1010   -5.1970 C.2    94  LEU94       0.2591
     29  O          5.8490   32.2560   -4.3810 O.2    94  LEU94      -0.2718
     30  CB         6.9030   30.0430   -6.4500 C.3    94  LEU94       0.0284
     31  CG         6.6260   29.2400   -7.6980 C.3    94  LEU94       0.0019
     32  CD1        6.9460   27.7730   -7.4740 C.3    94  LEU94       0.0001
     33  CD2        5.1340   29.4140   -8.0560 C.3    94  LEU94       0.0001
     34  N          8.0000   32.4360   -4.9480 N.am   95  LYS95      -0.1980
     35  CA         8.3790   32.8400   -3.5830 C.3    95  LYS95       0.1596
     36  C          9.7110   33.5850   -3.5780 C.2    95  LYS95       0.2287
     37  O         10.5660   33.3430   -4.4490 O.2    95  LYS95      -0.2864
     38  CB         8.4940   31.5570   -2.7930 C.3    95  LYS95       0.0298
     39  CG         8.3540   31.6180   -1.3010 C.3    95  LYS95       0.0038
     40  CD         8.1980   30.2080   -0.7710 C.3    95  LYS95       0.0206
     41  CE         6.7160   29.9210   -0.6680 C.3    95  LYS95       0.1093
     42  NZ         6.5190   28.5690   -0.1250 N.3    95  LYS95      -0.1314
     43  N         -0.8630   28.5820    3.6230 N.3   156  HIS156     -0.1226
     44  CA         0.5510   28.5430    3.1920 C.3   156  HIS156      0.1752
     45  C          0.6000   27.5830    2.0990 C.2   156  HIS156      0.2596
     46  O         -0.2380   26.6940    2.0800 O.2   156  HIS156     -0.2718
     47  CB         1.4620   28.0520    4.2970 C.3   156  HIS156      0.0759
     48  CG         1.5170   28.9850    5.4260 C.ar  156  HIS156      0.0818
     49  ND1        2.3660   30.0610    5.4410 N.ar  156  HIS156     -0.2268
     50  CD2        0.7580   29.0850    6.5370 C.ar  156  HIS156      0.1154
     51  CE1        2.1590   30.7670    6.5360 C.ar  156  HIS156      0.1986
     52  NE2        1.1890   30.1930    7.2130 N.ar  156  HIS156     -0.2212
     53  N          1.4730   27.8050    1.1310 N.am  157  PHE157     -0.1976
     54  CA         1.7580   26.7490    0.1350 C.3   157  PHE157      0.1639
     55  C          3.2440   26.4820   -0.0110 C.2   157  PHE157      0.2290
     56  O          4.0620   27.3380    0.3740 O.2   157  PHE157     -0.2864
     57  CB         1.2250   27.1330   -1.2360 C.3   157  PHE157      0.0560
     58  CG         2.0880   28.1310   -1.9570 C.ar  157  PHE157     -0.0200
     59  CD1        1.9900   29.4610   -1.6840 C.ar  157  PHE157     -0.0042
     60  CD2        3.0140   27.7100   -2.8940 C.ar  157  PHE157     -0.0042
     61  CE1        2.7520   30.3890   -2.3650 C.ar  157  PHE157     -0.0003
     62  CE2        3.8240   28.6340   -3.5610 C.ar  157  PHE157     -0.0003
     63  CZ         3.6950   29.9620   -3.2910 C.ar  157  PHE157     -0.0000
     64  N         -3.2170   34.2960    2.9610 N.3   259  TYR259     -0.1227
     65  CA        -1.8130   33.9960    2.7060 C.3   259  TYR259      0.1736
     66  C         -0.9050   35.1430    3.1020 C.2   259  TYR259      0.2595
     67  O          0.3170   35.0150    3.0140 O.2   259  TYR259     -0.2718
     68  CB        -1.5800   33.7530    1.2170 C.3   259  TYR259      0.0548
     69  CG        -2.1600   32.5140    0.6890 C.ar  259  TYR259     -0.0200
     70  CD1       -3.4410   32.4910    0.2380 C.ar  259  TYR259     -0.0009
     71  CD2       -1.3950   31.2950    0.6360 C.ar  259  TYR259     -0.0009
     72  CE1       -4.0060   31.3410   -0.2740 C.ar  259  TYR259      0.0417
     73  CE2       -1.9490   30.1380    0.1060 C.ar  259  TYR259      0.0417
     74  CZ        -3.2680   30.1520   -0.3200 C.ar  259  TYR259      0.1957
     75  OH        -3.8410   29.0160   -0.8590 O.3   259  TYR259     -0.2866
     76  N         -1.4580   36.2600    3.5260 N.am  260  VAL260     -0.1980
     77  CA        -0.6740   37.4690    3.6810 C.3   260  VAL260      0.1595
     78  C         -0.7960   37.8930    5.1520 C.2   260  VAL260      0.2287
     79  O         -1.8520   37.7590    5.7640 O.2   260  VAL260     -0.2864
     80  CB        -1.3020   38.5820    2.7900 C.3   260  VAL260      0.0276
     81  CG1       -0.6470   39.9460    3.0020 C.3   260  VAL260      0.0022
     82  CG2       -1.2040   38.2360    1.3270 C.3   260  VAL260      0.0022
     83  N          7.1400   33.4390    8.9930 N.3   324  ASN324     -0.1225
     84  CA         7.4410   34.3660    7.9170 C.3   324  ASN324      0.1785
     85  C          7.2780   33.6480    6.5910 C.2   324  ASN324      0.2597
     86  O          6.7500   34.2070    5.6640 O.2   324  ASN324     -0.2718
     87  CB         8.8460   34.9460    8.0380 C.3   324  ASN324      0.1169
     88  CG         9.2310   35.8370    6.8480 C.2   324  ASN324      0.2627
     89  OD1        9.9550   35.4410    5.9410 O.2   324  ASN324     -0.2716
     90  ND2        8.7440   37.0470    6.8620 N.am  324  ASN324     -0.0877
     91  N          7.6990   32.3920    6.5230 N.am  325  LYS325     -0.1980
     92  CA         7.6820   31.6070    5.3000 C.3   325  LYS325      0.1596
     93  C          7.9080   30.1440    5.6160 C.2   325  LYS325      0.2287
     94  O          8.6060   29.7840    6.6140 O.2   325  LYS325     -0.2864
     95  CB         8.9170   31.9640    4.4700 C.3   325  LYS325      0.0298
     96  CG         8.8870   33.2650    3.7280 C.3   325  LYS325      0.0038
     97  CD         8.3290   33.0960    2.3200 C.3   325  LYS325      0.0206
     98  CE         7.7890   34.4410    1.8600 C.3   325  LYS325      0.1093
     99  NZ         8.7160   35.5560    2.1880 N.3   325  LYS325     -0.1314
    100  N          4.8760   42.2630   -8.0730 N.3   392  ARG392     -0.1245
    101  CA         5.1390   40.9770   -7.4400 C.3   392  ARG392      0.1563
    102  C          6.2860   41.1300   -6.4200 C.2   392  ARG392      0.2260
    103  O          7.4580   41.3110   -6.7780 O.2   392  ARG392     -0.2867
    104  CB         5.5050   39.9360   -8.4950 C.3   392  ARG392      0.0307
    105  CG         5.7640   38.5570   -7.9290 C.3   392  ARG392      0.0489
    106  CD         4.4700   37.7740   -7.7350 C.3   392  ARG392      0.2205
    107  NE         4.7260   36.5460   -7.0360 N.pl3 392  ARG392     -0.0865
    108  CZ         4.8060   36.4210   -5.7170 C.cat 392  ARG392      0.5346
    109  NH1        4.6170   37.4500   -4.9440 N.pl3 392  ARG392      0.1354
    110  NH2        5.1320   35.2490   -5.2000 N.pl3 392  ARG392      0.1354
    111  N          7.1060   40.4630   -1.8210 N.3   394  GLU394     -0.1231
    112  CA         6.7490   39.7750   -0.5800 C.3   394  GLU394      0.1699
    113  C          7.5280   40.3350    0.5900 C.2   394  GLU394      0.2592
    114  O          8.6900   40.7700    0.4700 O.2   394  GLU394     -0.2718
    115  CB         7.1020   38.2640   -0.6770 C.3   394  GLU394      0.0402
    116  CG         6.1050   37.4630   -1.5080 C.3   394  GLU394      0.1161
    117  CD         6.4600   35.9580   -1.7360 C.2   394  GLU394      0.3649
    118  OE1        7.4280   35.3880   -1.1400 O.co2 394  GLU394     -0.2457
    119  OE2        5.7630   35.3740   -2.5840 O.co2 394  GLU394     -0.2457
    120  N          6.9230   40.1850    1.7530 N.am  395  TYR395     -0.1976
    121  CA         7.5880   40.5230    2.9800 C.3   395  TYR395      0.1639
    122  C          8.6350   39.5020    3.3250 C.2   395  TYR395      0.2290
    123  O          8.3990   38.2910    3.2920 O.2   395  TYR395     -0.2864
    124  CB         6.6190   40.6200    4.1110 C.3   395  TYR395      0.0560
    125  CG         7.2140   41.1880    5.3910 C.ar  395  TYR395     -0.0198
    126  CD1        7.4700   42.5560    5.5390 C.ar  395  TYR395     -0.0009
    127  CD2        7.4260   40.3630    6.4870 C.ar  395  TYR395     -0.0009
    128  CE1        7.9540   43.0780    6.7360 C.ar  395  TYR395      0.0417
    129  CE2        7.8980   40.8700    7.6710 C.ar  395  TYR395      0.0417
    130  CZ         8.1230   42.2400    7.7790 C.ar  395  TYR395      0.1957
    131  OH         8.5720   42.7170    8.9430 O.3   395  TYR395     -0.2866
@<TRIPOS>BOND
     1   104   105    1
     2   104   101    1
     3    21    22    2
     4    21    20    1
     5   100   101    1
     6    33    31    1
     7   105   106    1
     8   106   107    1
     9    31    32    1
    10    31    30    1
    11    26    27    1
    12    20    23    1
    13    20    19    1
    14   101   102    1
    15    23    24    1
    16   107   108    2
    17    14    13    2
    18   103   102    2
    19    27    30    1
    20    27    28    1
    21    19    13   am
    22    19    25    1
    23    24    25    1
    24    13    12    1
    25   108   110    1
    26   108   109    1
    27    28    34   am
    28    28    29    2
    29    34    35    1
    30    12    11    1
    31    12    15    1
    32    37    36    2
    33    11     3   am
    34    15    16    1
    35     1     2    1
    36    35    36    1
    37    35    38    1
    38    62    63   ar
    39    62    60   ar
    40    63    61   ar
    41     3     2    1
    42     3     4    2
    43    60    58   ar
    44     2     5    1
    45    38    39    1
    46    16    17    1
    47    16    18    1
    48   119   117   ar
    49    61    59   ar
    50    58    59   ar
    51    58    57    1
    52   111   112    1
    53   117   116    1
    54   117   118   ar
    55   116   115    1
    56     5     6    1
    57    39    40    1
    58    57    54    1
    59     8     6   ar
    60     8    10   ar
    61     6     7   ar
    62    75    74    1
    63    40    41    1
    64   115   112    1
    65    41    42    1
    66   112   113    1
    67    10     9   ar
    68    74    72   ar
    69    74    73   ar
    70    72    70   ar
    71     7     9   ar
    72    55    54    1
    73    55    56    2
    74    73    71   ar
    75    54    53    1
    76    70    69   ar
    77   114   113    2
    78   113   120   am
    79    71    69   ar
    80    69    68    1
    81    53    45   am
    82    68    65    1
    83    82    80    1
    84   120   121    1
    85    98    99    1
    86    98    97    1
    87    46    45    2
    88    45    44    1
    89    97    96    1
    90    65    64    1
    91    65    66    1
    92    80    81    1
    93    80    77    1
    94   121   122    1
    95   121   124    1
    96    67    66    2
    97    66    76   am
    98    44    43    1
    99    44    47    1
   100   123   122    2
   101    76    77    1
   102    77    78    1
   103    96    95    1
   104   124   125    1
   105    47    48    1
   106    95    92    1
   107    78    79    2
   108    92    93    1
   109    92    91    1
   110   125   126   ar
   111   125   127   ar
   112    48    49   ar
   113    48    50   ar
   114    49    51   ar
   115   126   128   ar
   116    93    94    2
   117    86    85    2
   118    89    88    2
   119   127   129   ar
   120    91    85   am
   121    51    52   ar
   122    50    52   ar
   123    85    84    1
   124   128   130   ar
   125    88    90   am
   126    88    87    1
   127   129   130   ar
   128   130   131    1
   129    84    87    1
   130    84    83    1
