@<TRIPOS>MOLECULE
tmp/4clxB01.pdb
 117 111 0 0 0
SMALL
GASTEIGER

@<TRIPOS>ATOM
      1  N         17.4830  -11.9600   -7.4630 N.3    13  ARG13      -0.1245
      2  CA        16.5000  -12.0490   -6.3720 C.3    13  ARG13       0.1563
      3  C         15.6930  -10.7260   -6.1790 C.2    13  ARG13       0.2260
      4  O         15.1260  -10.1660   -7.1320 O.2    13  ARG13      -0.2867
      5  CB        17.2420  -12.5440   -5.1120 C.3    13  ARG13       0.0307
      6  CG        17.6950  -14.0030   -5.2390 C.3    13  ARG13       0.0489
      7  CD        18.7150  -14.4190   -4.1920 C.3    13  ARG13       0.2205
      8  NE        18.2510  -14.2050   -2.8110 N.pl3  13  ARG13      -0.0865
      9  CZ        17.5830  -15.0720   -2.0610 C.cat  13  ARG13       0.5346
     10  NH1       17.2840  -16.3050   -2.4940 N.pl3  13  ARG13       0.1354
     11  NH2       17.2510  -14.7200   -0.8130 N.pl3  13  ARG13       0.1354
     12  N         23.0430   -6.4580    0.4960 N.3    94  SER94      -0.1217
     13  CA        23.1570   -6.8300    1.8770 C.3    94  SER94       0.1889
     14  C         23.9430   -8.1000    2.0540 C.2    94  SER94       0.2288
     15  O         23.6090   -9.1360    1.4220 O.2    94  SER94      -0.2866
     16  CB        21.7500   -7.0580    2.4180 C.3    94  SER94       0.2089
     17  OG        21.7530   -7.6650    3.7100 O.3    94  SER94      -0.2183
     18  N         24.7180  -11.2070    4.6220 N.3    96  PHE96      -0.1241
     19  CA        23.9100  -11.8910    5.5620 C.3    96  PHE96       0.1605
     20  C         24.5710  -13.2510    5.9010 C.2    96  PHE96       0.2264
     21  O         24.6230  -14.1310    5.0540 O.2    96  PHE96      -0.2867
     22  CB        22.4570  -12.0900    4.9930 C.3    96  PHE96       0.0534
     23  CG        21.5520  -12.9850    5.8300 C.ar   96  PHE96      -0.0203
     24  CD1       20.8570  -12.5070    6.9470 C.ar   96  PHE96      -0.0042
     25  CD2       21.4010  -14.3410    5.5130 C.ar   96  PHE96      -0.0042
     26  CE1       20.0320  -13.3250    7.6970 C.ar   96  PHE96      -0.0003
     27  CE2       20.5690  -15.1370    6.2420 C.ar   96  PHE96      -0.0003
     28  CZ        19.9010  -14.6760    7.3490 C.ar   96  PHE96      -0.0000
     29  N         14.1080   -5.1650    7.6620 N.3   143  ASP143     -0.1239
     30  CA        13.8800   -6.6070    8.0400 C.3   143  ASP143      0.1674
     31  C         12.7890   -6.6240    9.0770 C.2   143  ASP143      0.2266
     32  O         12.9070   -5.9830   10.1450 O.2   143  ASP143     -0.2867
     33  CB        15.1510   -7.2070    8.5910 C.3   143  ASP143      0.1410
     34  CG        15.0340   -8.7250    8.8350 C.2   143  ASP143      0.3668
     35  OD1       13.8950   -9.2430    8.9480 O.co2 143  ASP143     -0.2456
     36  OD2       16.1000   -9.3640    8.8480 O.co2 143  ASP143     -0.2456
     37  N         17.3530  -13.7600   14.2280 N.3   150  CYS150     -0.1235
     38  CA        17.9400  -15.0800   14.1410 C.3   150  CYS150      0.1677
     39  C         19.0800  -15.2130   15.1710 C.2   150  CYS150      0.2270
     40  O         19.8660  -14.3000   15.4090 O.2   150  CYS150     -0.2867
     41  CB        18.4300  -15.3270   12.7170 C.3   150  CYS150      0.0956
     42  SG        17.1140  -15.6380   11.5040 S.3   150  CYS150     -0.0801
     43  N         24.6950   -8.6110   11.6510 N.3   156  TYR156     -0.1298
     44  CA        23.6220   -8.3830   10.6480 C.3   156  TYR156      0.1290
     45  C         22.4570   -7.5950   11.2750 C.3   156  TYR156      0.2013
     46  O         21.9780   -6.5360   10.7230 O.3   156  TYR156     -0.2188
     47  CB        23.1120   -9.7430   10.0650 C.3   156  TYR156      0.0480
     48  CG        21.8120   -9.5900    9.3410 C.ar  156  TYR156     -0.0204
     49  CD1       21.7750   -9.0730    8.0570 C.ar  156  TYR156     -0.0009
     50  CD2       20.6030   -9.8270    9.9640 C.ar  156  TYR156     -0.0009
     51  CE1       20.5870   -8.8400    7.4060 C.ar  156  TYR156      0.0417
     52  CE2       19.4130   -9.6210    9.3130 C.ar  156  TYR156      0.0417
     53  CZ        19.4020   -9.0840    8.0480 C.ar  156  TYR156      0.1957
     54  OH        18.2180   -8.8630    7.3850 O.3   156  TYR156     -0.2866
     55  N         20.9060   -3.9100   10.3360 N.3   160  LYS160     -0.1245
     56  CA        19.4940   -3.6100   10.0290 C.3   160  LYS160      0.1561
     57  C         18.8310   -2.6050   10.9960 C.2   160  LYS160      0.2260
     58  O         18.0910   -1.7350   10.5810 O.2   160  LYS160     -0.2867
     59  CB        18.6810   -4.8760    9.8900 C.3   160  LYS160      0.0271
     60  CG        19.0720   -5.6610    8.6540 C.3   160  LYS160      0.0035
     61  CD        18.9960   -4.8990    7.3210 C.3   160  LYS160      0.0206
     62  CE        18.9300   -5.8850    6.1520 C.3   160  LYS160      0.1093
     63  NZ        19.0710   -5.2650    4.8260 N.3   160  LYS160     -0.1314
     64  N          9.8370  -10.3930    5.5960 N.3   187  GLY187     -0.1210
     65  CA        10.0050  -11.4060    6.6600 C.3   187  GLY187      0.1956
     66  C         10.8540  -12.5350    6.1040 C.2   187  GLY187      0.2612
     67  O         12.1040  -12.6010    6.2850 O.2   187  GLY187     -0.2717
     68  N         10.1770  -13.4520    5.4610 N.am  188  VAL188     -0.1965
     69  CA        10.8290  -14.4410    4.6230 C.3   188  VAL188      0.1727
     70  C         10.3420  -14.2030    3.2010 C.2   188  VAL188      0.2616
     71  O          9.1320  -14.1370    2.9630 O.2   188  VAL188     -0.2715
     72  CB        10.4990  -15.8680    5.0940 C.3   188  VAL188      0.0290
     73  CG1       11.3690  -16.8740    4.3880 C.3   188  VAL188      0.0023
     74  CG2       10.7390  -15.9970    6.5860 C.3   188  VAL188      0.0023
     75  N         11.2910  -14.0340    2.2900 N.am  189  SER189     -0.1950
     76  CA        11.0640  -13.8870    0.8870 C.3   189  SER189      0.1924
     77  C         12.0930  -14.7550    0.1600 C.2   189  SER189      0.2314
     78  O         13.2810  -14.7160    0.4710 O.2   189  SER189     -0.2863
     79  CB        11.2590  -12.4360    0.4460 C.3   189  SER189      0.2116
     80  OG        11.0210  -12.2680   -0.9740 O.3   189  SER189     -0.2180
     81  N         13.6090  -17.3910    0.1670 N.3   191  LEU191     -0.1231
     82  CA        14.4160  -18.3740    0.8820 C.3   191  LEU191      0.1678
     83  C         15.7430  -18.6750    0.1740 C.2   191  LEU191      0.2434
     84  O         15.8610  -18.4840   -1.0210 O.2   191  LEU191     -0.2733
     85  CB        13.6390  -19.6470    1.1830 C.3   191  LEU191      0.0284
     86  CG        12.5480  -19.3920    2.2220 C.3   191  LEU191      0.0019
     87  CD1       11.4350  -20.4230    2.1100 C.3   191  LEU191      0.0001
     88  CD2       13.1310  -19.3730    3.6330 C.3   191  LEU191      0.0001
     89  N         16.7530  -19.1280    0.9250 N.am  192  PRO192     -0.2729
     90  CA        18.0270  -19.2640    0.2540 C.3   192  PRO192      0.1401
     91  C         17.9980  -20.3030   -0.8670 C.2   192  PRO192      0.2269
     92  O         17.3400  -21.3560   -0.7900 O.2   192  PRO192     -0.2865
     93  CB        18.9860  -19.6760    1.3710 C.3   192  PRO192      0.0296
     94  CG        18.3160  -19.2900    2.6420 C.3   192  PRO192      0.0237
     95  CD        16.8480  -19.4230    2.3620 C.3   192  PRO192      0.0939
     96  N         18.9090  -24.0160    0.0280 N.3   195  MET195     -0.1245
     97  CA        18.2620  -24.6030    1.1960 C.3   195  MET195      0.1570
     98  C         17.3050  -25.7230    0.7910 C.2   195  MET195      0.2261
     99  O         16.4340  -25.5390   -0.0760 O.2   195  MET195     -0.2867
    100  CB        17.4790  -23.5350    1.9740 C.3   195  MET195      0.0387
    101  CG        16.6680  -24.0760    3.1500 C.3   195  MET195      0.0595
    102  SD        15.7400  -22.7940    4.0590 S.3   195  MET195     -0.1393
    103  CE        17.0880  -22.1700    5.0660 C.3   195  MET195      0.0692
    104  N         10.1600  -22.9290    7.7070 N.3   203  TRP203     -0.1241
    105  CA         9.9760  -21.4610    7.7100 C.3   203  TRP203      0.1605
    106  C          8.5900  -21.0680    7.1690 C.2   203  TRP203      0.2264
    107  O          7.8910  -20.2060    7.7280 O.2   203  TRP203     -0.2867
    108  CB        11.1160  -20.7780    6.9300 C.3   203  TRP203      0.0550
    109  CG        12.3680  -20.7570    7.7240 C.ar  203  TRP203      0.0003
    110  CD1       13.4030  -21.6360    7.6500 C.ar  203  TRP203      0.0946
    111  CD2       12.6740  -19.8710    8.7970 C.ar  203  TRP203      0.0152
    112  NE1       14.3540  -21.3440    8.6090 N.ar  203  TRP203     -0.2442
    113  CE2       13.9300  -20.2500    9.3120 C.ar  203  TRP203      0.0810
    114  CE3       12.0120  -18.7770    9.3650 C.ar  203  TRP203      0.0012
    115  CZ2       14.5330  -19.5800   10.3660 C.ar  203  TRP203      0.0191
    116  CZ3       12.6260  -18.0970   10.4130 C.ar  203  TRP203      0.0001
    117  CH2       13.8680  -18.5030   10.8990 C.ar  203  TRP203      0.0015
@<TRIPOS>BOND
     1     1     2    1
     2     4     3    2
     3     2     3    1
     4     2     5    1
     5     6     5    1
     6     6     7    1
     7     7     8    1
     8     8     9    2
     9    10     9    1
    10     9    11    1
    11    84    83    2
    12    80    79    1
    13    91    92    2
    14    91    90    1
    15    99    98    2
    16    96    97    1
    17    77    78    2
    18    77    76    1
    19    81    82    1
    20    83    82    1
    21    83    89   am
    22    90    89    1
    23    90    93    1
    24    79    76    1
    25    12    13    1
    26    98    97    1
    27    82    85    1
    28    76    75    1
    29    89    95    1
    30    85    86    1
    31    97   100    1
    32    93    94    1
    33    15    14    2
    34    13    14    1
    35    13    16    1
    36   100   101    1
    37    87    86    1
    38    86    88    1
    39    75    70   am
    40    95    94    1
    41    16    17    1
    42    71    70    2
    43   101   102    1
    44    70    69    1
    45   102   103    1
    46    73    72    1
    47    18    19    1
    48    69    72    1
    49    69    68    1
    50    63    62    1
    51    22    19    1
    52    22    23    1
    53    21    20    2
    54    72    74    1
    55    68    66   am
    56    25    23   ar
    57    25    27   ar
    58    19    20    1
    59    64    65    1
    60    23    24   ar
    61    66    67    2
    62    66    65    1
    63    62    61    1
    64    27    28   ar
    65   108   105    1
    66   108   109    1
    67    24    26   ar
    68   106   105    1
    69   106   107    2
    70    61    60    1
    71    28    26   ar
    72    54    53    1
    73    51    53   ar
    74    51    49   ar
    75   110   109   ar
    76   110   112   ar
    77    29    30    1
    78   104   105    1
    79   109   111   ar
    80    30    33    1
    81    30    31    1
    82    53    52   ar
    83    49    48   ar
    84    33    34    1
    85   112   113   ar
    86    60    59    1
    87   111   113   ar
    88   111   114   ar
    89    34    36   ar
    90    34    35   ar
    91    31    32    2
    92   113   115   ar
    93    52    50   ar
    94    48    50   ar
    95    48    47    1
    96   114   116   ar
    97    59    56    1
    98    56    55    1
    99    56    57    1
   100    47    44    1
   101   115   117   ar
   102   116   117   ar
   103    58    57    2
   104    44    45    1
   105    44    43    1
   106    46    45    1
   107    42    41    1
   108    41    38    1
   109    38    37    1
   110    38    39    1
   111    39    40    2
