@<TRIPOS>MOLECULE
tmp/4clzA00.pdb
 101 95 0 0 0
SMALL
GASTEIGER

@<TRIPOS>ATOM
      1  N        -13.1120  -34.9800   -0.7750 N.3    97  ALA97      -0.1231
      2  CA       -13.7520  -34.6680    0.5120 C.3    97  ALA97       0.1694
      3  C        -15.0340  -35.3640    0.4770 C.2    97  ALA97       0.2592
      4  O        -15.8270  -35.1160   -0.4420 O.2    97  ALA97      -0.2718
      5  CB       -14.0620  -33.1960    0.6120 C.3    97  ALA97       0.0304
      6  N        -15.3220  -36.1230    1.5090 N.am   98  GLY98      -0.1957
      7  CA       -16.5720  -36.8790    1.5250 C.3    98  GLY98       0.1869
      8  C        -16.7530  -37.7310    0.2590 C.2    98  GLY98       0.2309
      9  O        -15.9020  -38.5760   -0.1260 O.2    98  GLY98      -0.2863
     10  N        -14.0680  -28.8650   13.6520 N.3   285  PHE285     -0.1241
     11  CA       -14.0490  -28.2230   12.3850 C.3   285  PHE285      0.1605
     12  C        -13.8370  -26.7700   12.6470 C.2   285  PHE285      0.2264
     13  O        -14.6980  -26.1330   13.3280 O.2   285  PHE285     -0.2867
     14  CB       -15.3580  -28.5190   11.6530 C.3   285  PHE285      0.0534
     15  CG       -15.1560  -28.8760   10.1860 C.ar  285  PHE285     -0.0203
     16  CD1      -14.2170  -28.1930    9.4230 C.ar  285  PHE285     -0.0042
     17  CD2      -15.9200  -29.9050    9.5740 C.ar  285  PHE285     -0.0042
     18  CE1      -13.9550  -28.5570    8.0890 C.ar  285  PHE285     -0.0003
     19  CE2      -15.7110  -30.2370    8.2440 C.ar  285  PHE285     -0.0003
     20  CZ       -14.7450  -29.5380    7.4980 C.ar  285  PHE285     -0.0000
     21  N         -7.1920  -33.7010    9.1650 N.3   322  ASN322     -0.1225
     22  CA        -7.5140  -34.5850    8.0400 C.3   322  ASN322      0.1785
     23  C         -7.5220  -33.8510    6.6870 C.2   322  ASN322      0.2597
     24  O         -7.1790  -34.4270    5.6440 O.2   322  ASN322     -0.2718
     25  CB        -8.8740  -35.1950    8.2070 C.3   322  ASN322      0.1169
     26  CG        -9.2840  -36.0980    7.0150 C.2   322  ASN322      0.2627
     27  OD1      -10.1130  -35.7520    6.2070 O.2   322  ASN322     -0.2716
     28  ND2       -8.6980  -37.2330    6.9340 N.am  322  ASN322     -0.0877
     29  N         -8.0200  -32.6300    6.6660 N.am  323  LYS323     -0.1980
     30  CA        -8.1230  -31.8750    5.4360 C.3   323  LYS323      0.1596
     31  C         -8.1910  -30.4080    5.7760 C.2   323  LYS323      0.2287
     32  O         -8.6340  -30.0410    6.8840 O.2   323  LYS323     -0.2864
     33  CB        -9.4400  -32.1310    4.7200 C.3   323  LYS323      0.0298
     34  CG        -9.8060  -33.5280    4.3280 C.3   323  LYS323      0.0038
     35  CD        -9.1790  -34.0020    3.0160 C.3   323  LYS323      0.0206
     36  CE        -9.6080  -35.4680    2.8420 C.3   323  LYS323      0.1093
     37  NZ        -8.8490  -36.0060    1.7240 N.3   323  LYS323     -0.1314
     38  N         -9.7640  -27.0420    3.5240 N.3   325  PHE325     -0.1241
     39  CA       -10.5090  -26.7100    2.3620 C.3   325  PHE325      0.1605
     40  C        -10.7790  -25.2290    2.4470 C.2   325  PHE325      0.2264
     41  O        -10.9260  -24.7020    3.5760 O.2   325  PHE325     -0.2867
     42  CB       -11.9210  -27.3310    2.4550 C.3   325  PHE325      0.0534
     43  CG       -11.9560  -28.7930    2.5840 C.ar  325  PHE325     -0.0203
     44  CD1      -11.6630  -29.6050    1.4710 C.ar  325  PHE325     -0.0042
     45  CD2      -12.3380  -29.3810    3.7740 C.ar  325  PHE325     -0.0042
     46  CE1      -11.7330  -30.9870    1.5600 C.ar  325  PHE325     -0.0003
     47  CE2      -12.3880  -30.7590    3.8790 C.ar  325  PHE325     -0.0003
     48  CZ       -12.0940  -31.5680    2.7820 C.ar  325  PHE325     -0.0000
     49  N        -13.9260  -22.7870    2.1140 N.3   327  PHE327     -0.1241
     50  CA       -15.3620  -22.7110    2.0790 C.3   327  PHE327      0.1605
     51  C        -15.7440  -21.3970    1.3710 C.2   327  PHE327      0.2264
     52  O        -14.8710  -20.5290    1.1040 O.2   327  PHE327     -0.2867
     53  CB       -15.8930  -22.7410    3.5260 C.3   327  PHE327      0.0534
     54  CG       -16.0530  -24.1260    4.0820 C.ar  327  PHE327     -0.0203
     55  CD1      -15.1180  -25.1300    3.8140 C.ar  327  PHE327     -0.0042
     56  CD2      -17.1490  -24.4300    4.8590 C.ar  327  PHE327     -0.0042
     57  CE1      -15.2670  -26.4080    4.3260 C.ar  327  PHE327     -0.0003
     58  CE2      -17.3210  -25.7110    5.3540 C.ar  327  PHE327     -0.0003
     59  CZ       -16.3780  -26.6960    5.0980 C.ar  327  PHE327     -0.0000
     60  N        -10.3610  -29.4180    9.0050 N.3   334  LEU334     -0.1245
     61  CA       -11.0920  -30.5820    9.5120 C.3   334  LEU334      0.1561
     62  C        -10.1880  -31.4270   10.3960 C.2   334  LEU334      0.2260
     63  O         -9.2750  -32.1610    9.9180 O.2   334  LEU334     -0.2867
     64  CB       -11.7090  -31.3600    8.3440 C.3   334  LEU334      0.0270
     65  CG       -12.7420  -32.4560    8.5920 C.3   334  LEU334      0.0019
     66  CD1      -13.0840  -33.2070    7.3200 C.3   334  LEU334      0.0001
     67  CD2      -12.3260  -33.4200    9.6180 C.3   334  LEU334      0.0001
     68  N         -9.9180  -40.1460    3.7990 N.3   394  THR394     -0.1203
     69  CA       -11.0260  -39.2470    3.9460 C.3   394  THR394      0.1994
     70  C        -11.9110  -39.6780    5.0790 C.2   394  THR394      0.2617
     71  O        -11.9300  -40.8400    5.4140 O.2   394  THR394     -0.2717
     72  CB       -11.8380  -39.2770    2.6120 C.3   394  THR394      0.1784
     73  OG1      -10.9080  -38.9890    1.5580 O.3   394  THR394     -0.2211
     74  CG2      -12.8160  -38.1610    2.6240 C.3   394  THR394      0.0376
     75  N        -12.6110  -38.7300    5.7090 N.am  395  VAL395     -0.1979
     76  CA       -13.6030  -39.0980    6.7150 C.3   395  VAL395      0.1595
     77  C        -14.9820  -38.6740    6.2090 C.2   395  VAL395      0.2287
     78  O        -15.1460  -37.6500    5.5150 O.2   395  VAL395     -0.2864
     79  CB       -13.3340  -38.5570    8.1230 C.3   395  VAL395      0.0276
     80  CG1      -12.2280  -39.3390    8.7870 C.3   395  VAL395      0.0022
     81  CG2      -13.0760  -37.0460    8.1260 C.3   395  VAL395      0.0022
     82  N        -19.4770  -35.4070   10.6090 N.3   400  VAL400     -0.1231
     83  CA       -18.5990  -34.4810    9.8570 C.3   400  VAL400      0.1692
     84  C        -19.3720  -33.3460    9.2930 C.2   400  VAL400      0.2592
     85  O        -19.0200  -32.1880    9.4690 O.2   400  VAL400     -0.2718
     86  CB       -17.8330  -35.2200    8.6890 C.3   400  VAL400      0.0266
     87  CG1      -16.9730  -34.2440    7.9560 C.3   400  VAL400      0.0020
     88  CG2      -17.0250  -36.4010    9.2340 C.3   400  VAL400      0.0020
     89  N        -20.4810  -33.6360    8.6200 N.am  401  ASN401     -0.1974
     90  CA       -21.2430  -32.5460    8.0450 C.3   401  ASN401      0.1688
     91  C        -21.9610  -31.6890    9.1280 C.2   401  ASN401      0.2292
     92  O        -22.0790  -30.5070    8.9350 O.2   401  ASN401     -0.2864
     93  CB       -22.2990  -33.0290    7.0810 C.3   401  ASN401      0.1181
     94  CG       -21.7550  -33.9650    6.0370 C.2   401  ASN401      0.2629
     95  OD1      -20.6050  -33.9130    5.6570 O.2   401  ASN401     -0.2716
     96  ND2      -22.6030  -34.8100    5.5810 N.am  401  ASN401     -0.0877
     97  N        -19.3880  -29.2040   10.3490 N.3   404  ALA404     -0.1245
     98  CA       -19.2380  -28.2140    9.3070 C.3   404  ALA404      0.1562
     99  C        -20.3440  -27.2290    9.2990 C.2   404  ALA404      0.2260
    100  O        -20.0700  -26.0350    9.1320 O.2   404  ALA404     -0.2867
    101  CB       -19.0780  -28.8490    7.8980 C.3   404  ALA404      0.0290
@<TRIPOS>BOND
     1     1     2    1
     2     4     3    2
     3     9     8    2
     4     8     7    1
     5     3     2    1
     6     3     6   am
     7     2     5    1
     8    52    51    2
     9    51    50    1
    10    44    46   ar
    11    44    43   ar
    12     6     7    1
    13    73    72    1
    14    46    48   ar
    15    37    36    1
    16    50    49    1
    17    50    53    1
    18    39    40    1
    19    39    42    1
    20    39    38    1
    21    40    41    2
    22    42    43    1
    23    43    45   ar
    24    72    74    1
    25    72    69    1
    26    48    47   ar
    27    36    35    1
    28    35    34    1
    29    53    54    1
    30    45    47   ar
    31    68    69    1
    32    55    54   ar
    33    55    57   ar
    34    69    70    1
    35    54    56   ar
    36    57    59   ar
    37    34    33    1
    38    33    30    1
    39    56    58   ar
    40    70    71    2
    41    70    75   am
    42    59    58   ar
    43    30    31    1
    44    30    29    1
    45    78    77    2
    46    96    94   am
    47    24    23    2
    48    95    94    2
    49    75    76    1
    50    31    32    2
    51    94    93    1
    52    27    26    2
    53    77    76    1
    54    29    23   am
    55    23    22    1
    56    76    79    1
    57    28    26   am
    58    26    25    1
    59    93    90    1
    60    66    65    1
    61    20    18   ar
    62    20    19   ar
    63   101    98    1
    64    87    86    1
    65    22    25    1
    66    22    21    1
    67    90    89    1
    68    90    91    1
    69    18    16   ar
    70    79    81    1
    71    79    80    1
    72    19    17   ar
    73    64    65    1
    74    64    61    1
    75    65    67    1
    76    89    84   am
    77    86    88    1
    78    86    83    1
    79    92    91    2
    80    60    61    1
    81   100    99    2
    82    84    85    2
    83    84    83    1
    84    99    98    1
    85    98    97    1
    86    16    15   ar
    87    61    62    1
    88    17    15   ar
    89    83    82    1
    90    63    62    2
    91    15    14    1
    92    14    11    1
    93    11    12    1
    94    11    10    1
    95    12    13    2
