@<TRIPOS>MOLECULE
tmp/4clzA03.pdb
 151 142 0 0 0
SMALL
GASTEIGER

@<TRIPOS>ATOM
      1  N          5.6920  -52.3560  -14.4810 N.3     8  PHE8       -0.1241
      2  CA         5.3300  -51.2060  -13.6840 C.3     8  PHE8        0.1605
      3  C          5.8990  -51.4180  -12.2740 C.2     8  PHE8        0.2264
      4  O          5.6970  -52.4820  -11.6690 O.2     8  PHE8       -0.2867
      5  CB         3.8160  -50.9870  -13.6420 C.3     8  PHE8        0.0534
      6  CG         3.4140  -50.0190  -12.5910 C.ar    8  PHE8       -0.0203
      7  CD1        3.7660  -48.6590  -12.6960 C.ar    8  PHE8       -0.0042
      8  CD2        2.7690  -50.4670  -11.4330 C.ar    8  PHE8       -0.0042
      9  CE1        3.4310  -47.7640  -11.6700 C.ar    8  PHE8       -0.0003
     10  CE2        2.4230  -49.5610  -10.4240 C.ar    8  PHE8       -0.0003
     11  CZ         2.7660  -48.2240  -10.5380 C.ar    8  PHE8       -0.0000
     12  N          5.9320  -50.1220   -8.4310 N.3    10  ASP10      -0.1239
     13  CA         5.1800  -49.5030   -7.4150 C.3    10  ASP10       0.1674
     14  C          6.0960  -49.0150   -6.2710 C.2    10  ASP10       0.2266
     15  O          5.8280  -49.3730   -5.0910 O.2    10  ASP10      -0.2867
     16  CB         4.2670  -50.6320   -6.9410 C.3    10  ASP10       0.1410
     17  CG         3.2000  -50.1490   -6.1350 C.2    10  ASP10       0.3668
     18  OD1        2.8500  -48.9620   -6.3360 O.co2  10  ASP10      -0.2456
     19  OD2        2.7370  -50.9340   -5.3110 O.co2  10  ASP10      -0.2456
     20  N          6.1290  -43.5870   -5.7450 N.3    14  VAL14      -0.1231
     21  CA         4.9210  -43.6440   -6.5420 C.3    14  VAL14       0.1692
     22  C          3.6590  -43.8290   -5.6930 C.2    14  VAL14       0.2591
     23  O          2.6260  -43.2170   -5.9310 O.2    14  VAL14      -0.2718
     24  CB         5.0110  -44.8010   -7.5550 C.3    14  VAL14       0.0266
     25  CG1        3.7230  -45.0250   -8.3130 C.3    14  VAL14       0.0020
     26  CG2        6.1660  -44.5810   -8.5650 C.3    14  VAL14       0.0020
     27  N          3.7550  -44.7150   -4.7000 N.am   15  ARG15      -0.1980
     28  CA         2.6500  -44.8930   -3.7400 C.3    15  ARG15       0.1597
     29  C          2.3010  -43.5850   -3.0240 C.2    15  ARG15       0.2287
     30  O          1.1250  -43.2800   -2.8990 O.2    15  ARG15      -0.2864
     31  CB         2.9750  -45.9810   -2.7670 C.3    15  ARG15       0.0334
     32  CG         3.1910  -47.3650   -3.3840 C.3    15  ARG15       0.0492
     33  CD         3.5560  -48.4010   -2.2830 C.3    15  ARG15       0.2205
     34  NE         3.4990  -49.7370   -2.7890 N.pl3  15  ARG15      -0.0865
     35  CZ         3.4130  -50.8310   -2.0310 C.cat  15  ARG15       0.5346
     36  NH1        3.4030  -50.7050   -0.7400 N.pl3  15  ARG15       0.1354
     37  NH2        3.2930  -52.0490   -2.5920 N.pl3  15  ARG15       0.1354
     38  N          0.4070  -41.1410   -5.4540 N.3    18  ALA18      -0.1231
     39  CA        -1.0370  -41.3920   -5.6370 C.3    18  ALA18       0.1694
     40  C         -1.9140  -40.5620   -4.7120 C.2    18  ALA18       0.2592
     41  O         -3.0200  -40.1900   -5.0590 O.2    18  ALA18      -0.2718
     42  CB        -1.3540  -42.8740   -5.4380 C.3    18  ALA18       0.0304
     43  N         -1.3700  -40.1490   -3.5740 N.am   19  HIS19      -0.1976
     44  CA        -2.1100  -39.2790   -2.6040 C.3    19  HIS19       0.1656
     45  C         -2.1080  -37.8160   -2.9140 C.2    19  HIS19       0.2291
     46  O         -2.7390  -37.0130   -2.1640 O.2    19  HIS19      -0.2864
     47  CB        -1.6020  -39.5000   -1.1890 C.3    19  HIS19       0.0771
     48  CG        -1.9300  -40.8490   -0.6810 C.ar   19  HIS19       0.0820
     49  ND1       -3.0020  -41.1000    0.1720 N.ar   19  HIS19      -0.2267
     50  CD2       -1.3530  -42.0340   -0.9300 C.ar   19  HIS19       0.1154
     51  CE1       -3.0670  -42.4050    0.4000 C.ar   19  HIS19       0.1986
     52  NE2       -2.0900  -42.9930   -0.2780 N.ar   19  HIS19      -0.2212
     53  N         -1.5660  -41.6210  -15.2680 N.3   240  ARG240     -0.1245
     54  CA        -0.7680  -40.5080  -14.7670 C.3   240  ARG240      0.1563
     55  C          0.6910  -40.6890  -15.0490 C.2   240  ARG240      0.2260
     56  O          1.2390  -41.7920  -14.8990 O.2   240  ARG240     -0.2867
     57  CB        -0.8560  -40.3670  -13.2290 C.3   240  ARG240      0.0307
     58  CG        -2.2310  -40.2420  -12.6760 C.3   240  ARG240      0.0489
     59  CD        -2.2310  -40.0400  -11.1830 C.3   240  ARG240      0.2205
     60  NE        -1.6710  -38.7210  -10.7860 N.pl3 240  ARG240     -0.0865
     61  CZ        -1.2930  -38.4040   -9.5630 C.cat 240  ARG240      0.5346
     62  NH1       -1.4390  -39.2860   -8.5570 N.pl3 240  ARG240      0.1354
     63  NH2       -0.8360  -37.2040   -9.3150 N.pl3 240  ARG240      0.1354
     64  N          2.7970  -39.5410  -13.0530 N.3   242  ALA242     -0.1245
     65  CA         3.3360  -39.8360  -11.7320 C.3   242  ALA242      0.1562
     66  C          3.5590  -41.3380  -11.5030 C.2   242  ALA242      0.2260
     67  O          4.3810  -41.7320  -10.6520 O.2   242  ALA242     -0.2867
     68  CB         2.3810  -39.2790  -10.6790 C.3   242  ALA242      0.0290
     69  N          1.2610  -47.8590    5.9520 N.3   265  GLN265     -0.1231
     70  CA         0.6830  -48.7620    4.9390 C.3   265  GLN265      0.1698
     71  C          1.5120  -48.8530    3.6820 C.2   265  GLN265      0.2592
     72  O          1.7730  -49.9290    3.1440 O.2   265  GLN265     -0.2718
     73  CB        -0.7800  -48.3740    4.6720 C.3   265  GLN265      0.0381
     74  CG        -1.4370  -49.3100    3.7020 C.3   265  GLN265      0.0905
     75  CD        -2.8370  -48.7950    3.2960 C.2   265  GLN265      0.2608
     76  OE1       -3.7010  -48.5620    4.1670 O.2   265  GLN265     -0.2717
     77  NE2       -3.0060  -48.4990    2.0250 N.am  265  GLN265     -0.0878
     78  N          1.8960  -47.6810    3.1870 N.am  266  ILE266     -0.1980
     79  CA         2.7620  -47.5540    2.0120 C.3   266  ILE266      0.1595
     80  C          4.0170  -48.3470    2.1710 C.2   266  ILE266      0.2287
     81  O          4.5230  -48.9870    1.1850 O.2   266  ILE266     -0.2864
     82  CB         3.0100  -46.0590    1.6730 C.3   266  ILE266      0.0276
     83  CG1        1.7120  -45.4610    1.0610 C.3   266  ILE266      0.0022
     84  CG2        4.2440  -45.9500    0.7950 C.3   266  ILE266      0.0022
     85  CD1        1.7600  -44.0000    0.7440 C.3   266  ILE266      0.0001
     86  N          4.4580  -51.0310    3.7440 N.3   268  ASN268     -0.1240
     87  CA         4.1360  -52.4280    4.0300 C.3   268  ASN268      0.1653
     88  C          4.4010  -52.8220    5.4380 C.2   268  ASN268      0.2266
     89  O          4.8040  -53.9500    5.7380 O.2   268  ASN268     -0.2867
     90  CB         4.9110  -53.3220    3.0950 C.3   268  ASN268      0.1155
     91  CG         4.5690  -53.1170    1.6540 C.2   268  ASN268      0.2627
     92  OD1        3.4270  -52.9210    1.2600 O.2   268  ASN268     -0.2716
     93  ND2        5.5710  -53.2030    0.8420 N.am  268  ASN268     -0.0877
     94  N          1.7870  -52.1270    7.7790 N.3   270  GLN270     -0.1231
     95  CA         0.4510  -52.2210    8.3360 C.3   270  GLN270      0.1698
     96  C         -0.4300  -52.8000    7.2430 C.2   270  GLN270      0.2592
     97  O         -0.2570  -52.5270    6.0590 O.2   270  GLN270     -0.2718
     98  CB        -0.0120  -50.8050    8.6970 C.3   270  GLN270      0.0381
     99  CG        -1.3470  -50.5270    9.2590 C.3   270  GLN270      0.0905
    100  CD        -1.4010  -48.9910    9.5550 C.2   270  GLN270      0.2608
    101  OE1       -0.8100  -48.5840   10.5270 O.2   270  GLN270     -0.2717
    102  NE2       -1.9260  -48.1630    8.6390 N.am  270  GLN270     -0.0878
    103  N         -1.3470  -53.6280    7.6270 N.am  271  LEU271     -0.1966
    104  CA        -2.2590  -54.2290    6.6050 C.3   271  LEU271      0.1728
    105  C         -3.1120  -53.1860    5.9210 C.2   271  LEU271      0.2616
    106  O         -3.4710  -52.1870    6.5440 O.2   271  LEU271     -0.2715
    107  CB        -3.1430  -55.2170    7.3200 C.3   271  LEU271      0.0311
    108  CG        -2.4310  -56.4530    7.8960 C.3   271  LEU271      0.0022
    109  CD1       -3.2160  -57.2230    8.9510 C.3   271  LEU271      0.0001
    110  CD2       -2.0820  -57.3750    6.7730 C.3   271  LEU271      0.0001
    111  N         -3.3730  -53.3840    4.6360 N.am  272  GLN272     -0.1977
    112  CA        -4.1200  -52.4070    3.8270 C.3   272  GLN272      0.1601
    113  C         -5.4850  -52.2070    4.2990 C.2   272  GLN272      0.2287
    114  O         -6.0640  -51.1730    4.0680 O.2   272  GLN272     -0.2864
    115  CB        -4.2530  -52.8400    2.4150 C.3   272  GLN272      0.0394
    116  CG        -3.0810  -52.6250    1.5640 C.3   272  GLN272      0.0908
    117  CD        -3.4360  -52.8900    0.1250 C.2   272  GLN272      0.2608
    118  OE1       -3.1420  -53.9570   -0.3890 O.2   272  GLN272     -0.2717
    119  NE2       -4.0740  -51.9220   -0.5300 N.am  272  GLN272     -0.0878
    120  N         -9.4500  -44.7890    2.6610 N.3   384  ILE384     -0.1245
    121  CA        -8.8160  -44.2420    1.4500 C.3   384  ILE384      0.1561
    122  C         -9.7730  -44.3340    0.2640 C.2   384  ILE384      0.2260
    123  O        -10.2430  -45.4030   -0.1520 O.2   384  ILE384     -0.2867
    124  CB        -7.5020  -44.9930    1.1610 C.3   384  ILE384      0.0252
    125  CG1       -6.4920  -44.6840    2.2410 C.3   384  ILE384      0.0019
    126  CG2       -6.9390  -44.4810   -0.1590 C.3   384  ILE384      0.0019
    127  CD1       -5.2860  -45.5790    2.2000 C.3   384  ILE384      0.0001
    128  N         -7.0250  -46.3280   -7.7280 N.3   388  THR388     -0.1203
    129  CA        -5.6720  -46.8810   -7.4960 C.3   388  THR388      0.1994
    130  C         -4.5870  -45.8260   -7.7140 C.2   388  THR388      0.2617
    131  O         -3.6730  -45.7480   -6.9450 O.2   388  THR388     -0.2717
    132  CB        -5.4120  -48.0140   -8.4820 C.3   388  THR388      0.1784
    133  OG1       -6.4250  -48.9680   -8.2320 O.3   388  THR388     -0.2211
    134  CG2       -4.0120  -48.6510   -8.3170 C.3   388  THR388      0.0376
    135  N         -4.6960  -45.0060   -8.7440 N.am  389  VAL389     -0.1979
    136  CA        -3.6130  -44.0640   -9.0540 C.3   389  VAL389      0.1595
    137  C         -3.7660  -42.6640   -8.4730 C.2   389  VAL389      0.2287
    138  O         -2.8290  -41.8930   -8.5470 O.2   389  VAL389     -0.2864
    139  CB        -3.3900  -43.9530  -10.5820 C.3   389  VAL389      0.0276
    140  CG1       -3.2000  -45.3350  -11.1920 C.3   389  VAL389      0.0022
    141  CG2       -4.4770  -43.1210  -11.2000 C.3   389  VAL389      0.0022
    142  N         -5.8960  -41.1810   -5.0170 N.3   391  HIS391     -0.1241
    143  CA        -6.7360  -41.4420   -3.8550 C.3   391  HIS391      0.1621
    144  C         -6.2820  -40.6970   -2.6170 C.2   391  HIS391      0.2264
    145  O         -5.1670  -40.2470   -2.5590 O.2   391  HIS391     -0.2867
    146  CB        -6.8700  -42.9110   -3.5480 C.3   391  HIS391      0.0745
    147  CG        -5.5860  -43.6400   -3.3920 C.ar  391  HIS391      0.0817
    148  ND1       -5.2610  -44.6780   -4.1990 N.ar  391  HIS391     -0.2268
    149  CD2       -4.4720  -43.4050   -2.6600 C.ar  391  HIS391      0.1154
    150  CE1       -4.0630  -45.1500   -3.8920 C.ar  391  HIS391      0.1986
    151  NE2       -3.5560  -44.3900   -2.9700 N.ar  391  HIS391     -0.2212
@<TRIPOS>BOND
     1    53    54    1
     2    55    56    2
     3    55    54    1
     4    54    57    1
     5     1     2    1
     6     2     5    1
     7     2     3    1
     8     5     6    1
     9    57    58    1
    10    64    65    1
    11     7     6   ar
    12     7     9   ar
    13    58    59    1
    14     6     8   ar
    15     3     4    2
    16    65    66    1
    17    65    68    1
    18     9    11   ar
    19    66    67    2
    20     8    10   ar
    21   141   139    1
    22   140   139    1
    23    59    60    1
    24    60    61    2
    25   139   136    1
    26    11    10   ar
    27    61    63    1
    28    61    62    1
    29   136   135    1
    30   136   137    1
    31   135   130   am
    32    26    24    1
    33   138   137    2
    34   132   134    1
    35   132   133    1
    36   132   129    1
    37    12    13    1
    38    25    24    1
    39   128   129    1
    40   130   129    1
    41   130   131    2
    42    24    21    1
    43    13    16    1
    44    13    14    1
    45    16    17    1
    46    21    20    1
    47    21    22    1
    48    18    17   ar
    49    14    15    2
    50    17    19   ar
    51    23    22    2
    52    22    27   am
    53    39    38    1
    54    39    42    1
    55    39    40    1
    56    41    40    2
    57   142   143    1
    58    40    43   am
    59    27    28    1
    60   148   150   ar
    61   148   147   ar
    62   150   151   ar
    63   143   146    1
    64   143   144    1
    65    28    29    1
    66    28    31    1
    67    43    44    1
    68   146   147    1
    69   147   149   ar
    70    32    31    1
    71    32    33    1
    72    29    30    2
    73   151   149   ar
    74    45    44    1
    75    45    46    2
    76    34    33    1
    77    34    35    2
    78   144   145    2
    79    44    47    1
    80    37    35    1
    81    35    36    1
    82    47    48    1
    83    50    48   ar
    84    50    52   ar
    85    48    49   ar
    86   119   117   am
    87   118   117    2
    88    52    51   ar
    89   126   124    1
    90   123   122    2
    91   117   116    1
    92    49    51   ar
    93   122   121    1
    94    85    83    1
    95    84    82    1
    96    93    91   am
    97    83    82    1
    98   124   121    1
    99   124   125    1
   100    81    80    2
   101    92    91    2
   102   121   120    1
   103   116   115    1
   104    91    90    1
   105    82    79    1
   106    79    80    1
   107    79    78    1
   108    77    75   am
   109   127   125    1
   110   115   112    1
   111    90    87    1
   112    72    71    2
   113    78    71   am
   114    75    74    1
   115    75    76    2
   116    71    70    1
   117    74    73    1
   118    86    87    1
   119   112   113    1
   120   112   111    1
   121    87    88    1
   122   114   113    2
   123   111   105   am
   124    73    70    1
   125    70    69    1
   126    88    89    2
   127   105   106    2
   128   105   104    1
   129    97    96    2
   130   104   107    1
   131   104   103    1
   132   110   108    1
   133    96   103   am
   134    96    95    1
   135   107   108    1
   136    94    95    1
   137   108   109    1
   138    95    98    1
   139   102   100   am
   140    98    99    1
   141    99   100    1
   142   100   101    2
