@<TRIPOS>MOLECULE
tmp/4clzA02.pdb
 95 94 0 0 0
SMALL
GASTEIGER

@<TRIPOS>ATOM
      1  N         -8.1980  -32.7030   -4.7010 N.3    95  LYS95      -0.1245
      2  CA        -8.6300  -33.0790   -3.3750 C.3    95  LYS95       0.1561
      3  C         -9.9290  -33.8670   -3.4280 C.2    95  LYS95       0.2260
      4  O        -10.7450  -33.6080   -4.3020 O.2    95  LYS95      -0.2867
      5  CB        -8.9380  -31.8440   -2.5070 C.3    95  LYS95       0.0271
      6  CG        -7.7570  -30.9730   -2.2340 C.3    95  LYS95       0.0035
      7  CD        -8.0360  -29.9190   -1.1540 C.3    95  LYS95       0.0206
      8  CE        -6.6960  -29.2920   -0.7800 C.3    95  LYS95       0.1093
      9  NZ        -7.0040  -28.1120   -0.0080 N.3    95  LYS95      -0.1314
     10  N          3.1110  -30.5570    5.4750 N.3   153  SER153     -0.1202
     11  CA         2.7210  -29.5610    4.4470 C.3   153  SER153      0.2020
     12  C          1.2890  -29.7290    4.1030 C.2   153  SER153      0.2619
     13  O          0.7790  -30.8650    4.0920 O.2   153  SER153     -0.2717
     14  CB         3.5410  -29.7080    3.1830 C.3   153  SER153      0.2103
     15  OG         4.9350  -29.5010    3.4650 O.3   153  SER153     -0.2182
     16  N          0.6180  -28.6230    3.7650 N.am  154  HIS154     -0.1961
     17  CA        -0.7380  -28.6640    3.3260 C.3   154  HIS154      0.1787
     18  C         -0.8360  -27.6820    2.1920 C.2   154  HIS154      0.2620
     19  O         -0.0360  -26.7500    2.1350 O.2   154  HIS154     -0.2715
     20  CB        -1.6660  -28.1880    4.4440 C.3   154  HIS154      0.0785
     21  CG        -1.6480  -29.0850    5.6210 C.ar  154  HIS154      0.0821
     22  ND1       -2.4770  -30.1550    5.7200 N.ar  154  HIS154     -0.2267
     23  CD2       -0.8510  -29.1210    6.7070 C.ar  154  HIS154      0.1154
     24  CE1       -2.2110  -30.8330    6.8100 C.ar  154  HIS154      0.1986
     25  NE2       -1.2040  -30.2310    7.4220 N.ar  154  HIS154     -0.2212
     26  N         -1.7680  -27.8840    1.2750 N.am  155  PHE155     -0.1974
     27  CA        -2.0100  -26.8320    0.2840 C.3   155  PHE155      0.1639
     28  C         -3.4940  -26.5090    0.1680 C.2   155  PHE155      0.2290
     29  O         -4.3800  -27.3430    0.4780 O.2   155  PHE155     -0.2864
     30  CB        -1.4850  -27.1870   -1.1090 C.3   155  PHE155      0.0560
     31  CG        -2.3310  -28.1630   -1.8690 C.ar  155  PHE155     -0.0200
     32  CD1       -2.2340  -29.5140   -1.6490 C.ar  155  PHE155     -0.0042
     33  CD2       -3.2620  -27.6920   -2.7560 C.ar  155  PHE155     -0.0042
     34  CE1       -3.0920  -30.3970   -2.3370 C.ar  155  PHE155     -0.0003
     35  CE2       -4.0740  -28.5380   -3.4500 C.ar  155  PHE155     -0.0003
     36  CZ        -3.9950  -29.8650   -3.2560 C.ar  155  PHE155     -0.0000
     37  N          3.1650  -34.2850    3.0460 N.3   257  TYR257     -0.1227
     38  CA         1.7670  -34.0480    2.7600 C.3   257  TYR257      0.1736
     39  C          0.8430  -35.2100    3.2060 C.2   257  TYR257      0.2595
     40  O         -0.3640  -35.0510    3.2180 O.2   257  TYR257     -0.2718
     41  CB         1.5960  -33.8070    1.2810 C.3   257  TYR257      0.0548
     42  CG         2.1310  -32.5240    0.7500 C.ar  257  TYR257     -0.0200
     43  CD1        3.4500  -32.4220    0.2790 C.ar  257  TYR257     -0.0009
     44  CD2        1.3300  -31.3820    0.6650 C.ar  257  TYR257     -0.0009
     45  CE1        3.9740  -31.2470   -0.1910 C.ar  257  TYR257      0.0417
     46  CE2        1.8690  -30.1960    0.1560 C.ar  257  TYR257      0.0417
     47  CZ         3.1960  -30.1480   -0.2680 C.ar  257  TYR257      0.1957
     48  OH         3.7800  -29.0090   -0.7730 O.3   257  TYR257     -0.2866
     49  N          1.3950  -36.3430    3.6160 N.am  258  VAL258     -0.1966
     50  CA         0.6390  -37.5550    3.8710 C.3   258  VAL258      0.1727
     51  C          0.7020  -37.9090    5.3440 C.2   258  VAL258      0.2616
     52  O          1.7540  -37.7470    5.9960 O.2   258  VAL258     -0.2715
     53  CB         1.3100  -38.6610    2.9510 C.3   258  VAL258      0.0290
     54  CG1        0.7710  -40.0050    3.2090 C.3   258  VAL258      0.0023
     55  CG2        1.0690  -38.2250    1.4960 C.3   258  VAL258      0.0023
     56  N         -0.3940  -38.4030    5.9140 N.am  259  MET259     -0.1977
     57  CA        -0.3070  -38.7300    7.3480 C.3   259  MET259      0.1605
     58  C          0.5110  -39.9890    7.6200 C.2   259  MET259      0.2287
     59  O          0.6460  -40.8940    6.7810 O.2   259  MET259     -0.2864
     60  CB        -1.6770  -38.6700    8.0570 C.3   259  MET259      0.0413
     61  CG        -2.5750  -39.8730    8.0460 C.3   259  MET259      0.0598
     62  SD        -3.8400  -39.6540    9.3610 S.3   259  MET259     -0.1393
     63  CE        -4.2600  -37.9240    9.0940 C.3   259  MET259      0.0692
     64  N         -4.9810  -33.1030   11.6510 N.3   321  ILE321     -0.1231
     65  CA        -5.6680  -32.3970   10.5980 C.3   321  ILE321      0.1692
     66  C         -5.9460  -33.4040    9.4920 C.2   321  ILE321      0.2592
     67  O         -5.0210  -33.8500    8.8780 O.2   321  ILE321     -0.2718
     68  CB        -4.7880  -31.2630   10.0530 C.3   321  ILE321      0.0266
     69  CG1       -4.4770  -30.2860   11.1480 C.3   321  ILE321      0.0019
     70  CG2       -5.4180  -30.5380    8.8710 C.3   321  ILE321      0.0020
     71  CD1       -3.6920  -29.1060   10.7770 C.3   321  ILE321      0.0001
     72  N         -7.1920  -33.7010    9.1650 N.am  322  ASN322     -0.1960
     73  CA        -7.5140  -34.5850    8.0400 C.3   322  ASN322      0.1819
     74  C         -7.5220  -33.8510    6.6870 C.2   322  ASN322      0.2621
     75  O         -7.1790  -34.4270    5.6440 O.2   322  ASN322     -0.2715
     76  CB        -8.8740  -35.1950    8.2070 C.3   322  ASN322      0.1195
     77  CG        -9.2840  -36.0980    7.0150 C.2   322  ASN322      0.2630
     78  OD1      -10.1130  -35.7520    6.2070 O.2   322  ASN322     -0.2716
     79  ND2       -8.6980  -37.2330    6.9340 N.am  322  ASN322     -0.0877
     80  N         -8.0200  -32.6300    6.6660 N.am  323  LYS323     -0.1963
     81  CA        -8.1230  -31.8750    5.4360 C.3   323  LYS323      0.1728
     82  C         -8.1910  -30.4080    5.7760 C.2   323  LYS323      0.2616
     83  O         -8.6340  -30.0410    6.8840 O.2   323  LYS323     -0.2715
     84  CB        -9.4400  -32.1310    4.7200 C.3   323  LYS323      0.0311
     85  CG        -9.8060  -33.5280    4.3280 C.3   323  LYS323      0.0038
     86  CD        -9.1790  -34.0020    3.0160 C.3   323  LYS323      0.0206
     87  CE        -9.6080  -35.4680    2.8420 C.3   323  LYS323      0.1093
     88  NZ        -8.8490  -36.0060    1.7240 N.3   323  LYS323     -0.1314
     89  N         -7.8400  -29.5800    4.7910 N.am  324  VAL324     -0.1977
     90  CA        -8.0620  -28.1290    4.8400 C.3   324  VAL324      0.1596
     91  C         -8.6950  -27.8170    3.5180 C.2   324  VAL324      0.2287
     92  O         -8.2510  -28.3040    2.5170 O.2   324  VAL324     -0.2864
     93  CB        -6.7790  -27.3310    5.0390 C.3   324  VAL324      0.0276
     94  CG1       -7.0720  -25.8940    5.4470 C.3   324  VAL324      0.0022
     95  CG2       -5.9330  -27.9380    6.1330 C.3   324  VAL324      0.0022
@<TRIPOS>BOND
     1     1     2    1
     2     4     3    2
     3    35    36   ar
     4    35    33   ar
     5     3     2    1
     6     2     5    1
     7    36    34   ar
     8    33    31   ar
     9     5     6    1
    10    34    32   ar
    11     6     7    1
    12    31    32   ar
    13    31    30    1
    14     7     8    1
    15    30    27    1
    16     8     9    1
    17    48    47    1
    18    47    45   ar
    19    47    46   ar
    20    45    43   ar
    21    46    44   ar
    22    28    27    1
    23    28    29    2
    24    43    42   ar
    25    27    26    1
    26    44    42   ar
    27    42    41    1
    28    26    18   am
    29    41    38    1
    30    55    53    1
    31    88    87    1
    32    19    18    2
    33    18    17    1
    34    92    91    2
    35    38    37    1
    36    38    39    1
    37    87    86    1
    38    53    54    1
    39    53    50    1
    40    86    85    1
    41    14    15    1
    42    14    11    1
    43    39    40    2
    44    39    49   am
    45    17    16    1
    46    17    20    1
    47    91    90    1
    48    49    50    1
    49    16    12   am
    50    50    51    1
    51    13    12    2
    52    12    11    1
    53    85    84    1
    54    20    21    1
    55    11    10    1
    56    84    81    1
    57    89    90    1
    58    89    82   am
    59    90    93    1
    60    93    94    1
    61    93    95    1
    62    51    56   am
    63    51    52    2
    64    81    82    1
    65    81    80    1
    66    21    22   ar
    67    21    23   ar
    68    75    74    2
    69    22    24   ar
    70    82    83    2
    71    56    57    1
    72    78    77    2
    73    80    74   am
    74    74    73    1
    75    23    25   ar
    76    59    58    2
    77    24    25   ar
    78    79    77   am
    79    77    76    1
    80    57    58    1
    81    57    60    1
    82    73    76    1
    83    73    72    1
    84    61    60    1
    85    61    62    1
    86    70    68    1
    87    67    66    2
    88    63    62    1
    89    72    66   am
    90    66    65    1
    91    68    65    1
    92    68    69    1
    93    65    64    1
    94    71    69    1
