@<TRIPOS>MOLECULE
tmp/4clzA05.pdb
 104 101 0 0 0
SMALL
GASTEIGER

@<TRIPOS>ATOM
      1  N        -21.1880  -36.5410   -5.4550 N.3    48  ILE48      -0.1245
      2  CA       -22.1790  -37.6360   -5.5770 C.3    48  ILE48       0.1561
      3  C        -23.0570  -37.3220   -4.3960 C.2    48  ILE48       0.2260
      4  O        -22.7610  -37.7690   -3.2690 O.2    48  ILE48      -0.2867
      5  CB       -21.5370  -39.0470   -5.3580 C.3    48  ILE48       0.0252
      6  CG1      -20.5070  -39.3700   -6.4350 C.3    48  ILE48       0.0019
      7  CG2      -22.5990  -40.1630   -5.3030 C.3    48  ILE48       0.0019
      8  CD1      -20.0400  -40.8170   -6.3260 C.3    48  ILE48       0.0001
      9  N        -24.9310  -39.2960   -0.8410 N.3    51  PHE51      -0.1241
     10  CA       -24.1880  -40.4380   -0.2980 C.3    51  PHE51       0.1605
     11  C        -23.9380  -40.3720    1.2140 C.2    51  PHE51       0.2264
     12  O        -24.3280  -41.2720    1.9190 O.2    51  PHE51      -0.2867
     13  CB       -22.8380  -40.5350   -0.9830 C.3    51  PHE51       0.0534
     14  CG       -22.0640  -41.6980   -0.5350 C.ar   51  PHE51      -0.0203
     15  CD1      -22.3290  -42.9360   -1.0720 C.ar   51  PHE51      -0.0042
     16  CD2      -21.0510  -41.5580    0.3940 C.ar   51  PHE51      -0.0042
     17  CE1      -21.5740  -44.0490   -0.6890 C.ar   51  PHE51      -0.0003
     18  CE2      -20.3070  -42.6560    0.8000 C.ar   51  PHE51      -0.0003
     19  CZ       -20.5860  -43.9050    0.2550 C.ar   51  PHE51      -0.0000
     20  N        -26.6340  -41.1700    3.4290 N.3    54  MET54      -0.1245
     21  CA       -27.1710  -42.5220    3.5500 C.3    54  MET54       0.1570
     22  C        -26.2620  -43.4710    4.3310 C.2    54  MET54       0.2261
     23  O        -26.7380  -44.4480    4.8830 O.2    54  MET54      -0.2867
     24  CB       -27.6100  -43.1190    2.1790 C.3    54  MET54       0.0387
     25  CG       -26.5070  -43.2540    1.1280 C.3    54  MET54       0.0595
     26  SD       -25.2270  -44.4800    1.5610 S.3    54  MET54      -0.1393
     27  CE       -26.3250  -45.9030    1.8140 C.3    54  MET54       0.0692
     28  N        -26.8000  -46.0160    7.1030 N.3    57  LYS57      -0.1231
     29  CA       -27.2220  -47.3550    6.7510 C.3    57  LYS57       0.1693
     30  C        -26.1270  -48.4500    6.7890 C.2    57  LYS57       0.2592
     31  O        -26.4430  -49.6100    7.0310 O.2    57  LYS57      -0.2718
     32  CB       -27.8550  -47.3520    5.3470 C.3    57  LYS57       0.0285
     33  CG       -29.2790  -46.7850    5.3090 C.3    57  LYS57       0.0035
     34  CD       -29.8430  -46.8490    3.8790 C.3    57  LYS57       0.0206
     35  CE       -30.5890  -45.5760    3.4810 C.3    57  LYS57       0.1093
     36  NZ       -31.6860  -45.3120    4.4460 N.3    57  LYS57      -0.1314
     37  N        -24.8580  -48.1050    6.5640 N.am   58  PHE58      -0.1976
     38  CA       -23.8100  -49.1460    6.5280 C.3    58  PHE58       0.1639
     39  C        -23.4790  -49.5680    7.9410 C.2    58  PHE58       0.2290
     40  O        -22.7970  -50.5850    8.1380 O.2    58  PHE58      -0.2864
     41  CB       -22.5850  -48.6130    5.8000 C.3    58  PHE58       0.0560
     42  CG       -22.7470  -48.5630    4.3190 C.ar   58  PHE58      -0.0200
     43  CD1      -22.7330  -49.7140    3.5830 C.ar   58  PHE58      -0.0042
     44  CD2      -22.9150  -47.3550    3.6580 C.ar   58  PHE58      -0.0042
     45  CE1      -22.8520  -49.6850    2.2260 C.ar   58  PHE58      -0.0003
     46  CE2      -23.0490  -47.3140    2.2720 C.ar   58  PHE58      -0.0003
     47  CZ       -23.0230  -48.4950    1.5570 C.ar   58  PHE58      -0.0000
     48  N        -27.7690  -55.1930    8.9260 N.3    62  MET62      -0.1230
     49  CA       -27.7930  -55.9930    7.7130 C.3    62  MET62       0.1702
     50  C        -26.3990  -56.1540    7.0980 C.2    62  MET62       0.2592
     51  O        -26.1750  -57.1140    6.3390 O.2    62  MET62      -0.2718
     52  CB       -28.7730  -55.4620    6.6680 C.3    62  MET62       0.0401
     53  CG       -28.4730  -54.1230    6.0790 C.3    62  MET62       0.0596
     54  SD       -29.6710  -53.8330    4.7090 S.3    62  MET62      -0.1393
     55  CE       -31.1850  -53.5840    5.6070 C.3    62  MET62       0.0692
     56  N        -25.5110  -55.2020    7.3390 N.am   63  TYR63      -0.1976
     57  CA       -24.1420  -55.2890    6.7810 C.3    63  TYR63       0.1639
     58  C        -23.1580  -56.2270    7.5660 C.2    63  TYR63       0.2290
     59  O        -21.9730  -56.3900    7.1950 O.2    63  TYR63      -0.2864
     60  CB       -23.5610  -53.9180    6.5970 C.3    63  TYR63       0.0560
     61  CG       -24.1520  -53.2530    5.3510 C.ar   63  TYR63      -0.0198
     62  CD1      -23.6620  -53.5590    4.0950 C.ar   63  TYR63      -0.0009
     63  CD2      -25.2620  -52.3620    5.4460 C.ar   63  TYR63      -0.0009
     64  CE1      -24.1730  -52.9980    2.9470 C.ar   63  TYR63       0.0417
     65  CE2      -25.7960  -51.7730    4.2770 C.ar   63  TYR63       0.0417
     66  CZ       -25.2670  -52.1140    3.0410 C.ar   63  TYR63       0.1957
     67  OH       -25.7470  -51.5620    1.8600 O.3    63  TYR63      -0.2866
     68  N        -18.1120  -49.8000   -2.5890 N.3    74  ILE74      -0.1231
     69  CA       -19.1540  -49.2440   -3.4920 C.3    74  ILE74       0.1692
     70  C        -18.8020  -47.7910   -3.8270 C.2    74  ILE74       0.2591
     71  O        -18.9440  -47.4200   -4.9630 O.2    74  ILE74      -0.2718
     72  CB       -20.5930  -49.4470   -3.0500 C.3    74  ILE74       0.0266
     73  CG1      -21.6150  -49.2470   -4.1960 C.3    74  ILE74       0.0019
     74  CG2      -20.9710  -48.6450   -1.8510 C.3    74  ILE74       0.0020
     75  CD1      -21.4170  -50.0720   -5.4730 C.3    74  ILE74       0.0001
     76  N        -18.3100  -47.0520   -2.8330 N.am   75  LEU75      -0.1980
     77  CA       -17.9130  -45.6430   -3.0890 C.3    75  LEU75       0.1596
     78  C        -16.7880  -45.5930   -4.0940 C.2    75  LEU75       0.2287
     79  O        -16.8400  -44.8710   -5.1160 O.2    75  LEU75      -0.2864
     80  CB       -17.5530  -45.0050   -1.8210 C.3    75  LEU75       0.0297
     81  CG       -17.1330  -43.5630   -2.0560 C.3    75  LEU75       0.0022
     82  CD1      -18.2030  -42.6840   -2.7280 C.3    75  LEU75       0.0001
     83  CD2      -16.6740  -42.9650   -0.7440 C.3    75  LEU75       0.0001
     84  N        -17.6420  -46.2600   -7.8460 N.3    78  HIS78      -0.1241
     85  CA       -18.2040  -45.0870   -8.5450 C.3    78  HIS78       0.1621
     86  C        -17.2060  -43.9240   -8.6690 C.2    78  HIS78       0.2264
     87  O        -17.0750  -43.3920   -9.7580 O.2    78  HIS78      -0.2867
     88  CB       -19.4570  -44.6590   -7.8980 C.3    78  HIS78       0.0745
     89  CG       -20.5500  -45.6310   -8.0210 C.ar   78  HIS78       0.0817
     90  ND1      -21.0340  -46.0800   -9.2310 N.ar   78  HIS78      -0.2268
     91  CD2      -21.1990  -46.3460   -7.0820 C.ar   78  HIS78       0.1154
     92  CE1      -21.9940  -46.9590   -9.0200 C.ar   78  HIS78       0.1986
     93  NE2      -22.0950  -47.1490   -7.7340 N.ar   78  HIS78      -0.2212
     94  N        -23.6600  -42.2510  -15.0810 N.3   130  PHE130     -0.1241
     95  CA       -24.6700  -42.5380  -14.0750 C.3   130  PHE130      0.1605
     96  C        -26.1190  -42.5530  -14.5760 C.2   130  PHE130      0.2264
     97  O        -27.0160  -42.3690  -13.7850 O.2   130  PHE130     -0.2867
     98  CB       -24.5370  -41.5760  -12.9330 C.3   130  PHE130      0.0534
     99  CG       -23.1790  -41.6600  -12.2890 C.ar  130  PHE130     -0.0203
    100  CD1      -22.9200  -42.6200  -11.3280 C.ar  130  PHE130     -0.0042
    101  CD2      -22.1540  -40.8300  -12.7050 C.ar  130  PHE130     -0.0042
    102  CE1      -21.6490  -42.7310  -10.7640 C.ar  130  PHE130     -0.0003
    103  CE2      -20.8800  -40.9370  -12.1680 C.ar  130  PHE130     -0.0003
    104  CZ       -20.6250  -41.8970  -11.1870 C.ar  130  PHE130     -0.0000
@<TRIPOS>BOND
     1    94    95    1
     2    96    95    1
     3    96    97    2
     4    95    98    1
     5    98    99    1
     6   101    99   ar
     7   101   103   ar
     8    99   100   ar
     9   103   104   ar
    10   100   102   ar
    11   104   102   ar
    12    87    86    2
    13    90    92   ar
    14    90    89   ar
    15    92    93   ar
    16    86    85    1
    17    85    88    1
    18    85    84    1
    19    89    88    1
    20    89    91   ar
    21    93    91   ar
    22     6     8    1
    23     6     5    1
    24     2     1    1
    25     2     5    1
    26     2     3    1
    27    75    73    1
    28     5     7    1
    29    79    78    2
    30    71    70    2
    31     3     4    2
    32    73    72    1
    33    78    77    1
    34    70    69    1
    35    70    76   am
    36    69    72    1
    37    69    68    1
    38    77    76    1
    39    77    80    1
    40    72    74    1
    41    82    81    1
    42    81    80    1
    43    81    83    1
    44    15    17   ar
    45    15    14   ar
    46    13    14    1
    47    13    10    1
    48     9    10    1
    49    17    19   ar
    50    14    16   ar
    51    10    11    1
    52    19    18   ar
    53    16    18   ar
    54    25    26    1
    55    25    24    1
    56    11    12    2
    57    47    45   ar
    58    47    46   ar
    59    26    27    1
    60    67    66    1
    61    24    21    1
    62    45    43   ar
    63    46    44   ar
    64    64    66   ar
    65    64    62   ar
    66    66    65   ar
    67    20    21    1
    68    35    34    1
    69    35    36    1
    70    21    22    1
    71    43    42   ar
    72    44    42   ar
    73    34    33    1
    74    62    61   ar
    75    65    63   ar
    76    42    41    1
    77    22    23    2
    78    54    55    1
    79    54    53    1
    80    33    32    1
    81    32    29    1
    82    61    63   ar
    83    61    60    1
    84    41    38    1
    85    53    52    1
    86    51    50    2
    87    38    37    1
    88    38    39    1
    89    37    30   am
    90    60    57    1
    91    52    49    1
    92    29    30    1
    93    29    28    1
    94    57    56    1
    95    57    58    1
    96    30    31    2
    97    50    56   am
    98    50    49    1
    99    59    58    2
   100    49    48    1
   101    39    40    2
