@<TRIPOS>MOLECULE
tmp/4clzA04.pdb
 185 179 0 0 0
SMALL
GASTEIGER

@<TRIPOS>ATOM
      1  N        -15.9820  -29.0910   -9.7570 N.3    45  PHE45      -0.1241
      2  CA       -16.3310  -29.6200   -8.4360 C.3    45  PHE45       0.1605
      3  C        -17.4620  -30.5990   -8.6750 C.2    45  PHE45       0.2264
      4  O        -18.5060  -30.1950   -9.2150 O.2    45  PHE45      -0.2867
      5  CB       -16.7660  -28.5260   -7.5050 C.3    45  PHE45       0.0534
      6  CG       -17.0390  -29.0290   -6.1400 C.ar   45  PHE45      -0.0203
      7  CD1      -15.9980  -29.3210   -5.2820 C.ar   45  PHE45      -0.0042
      8  CD2      -18.3330  -29.3240   -5.7420 C.ar   45  PHE45      -0.0042
      9  CE1      -16.2380  -29.8120   -3.9990 C.ar   45  PHE45      -0.0003
     10  CE2      -18.5960  -29.8140   -4.4480 C.ar   45  PHE45      -0.0003
     11  CZ       -17.5510  -30.0590   -3.5780 C.ar   45  PHE45      -0.0000
     12  N        -19.9110  -33.7160   -7.0830 N.3    47  ASP47      -0.1239
     13  CA       -20.4190  -34.2550   -5.7990 C.3    47  ASP47       0.1674
     14  C        -21.3670  -35.3580   -6.0770 C.2    47  ASP47       0.2266
     15  O        -22.2320  -35.1570   -6.9110 O.2    47  ASP47      -0.2867
     16  CB       -21.1290  -33.1400   -5.0870 C.3    47  ASP47       0.1410
     17  CG       -21.5380  -33.5490   -3.7030 C.2    47  ASP47       0.3668
     18  OD1      -20.7870  -34.3100   -3.0500 O.co2  47  ASP47      -0.2456
     19  OD2      -22.6210  -33.1580   -3.3120 O.co2  47  ASP47      -0.2456
     20  N         -8.1980  -32.7030   -4.7010 N.3    95  LYS95      -0.1245
     21  CA        -8.6300  -33.0790   -3.3750 C.3    95  LYS95       0.1561
     22  C         -9.9290  -33.8670   -3.4280 C.2    95  LYS95       0.2260
     23  O        -10.7450  -33.6080   -4.3020 O.2    95  LYS95      -0.2867
     24  CB        -8.9380  -31.8440   -2.5070 C.3    95  LYS95       0.0271
     25  CG        -7.7570  -30.9730   -2.2340 C.3    95  LYS95       0.0035
     26  CD        -8.0360  -29.9190   -1.1540 C.3    95  LYS95       0.0206
     27  CE        -6.6960  -29.2920   -0.7800 C.3    95  LYS95       0.1093
     28  NZ        -7.0040  -28.1120   -0.0080 N.3    95  LYS95      -0.1314
     29  N        -13.1120  -34.9800   -0.7750 N.3    97  ALA97      -0.1231
     30  CA       -13.7520  -34.6680    0.5120 C.3    97  ALA97       0.1694
     31  C        -15.0340  -35.3640    0.4770 C.2    97  ALA97       0.2593
     32  O        -15.8270  -35.1160   -0.4420 O.2    97  ALA97      -0.2718
     33  CB       -14.0620  -33.1960    0.6120 C.3    97  ALA97       0.0304
     34  N        -15.3220  -36.1230    1.5090 N.am   98  GLY98      -0.1942
     35  CA       -16.5720  -36.8790    1.5250 C.3    98  GLY98       0.2014
     36  C        -16.7530  -37.7310    0.2590 C.2    98  GLY98       0.2639
     37  O        -15.9020  -38.5760   -0.1260 O.2    98  GLY98      -0.2714
     38  N        -17.8610  -37.4490   -0.4070 N.am   99  ASP99      -0.1957
     39  CA       -18.2640  -38.0830   -1.6380 C.3    99  ASP99       0.1840
     40  C        -18.1310  -37.0860   -2.8400 C.2    99  ASP99       0.2622
     41  O        -18.8110  -37.2400   -3.8510 O.2    99  ASP99      -0.2715
     42  CB       -19.7360  -38.5580   -1.4310 C.3    99  ASP99       0.1450
     43  CG       -20.6410  -37.4640   -0.8460 C.2    99  ASP99       0.3671
     44  OD1      -20.5120  -36.2950   -1.2780 O.co2  99  ASP99      -0.2456
     45  OD2      -21.4880  -37.7580    0.0500 O.co2  99  ASP99      -0.2456
     46  N        -17.2530  -36.0880   -2.6800 N.am  100  ALA100     -0.1963
     47  CA       -17.0210  -34.9850   -3.6240 C.3   100  ALA100      0.1728
     48  C        -15.5420  -34.9250   -3.9820 C.2   100  ALA100      0.2616
     49  O        -14.6660  -35.3580   -3.1940 O.2   100  ALA100     -0.2715
     50  CB       -17.4070  -33.6490   -3.0130 C.3   100  ALA100      0.0334
     51  N        -15.2640  -34.2780   -5.1070 N.am  101  LEU101     -0.1963
     52  CA       -13.8930  -34.0070   -5.4960 C.3   101  LEU101      0.1728
     53  C        -13.7660  -32.7390   -6.3000 C.2   101  LEU101      0.2616
     54  O        -14.7340  -32.2670   -6.9810 O.2   101  LEU101     -0.2715
     55  CB       -13.2580  -35.2110   -6.2000 C.3   101  LEU101      0.0311
     56  CG       -13.7480  -35.6600   -7.5590 C.3   101  LEU101      0.0022
     57  CD1      -13.1610  -34.8210   -8.7230 C.3   101  LEU101      0.0001
     58  CD2      -13.4220  -37.1170   -7.8730 C.3   101  LEU101      0.0001
     59  N        -12.5570  -32.1990   -6.2350 N.am  102  LEU102     -0.1977
     60  CA       -12.2010  -30.9530   -6.9160 C.3   102  LEU102      0.1596
     61  C        -11.0950  -31.2500   -7.9200 C.2   102  LEU102      0.2287
     62  O        -10.0650  -31.8240   -7.5020 O.2   102  LEU102     -0.2864
     63  CB       -11.6950  -29.9470   -5.8870 C.3   102  LEU102      0.0297
     64  CG       -11.3070  -28.5970   -6.5280 C.3   102  LEU102      0.0022
     65  CD1      -12.5160  -27.9270   -7.1490 C.3   102  LEU102      0.0001
     66  CD2      -10.6780  -27.6970   -5.4830 C.3   102  LEU102      0.0001
     67  N        -17.6810  -23.4100   -6.0430 N.3   166  ARG166     -0.1245
     68  CA       -18.5770  -23.7780   -4.9590 C.3   166  ARG166      0.1563
     69  C        -20.0170  -23.2710   -5.1850 C.2   166  ARG166      0.2260
     70  O        -20.9910  -24.0040   -5.0420 O.2   166  ARG166     -0.2867
     71  CB       -18.0760  -23.1640   -3.6500 C.3   166  ARG166      0.0307
     72  CG       -18.9650  -23.5150   -2.4610 C.3   166  ARG166      0.0489
     73  CD       -19.3310  -25.0040   -2.3810 C.3   166  ARG166      0.2205
     74  NE       -18.2150  -25.9550   -2.4030 N.pl3 166  ARG166     -0.0865
     75  CZ       -17.0150  -25.8050   -1.8290 C.cat 166  ARG166      0.5346
     76  NH1      -16.6680  -24.7220   -1.1290 N.pl3 166  ARG166      0.1354
     77  NH2      -16.1300  -26.7830   -1.9670 N.pl3 166  ARG166      0.1354
     78  N        -21.6880  -25.3020   -7.9910 N.3   169  GLN169     -0.1231
     79  CA       -22.1310  -26.6350   -7.6550 C.3   169  GLN169      0.1698
     80  C        -23.3040  -26.6220   -6.6310 C.2   169  GLN169      0.2592
     81  O        -24.1540  -27.4540   -6.7410 O.2   169  GLN169     -0.2718
     82  CB       -20.9830  -27.5160   -7.1720 C.3   169  GLN169      0.0381
     83  CG       -21.4090  -28.9730   -6.9330 C.3   169  GLN169      0.0905
     84  CD       -21.7980  -29.2260   -5.4680 C.2   169  GLN169      0.2608
     85  OE1      -21.4990  -28.4140   -4.5700 O.2   169  GLN169     -0.2717
     86  NE2      -22.4680  -30.3500   -5.2320 N.am  169  GLN169     -0.0878
     87  N        -23.3350  -25.7040   -5.6670 N.am  170  ASN170     -0.1974
     88  CA       -24.5150  -25.5790   -4.7700 C.3   170  ASN170      0.1688
     89  C        -25.8370  -25.4010   -5.5760 C.2   170  ASN170      0.2292
     90  O        -26.8620  -25.9980   -5.2240 O.2   170  ASN170     -0.2864
     91  CB       -24.3300  -24.4410   -3.7350 C.3   170  ASN170      0.1181
     92  CG       -23.2350  -24.7500   -2.6930 C.2   170  ASN170      0.2629
     93  OD1      -22.9970  -25.9250   -2.3510 O.2   170  ASN170     -0.2716
     94  ND2      -22.5360  -23.6980   -2.2120 N.am  170  ASN170     -0.0877
     95  N         -9.7640  -27.0420    3.5240 N.3   325  PHE325     -0.1227
     96  CA       -10.5090  -26.7100    2.3620 C.3   325  PHE325      0.1736
     97  C        -10.7790  -25.2290    2.4470 C.2   325  PHE325      0.2595
     98  O        -10.9260  -24.7020    3.5760 O.2   325  PHE325     -0.2718
     99  CB       -11.9210  -27.3310    2.4550 C.3   325  PHE325      0.0547
    100  CG       -11.9560  -28.7930    2.5840 C.ar  325  PHE325     -0.0202
    101  CD1      -11.6630  -29.6050    1.4710 C.ar  325  PHE325     -0.0042
    102  CD2      -12.3380  -29.3810    3.7740 C.ar  325  PHE325     -0.0042
    103  CE1      -11.7330  -30.9870    1.5600 C.ar  325  PHE325     -0.0003
    104  CE2      -12.3880  -30.7590    3.8790 C.ar  325  PHE325     -0.0003
    105  CZ       -12.0940  -31.5680    2.7820 C.ar  325  PHE325     -0.0000
    106  N        -10.9500  -24.5560    1.3180 N.am  326  MET326     -0.1965
    107  CA       -11.7110  -23.2810    1.3050 C.3   326  MET326      0.1736
    108  C        -13.2010  -23.5920    1.3450 C.2   326  MET326      0.2616
    109  O        -13.6700  -24.5350    0.7160 O.2   326  MET326     -0.2715
    110  CB       -11.4900  -22.3960    0.0460 C.3   326  MET326      0.0427
    111  CG       -10.0770  -21.8860    0.0090 C.3   326  MET326      0.0599
    112  SD        -9.4830  -21.1760    1.5770 S.3   326  MET326     -0.1393
    113  CE       -10.2050  -19.5450    1.5820 C.3   326  MET326      0.0692
    114  N        -13.9260  -22.7870    2.1140 N.am  327  PHE327     -0.1960
    115  CA       -15.3620  -22.7110    2.0790 C.3   327  PHE327      0.1771
    116  C        -15.7440  -21.3970    1.3710 C.2   327  PHE327      0.2620
    117  O        -14.8710  -20.5290    1.1040 O.2   327  PHE327     -0.2715
    118  CB       -15.8930  -22.7410    3.5260 C.3   327  PHE327      0.0574
    119  CG       -16.0530  -24.1260    4.0820 C.ar  327  PHE327     -0.0200
    120  CD1      -15.1180  -25.1300    3.8140 C.ar  327  PHE327     -0.0042
    121  CD2      -17.1490  -24.4300    4.8590 C.ar  327  PHE327     -0.0042
    122  CE1      -15.2670  -26.4080    4.3260 C.ar  327  PHE327     -0.0003
    123  CE2      -17.3210  -25.7110    5.3540 C.ar  327  PHE327     -0.0003
    124  CZ       -16.3780  -26.6960    5.0980 C.ar  327  PHE327     -0.0000
    125  N        -17.0360  -21.2430    1.0470 N.am  328  ASP328     -0.1957
    126  CA       -17.5410  -19.9570    0.5070 C.3   328  ASP328      0.1840
    127  C        -17.0810  -18.8420    1.4500 C.2   328  ASP328      0.2621
    128  O        -16.5900  -17.7950    1.0210 O.2   328  ASP328     -0.2715
    129  CB       -19.0830  -19.9250    0.3710 C.3   328  ASP328      0.1450
    130  CG       -19.5890  -20.5190   -0.9550 C.2   328  ASP328      0.3671
    131  OD1      -18.8060  -20.5680   -1.9470 O.co2 328  ASP328     -0.2456
    132  OD2      -20.7870  -20.9160   -1.0040 O.co2 328  ASP328     -0.2456
    133  N        -17.2260  -19.0790    2.7460 N.am  329  LYS329     -0.1977
    134  CA       -16.6810  -18.1610    3.7020 C.3   329  LYS329      0.1596
    135  C        -15.5900  -18.8190    4.4900 C.2   329  LYS329      0.2287
    136  O        -15.8780  -19.6260    5.3690 O.2   329  LYS329     -0.2864
    137  CB       -17.7800  -17.6730    4.6400 C.3   329  LYS329      0.0298
    138  CG       -18.6990  -16.6390    4.0340 C.3   329  LYS329      0.0038
    139  CD       -19.7930  -16.2730    5.0210 C.3   329  LYS329      0.0206
    140  CE       -20.6870  -15.1770    4.4780 C.3   329  LYS329      0.1093
    141  NZ       -21.8380  -14.9520    5.4030 N.3   329  LYS329     -0.1314
    142  N        -20.4810  -33.6360    8.6200 N.3   401  ASN401     -0.1240
    143  CA       -21.2430  -32.5460    8.0450 C.3   401  ASN401      0.1653
    144  C        -21.9610  -31.6890    9.1280 C.2   401  ASN401      0.2266
    145  O        -22.0790  -30.5070    8.9350 O.2   401  ASN401     -0.2867
    146  CB       -22.2990  -33.0290    7.0810 C.3   401  ASN401      0.1155
    147  CG       -21.7550  -33.9650    6.0370 C.2   401  ASN401      0.2627
    148  OD1      -20.6050  -33.9130    5.6570 O.2   401  ASN401     -0.2716
    149  ND2      -22.6030  -34.8100    5.5810 N.am  401  ASN401     -0.0877
    150  N        -19.3880  -29.2040   10.3490 N.3   404  ALA404     -0.1231
    151  CA       -19.2380  -28.2140    9.3070 C.3   404  ALA404      0.1694
    152  C        -20.3440  -27.2290    9.2990 C.2   404  ALA404      0.2591
    153  O        -20.0700  -26.0350    9.1320 O.2   404  ALA404     -0.2718
    154  CB       -19.0780  -28.8490    7.8980 C.3   404  ALA404      0.0304
    155  N        -21.5890  -27.6980    9.4570 N.am  405  ARG405     -0.1980
    156  CA       -22.7200  -26.7830    9.3700 C.3   405  ARG405      0.1597
    157  C        -22.7710  -25.9320   10.6660 C.2   405  ARG405      0.2287
    158  O        -23.1860  -24.7760   10.6250 O.2   405  ARG405     -0.2864
    159  CB       -24.0580  -27.4900    9.2880 C.3   405  ARG405      0.0334
    160  CG       -24.3030  -28.4240    8.1230 C.3   405  ARG405      0.0492
    161  CD       -24.4230  -27.7530    6.7840 C.3   405  ARG405      0.2205
    162  NE       -24.1550  -28.7500    5.7400 N.pl3 405  ARG405     -0.0865
    163  CZ       -23.9400  -28.4850    4.4550 C.cat 405  ARG405      0.5346
    164  NH1      -24.0100  -27.2380    3.9780 N.pl3 405  ARG405      0.1354
    165  NH2      -23.6830  -29.4910    3.6340 N.pl3 405  ARG405      0.1354
    166  N        -20.5770  -22.8490   10.5220 N.3   408  MET408     -0.1230
    167  CA       -21.1050  -21.8610    9.6050 C.3   408  MET408      0.1702
    168  C        -22.3960  -21.2570   10.1210 C.2   408  MET408      0.2592
    169  O        -22.5550  -20.0670   10.0120 O.2   408  MET408     -0.2718
    170  CB       -21.3040  -22.4560    8.2090 C.3   408  MET408      0.0401
    171  CG       -20.0560  -23.0110    7.5480 C.3   408  MET408      0.0596
    172  SD       -18.4870  -22.0820    7.7260 S.3   408  MET408     -0.1393
    173  CE       -18.9690  -20.4920    7.0820 C.3   408  MET408      0.0692
    174  N        -23.3070  -22.0180   10.7310 N.am  409  TYR409     -0.1976
    175  CA       -24.5220  -21.4200   11.2390 C.3   409  TYR409      0.1639
    176  C        -24.3770  -20.7620   12.6160 C.2   409  TYR409      0.2290
    177  O        -25.2410  -20.0070   12.9700 O.2   409  TYR409     -0.2864
    178  CB       -25.6810  -22.3770   11.3090 C.3   409  TYR409      0.0560
    179  CG       -26.3110  -22.7540    9.9880 C.ar  409  TYR409     -0.0198
    180  CD1      -25.7100  -23.7030    9.1600 C.ar  409  TYR409     -0.0009
    181  CD2      -27.5200  -22.1690    9.5640 C.ar  409  TYR409     -0.0009
    182  CE1      -26.2960  -24.0790    7.9520 C.ar  409  TYR409      0.0417
    183  CE2      -28.1160  -22.5460    8.3630 C.ar  409  TYR409      0.0417
    184  CZ       -27.5000  -23.5180    7.5720 C.ar  409  TYR409      0.1957
    185  OH       -28.0600  -23.9190    6.3700 O.3   409  TYR409     -0.2866
@<TRIPOS>BOND
     1     1     2    1
     2     4     3    2
     3    57    56    1
     4     3     2    1
     5     2     5    1
     6    78    79    1
     7    61    62    2
     8    61    60    1
     9    58    56    1
    10    79    82    1
    11    79    80    1
    12    56    55    1
    13     5     6    1
    14    82    83    1
    15    65    64    1
    16    12    13    1
    17    54    53    2
    18    83    84    1
    19    60    59    1
    20    60    63    1
    21    15    14    2
    22    81    80    2
    23    80    87   am
    24    64    63    1
    25    64    66    1
    26    53    59   am
    27    53    52    1
    28    55    52    1
    29     6     8   ar
    30     6     7   ar
    31    14    13    1
    32    67    68    1
    33    13    16    1
    34     8    10   ar
    35    87    88    1
    36    89    90    2
    37    89    88    1
    38    52    51    1
    39    84    86   am
    40    84    85    2
    41     7     9   ar
    42    69    70    2
    43    69    68    1
    44    51    48   am
    45    16    17    1
    46    68    71    1
    47    88    91    1
    48    20    21    1
    49    10    11   ar
    50    23    22    2
    51     9    11   ar
    52    48    47    1
    53    48    49    2
    54    41    40    2
    55    91    92    1
    56    17    19   ar
    57    17    18   ar
    58    71    72    1
    59    47    50    1
    60    47    46    1
    61    22    21    1
    62    21    24    1
    63    40    46   am
    64    40    39    1
    65    92    93    2
    66    92    94   am
    67    24    25    1
    68    72    73    1
    69    74    73    1
    70    74    75    2
    71    25    26    1
    72    77    75    1
    73   131   130   ar
    74    75    76    1
    75    39    42    1
    76    39    38    1
    77    42    43    1
    78    44    43   ar
    79    26    27    1
    80   132   130   ar
    81   130   129    1
    82    43    45   ar
    83    27    28    1
    84    29    30    1
    85    32    31    2
    86    38    36   am
    87    37    36    2
    88   111   110    1
    89   111   112    1
    90   110   107    1
    91    36    35    1
    92   129   126    1
    93    31    30    1
    94    31    34   am
    95   126   125    1
    96   126   127    1
    97    30    33    1
    98   109   108    2
    99   128   127    2
   100   125   116   am
   101   117   116    2
   102   107   106    1
   103   107   108    1
   104   106    97   am
   105   108   114   am
   106   116   115    1
   107   127   133   am
   108   101   103   ar
   109   101   100   ar
   110    34    35    1
   111   103   105   ar
   112   112   113    1
   113   115   114    1
   114   115   118    1
   115    96    97    1
   116    96    99    1
   117    96    95    1
   118    97    98    2
   119    99   100    1
   120   100   102   ar
   121   133   134    1
   122   105   104   ar
   123   118   119    1
   124   165   163    1
   125   134   135    1
   126   134   137    1
   127   102   104   ar
   128   120   119   ar
   129   120   122   ar
   130   164   163    1
   131   138   137    1
   132   138   139    1
   133   119   121   ar
   134   122   124   ar
   135   163   162    2
   136   140   139    1
   137   140   141    1
   138   135   136    2
   139   121   123   ar
   140   124   123   ar
   141   149   147   am
   142   148   147    2
   143   162   161    1
   144   147   146    1
   145   185   184    1
   146   161   160    1
   147   146   143    1
   148   173   172    1
   149   171   172    1
   150   171   170    1
   151   184   182   ar
   152   184   183   ar
   153   154   151    1
   154   182   180   ar
   155   143   142    1
   156   143   144    1
   157   160   159    1
   158   170   167    1
   159   183   181   ar
   160   145   144    2
   161   153   152    2
   162   180   179   ar
   163   159   156    1
   164   152   151    1
   165   152   155   am
   166   151   150    1
   167   156   155    1
   168   156   157    1
   169   181   179   ar
   170   167   168    1
   171   167   166    1
   172   179   178    1
   173   169   168    2
   174   168   174   am
   175   158   157    2
   176   174   175    1
   177   175   178    1
   178   175   176    1
   179   176   177    2
