@<TRIPOS>MOLECULE
tmp/4cm2A00.pdb
 84 83 0 0 0
SMALL
GASTEIGER

@<TRIPOS>ATOM
      1  N        -15.9430   -8.3080    8.3530 N.3    38  TYR38      -0.1227
      2  CA       -14.8590   -9.0060    9.0700 C.3    38  TYR38       0.1736
      3  C        -15.3100   -9.3040   10.5000 C.2    38  TYR38       0.2595
      4  O        -15.8770   -8.4130   11.1570 O.2    38  TYR38      -0.2718
      5  CB       -13.6280   -8.0890    9.0880 C.3    38  TYR38       0.0548
      6  CG       -13.2150   -7.6970    7.6800 C.ar   38  TYR38      -0.0200
      7  CD1      -12.4430   -8.5780    6.9110 C.ar   38  TYR38      -0.0009
      8  CD2      -13.6960   -6.5130    7.0590 C.ar   38  TYR38      -0.0009
      9  CE1      -12.0800   -8.2640    5.6170 C.ar   38  TYR38       0.0417
     10  CE2      -13.3500   -6.2020    5.7510 C.ar   38  TYR38       0.0417
     11  CZ       -12.5690   -7.0960    5.0240 C.ar   38  TYR38       0.1957
     12  OH       -12.1670   -6.8520    3.7270 O.3    38  TYR38      -0.2866
     13  N        -15.0130  -10.5010   10.9910 N.am   39  PHE39      -0.1962
     14  CA       -15.3830  -10.9250   12.3240 C.3    39  PHE39       0.1771
     15  C        -14.5030  -12.0890   12.7250 C.2    39  PHE39       0.2619
     16  O        -13.5540  -12.3880   12.0280 O.2    39  PHE39      -0.2715
     17  CB       -16.8340  -11.2320   12.4970 C.3    39  PHE39       0.0574
     18  CG       -17.4180  -12.1400   11.4220 C.ar   39  PHE39      -0.0200
     19  CD1      -17.3330  -13.4850   11.5670 C.ar   39  PHE39      -0.0042
     20  CD2      -18.0190  -11.5940   10.2870 C.ar   39  PHE39      -0.0042
     21  CE1      -17.8310  -14.3730   10.6410 C.ar   39  PHE39      -0.0003
     22  CE2      -18.4900  -12.4860    9.3280 C.ar   39  PHE39      -0.0003
     23  CZ       -18.4330  -13.8550    9.5410 C.ar   39  PHE39      -0.0000
     24  N        -14.7830  -12.6480   13.8770 N.am   40  ASP40      -0.1971
     25  CA       -14.1500  -13.7930   14.4010 C.3    40  ASP40       0.1709
     26  C        -15.1600  -14.8420   14.6820 C.2    40  ASP40       0.2293
     27  O        -16.3240  -14.5290   14.9180 O.2    40  ASP40      -0.2864
     28  CB       -13.3730  -13.4920   15.6690 C.3    40  ASP40       0.1436
     29  CG       -12.2490  -12.5480   15.4110 C.2    40  ASP40       0.3671
     30  OD1      -11.2580  -12.9970   14.8850 O.co2  40  ASP40      -0.2456
     31  OD2      -12.4190  -11.3110   15.6270 O.co2  40  ASP40      -0.2456
     32  N         -9.9200  -15.3960   12.5230 N.3   143  HIS143     -0.1226
     33  CA       -10.4510  -14.2800   11.8390 C.3   143  HIS143      0.1752
     34  C        -11.1920  -14.8420   10.6180 C.2   143  HIS143      0.2596
     35  O        -10.7030  -15.8100   10.0190 O.2   143  HIS143     -0.2718
     36  CB        -9.3190  -13.4060   11.2860 C.3   143  HIS143      0.0759
     37  CG        -8.4040  -12.8310   12.3240 C.ar  143  HIS143      0.0818
     38  ND1       -8.8510  -12.3230   13.5390 N.ar  143  HIS143     -0.2268
     39  CD2       -7.0540  -12.6760   12.3180 C.ar  143  HIS143      0.1154
     40  CE1       -7.8040  -11.8860   14.2260 C.ar  143  HIS143      0.1986
     41  NE2       -6.7070  -12.1180   13.5200 N.ar  143  HIS143     -0.2212
     42  N        -12.3190  -14.2400   10.2680 N.am  144  ILE144     -0.1966
     43  CA       -13.1700  -14.7170    9.1360 C.3   144  ILE144      0.1727
     44  C        -13.6430  -13.4510    8.4470 C.2   144  ILE144      0.2616
     45  O        -14.0400  -12.4750    9.0980 O.2   144  ILE144     -0.2715
     46  CB       -14.3960  -15.5240    9.6120 C.3   144  ILE144      0.0290
     47  CG1      -14.0100  -16.7510   10.4280 C.3   144  ILE144      0.0022
     48  CG2      -15.2380  -16.0450    8.4260 C.3   144  ILE144      0.0023
     49  CD1      -15.1170  -17.3390   11.2140 C.3   144  ILE144      0.0001
     50  N        -13.5540  -13.4580    7.1020 N.am  145  SER145     -0.1950
     51  CA       -14.0900  -12.4210    6.2470 C.3   145  SER145      0.1924
     52  C        -15.3170  -12.9550    5.5350 C.2   145  SER145      0.2314
     53  O        -15.4170  -14.1350    5.2600 O.2   145  SER145     -0.2863
     54  CB       -13.0400  -12.0530    5.1820 C.3   145  SER145      0.2116
     55  OG       -11.8450  -11.5970    5.8040 O.3   145  SER145     -0.2180
     56  N        -14.3350  -16.3710    3.8680 N.3   160  ILE160     -0.1231
     57  CA       -12.9630  -16.4040    3.3690 C.3   160  ILE160      0.1692
     58  C        -11.9830  -16.2430    4.5150 C.2   160  ILE160      0.2593
     59  O        -12.3030  -15.6130    5.4730 O.2   160  ILE160     -0.2718
     60  CB       -12.8370  -15.2030    2.4110 C.3   160  ILE160      0.0266
     61  CG1      -13.4750  -15.6320    1.1070 C.3   160  ILE160      0.0019
     62  CG2      -11.4440  -14.6700    2.1470 C.3   160  ILE160      0.0020
     63  CD1      -14.0880  -14.4930    0.3790 C.3   160  ILE160      0.0001
     64  N        -10.7640  -16.6800    4.2620 N.am  161  GLY161     -0.1942
     65  CA        -9.6290  -16.4200    5.1870 C.3   161  GLY161      0.2014
     66  C         -8.9610  -17.6790    5.6840 C.2   161  GLY161      0.2638
     67  O         -9.2610  -18.8010    5.2700 O.2   161  GLY161     -0.2714
     68  N         -7.9760  -17.5080    6.5850 N.am  162  GLN162     -0.1977
     69  CA        -7.1270  -18.6480    6.8960 C.3   162  GLN162      0.1601
     70  C         -7.9510  -19.6610    7.6760 C.2   162  GLN162      0.2287
     71  O         -7.7270  -20.8360    7.5310 O.2   162  GLN162     -0.2864
     72  CB        -5.8580  -18.2600    7.7000 C.3   162  GLN162      0.0394
     73  CG        -4.8170  -19.3620    7.8170 C.3   162  GLN162      0.0908
     74  CD        -4.3050  -19.8650    6.4670 C.2   162  GLN162      0.2608
     75  OE1       -3.9000  -19.0830    5.5860 O.2   162  GLN162     -0.2717
     76  NE2       -4.3720  -21.1690    6.2740 N.am  162  GLN162     -0.0878
     77  N         -6.8300  -15.2710    0.9760 N.3   296  ASP296     -0.1239
     78  CA        -7.3610  -14.8930    2.3010 C.3   296  ASP296      0.1674
     79  C         -7.6900  -13.4230    2.4410 C.2   296  ASP296      0.2266
     80  O         -8.1060  -13.0230    3.5150 O.2   296  ASP296     -0.2867
     81  CB        -6.3580  -15.2880    3.4080 C.3   296  ASP296      0.1410
     82  CG        -6.0920  -16.7590    3.4130 C.2   296  ASP296      0.3668
     83  OD1       -6.9670  -17.5080    2.8980 O.co2 296  ASP296     -0.2456
     84  OD2       -5.0170  -17.1620    3.8770 O.co2 296  ASP296     -0.2456
@<TRIPOS>BOND
     1    63    61    1
     2    77    78    1
     3    61    60    1
     4    62    60    1
     5    78    79    1
     6    78    81    1
     7    60    57    1
     8    79    80    2
     9    83    82   ar
    10    57    56    1
    11    57    58    1
    12    81    82    1
    13    82    84   ar
    14    12    11    1
    15    64    58   am
    16    64    65    1
    17    58    59    2
    18    11     9   ar
    19    11    10   ar
    20    54    55    1
    21    54    51    1
    22    65    66    1
    23    53    52    2
    24    67    66    2
    25    52    51    1
    26    75    74    2
    27     9     7   ar
    28    66    68   am
    29    10     8   ar
    30    51    50    1
    31    76    74   am
    32    74    73    1
    33    68    69    1
    34    69    70    1
    35    69    72    1
    36     7     6   ar
    37     8     6   ar
    38    50    44   am
    39    71    70    2
    40     6     5    1
    41    72    73    1
    42     1     2    1
    43    48    46    1
    44    44    45    2
    45    44    43    1
    46     2     5    1
    47     2     3    1
    48    43    46    1
    49    43    42    1
    50    22    23   ar
    51    22    20   ar
    52    23    21   ar
    53    46    47    1
    54    35    34    2
    55    42    34   am
    56    20    18   ar
    57    47    49    1
    58     3    13   am
    59     3     4    2
    60    34    33    1
    61    21    19   ar
    62    13    14    1
    63    36    33    1
    64    36    37    1
    65    18    19   ar
    66    18    17    1
    67    33    32    1
    68    16    15    2
    69    39    37   ar
    70    39    41   ar
    71    37    38   ar
    72    14    17    1
    73    14    15    1
    74    15    24   am
    75    41    40   ar
    76    38    40   ar
    77    24    25    1
    78    25    26    1
    79    25    28    1
    80    26    27    2
    81    30    29   ar
    82    29    31   ar
    83    29    28    1
