@<TRIPOS>MOLECULE
tmp/4cm3B02.pdb
 125 120 0 0 0
SMALL
GASTEIGER

@<TRIPOS>ATOM
      1  N        -16.9240   15.0000   -7.7790 N.3    13  ARG13      -0.1245
      2  CA       -16.0270   15.1710   -6.6480 C.3    13  ARG13       0.1563
      3  C        -15.1380   13.9440   -6.4260 C.2    13  ARG13       0.2260
      4  O        -14.4460   13.4870   -7.3650 O.2    13  ARG13      -0.2867
      5  CB       -16.8820   15.5900   -5.4160 C.3    13  ARG13       0.0307
      6  CG       -17.4030   17.0120   -5.5310 C.3    13  ARG13       0.0489
      7  CD       -18.5220   17.3020   -4.5230 C.3    13  ARG13       0.2205
      8  NE       -18.0680   17.0880   -3.1270 N.pl3  13  ARG13      -0.0865
      9  CZ       -17.3160   17.9420   -2.4260 C.cat  13  ARG13       0.5346
     10  NH1      -16.9330   19.1040   -2.9570 N.pl3  13  ARG13       0.1354
     11  NH2      -16.9640   17.6480   -1.1760 N.pl3  13  ARG13       0.1354
     12  N        -22.6430    9.5950    0.2770 N.3    94  SER94      -0.1217
     13  CA       -22.7650   10.0140    1.6770 C.3    94  SER94       0.1889
     14  C        -23.5660   11.2910    1.8310 C.2    94  SER94       0.2288
     15  O        -23.2450   12.2730    1.1950 O.2    94  SER94      -0.2866
     16  CB       -21.3480   10.2540    2.2470 C.3    94  SER94       0.2089
     17  OG       -21.3480   10.9100    3.5140 O.3    94  SER94      -0.2183
     18  N        -24.5420   14.3390    4.3980 N.3    96  PHE96      -0.1241
     19  CA       -23.6880   15.0370    5.3070 C.3    96  PHE96       0.1605
     20  C        -24.3010   16.3620    5.5880 C.2    96  PHE96       0.2264
     21  O        -24.3070   17.2580    4.7290 O.2    96  PHE96      -0.2867
     22  CB       -22.3200   15.2600    4.6710 C.3    96  PHE96       0.0534
     23  CG       -21.3900   16.1460    5.4780 C.ar   96  PHE96      -0.0203
     24  CD1      -20.6740   15.6310    6.5690 C.ar   96  PHE96      -0.0042
     25  CD2      -21.1950   17.4880    5.1160 C.ar   96  PHE96      -0.0042
     26  CE1      -19.8170   16.4230    7.3200 C.ar   96  PHE96      -0.0003
     27  CE2      -20.3480   18.2950    5.8730 C.ar   96  PHE96      -0.0003
     28  CZ       -19.6440   17.7750    6.9660 C.ar   96  PHE96      -0.0000
     29  N        -13.8170    8.2900    7.4030 N.3   143  ASP143     -0.1239
     30  CA       -13.5930    9.6860    7.8040 C.3   143  ASP143      0.1674
     31  C        -12.4880    9.6370    8.8770 C.2   143  ASP143      0.2266
     32  O        -12.6790    9.0210    9.8960 O.2   143  ASP143     -0.2867
     33  CB       -14.8950   10.3310    8.3760 C.3   143  ASP143      0.1410
     34  CG       -14.7620   11.8180    8.6570 C.2   143  ASP143      0.3668
     35  OD1      -13.6380   12.3740    8.8720 O.co2 143  ASP143     -0.2456
     36  OD2      -15.8150   12.4940    8.6400 O.co2 143  ASP143     -0.2456
     37  N        -17.1580   16.5610   14.2840 N.3   150  CYS150     -0.1235
     38  CA       -17.6630   17.9210   14.1660 C.3   150  CYS150      0.1677
     39  C        -18.8100   18.1040   15.1400 C.2   150  CYS150      0.2270
     40  O        -19.6030   17.2030   15.3660 O.2   150  CYS150     -0.2867
     41  CB       -18.2460   18.1240   12.8020 C.3   150  CYS150      0.0956
     42  SG       -16.8650   18.0010   11.6230 S.3   150  CYS150     -0.0801
     43  N        -24.3560   11.7960   11.3390 N.3   156  TYR156     -0.1241
     44  CA       -23.2660   11.5660   10.3210 C.3   156  TYR156      0.1605
     45  C        -22.1690   10.6900   10.9850 C.2   156  TYR156      0.2264
     46  O        -21.6980    9.6580   10.4390 O.2   156  TYR156     -0.2867
     47  CB       -22.7010   12.8680    9.7480 C.3   156  TYR156      0.0534
     48  CG       -21.3820   12.6770    9.0100 C.ar  156  TYR156     -0.0201
     49  CD1      -21.3690   12.1910    7.7150 C.ar  156  TYR156     -0.0009
     50  CD2      -20.1530   12.9440    9.6290 C.ar  156  TYR156     -0.0009
     51  CE1      -20.1790   11.9890    7.0360 C.ar  156  TYR156      0.0417
     52  CE2      -18.9510   12.7800    8.9530 C.ar  156  TYR156      0.0417
     53  CZ       -18.9670   12.2850    7.6820 C.ar  156  TYR156      0.1957
     54  OH       -17.8340   12.0340    7.0210 O.3   156  TYR156     -0.2866
     55  N        -20.6210    7.0140    9.9930 N.3   160  LYS160     -0.1245
     56  CA       -19.2190    6.6860    9.7080 C.3   160  LYS160      0.1561
     57  C        -18.5680    5.6770   10.6360 C.2   160  LYS160      0.2260
     58  O        -17.7480    4.8630   10.2000 O.2   160  LYS160     -0.2867
     59  CB       -18.3980    7.9510    9.7100 C.3   160  LYS160      0.0271
     60  CG       -18.6660    8.8250    8.5070 C.3   160  LYS160      0.0035
     61  CD       -18.6790    8.0220    7.1960 C.3   160  LYS160      0.0206
     62  CE       -18.5340    8.8750    5.9980 C.3   160  LYS160      0.1093
     63  NZ       -18.6960    8.2330    4.6390 N.3   160  LYS160     -0.1314
     64  N         -9.4710   13.2530    5.5000 N.3   187  GLY187     -0.1210
     65  CA        -9.6930   14.2720    6.5450 C.3   187  GLY187      0.1956
     66  C        -10.4320   15.4800    5.9810 C.2   187  GLY187      0.2612
     67  O        -11.6660   15.5870    6.1060 O.2   187  GLY187     -0.2717
     68  N         -9.6740   16.4490    5.4740 N.am  188  VAL188     -0.1965
     69  CA       -10.2550   17.5100    4.6280 C.3   188  VAL188      0.1727
     70  C         -9.8160   17.2200    3.2120 C.2   188  VAL188      0.2617
     71  O         -8.5570   17.2210    2.8810 O.2   188  VAL188     -0.2715
     72  CB        -9.7990   18.9400    4.9870 C.3   188  VAL188      0.0290
     73  CG1      -10.6210   19.9670    4.2320 C.3   188  VAL188      0.0023
     74  CG2      -10.0270   19.2200    6.4380 C.3   188  VAL188      0.0023
     75  N        -10.8190   17.0090    2.3610 N.am  189  SER189     -0.1936
     76  CA       -10.6110   16.9060    0.9310 C.3   189  SER189      0.2055
     77  C        -11.4130   18.0740    0.3170 C.2   189  SER189      0.2643
     78  O        -11.5090   19.1630    0.9380 O.2   189  SER189     -0.2714
     79  CB       -11.0150   15.5250    0.4110 C.3   189  SER189      0.2130
     80  OG       -10.6670   15.3020   -0.9480 O.3   189  SER189     -0.2179
     81  N        -11.9490   17.8650   -0.8820 N.am  190  LEU190     -0.1963
     82  CA       -12.6700   18.9000   -1.6120 C.3   190  LEU190      0.1728
     83  C        -13.6990   19.5310   -0.7160 C.2   190  LEU190      0.2616
     84  O        -14.5200   18.8410   -0.1650 O.2   190  LEU190     -0.2715
     85  CB       -13.3820   18.3070   -2.8070 C.3   190  LEU190      0.0311
     86  CG       -12.4910   17.8510   -3.9420 C.3   190  LEU190      0.0022
     87  CD1      -13.3600   17.5090   -5.1330 C.3   190  LEU190      0.0001
     88  CD2      -11.4710   18.9130   -4.3170 C.3   190  LEU190      0.0001
     89  N        -13.6230   20.8300   -0.5310 N.am  191  LEU191     -0.1964
     90  CA       -14.5230   21.4850    0.3800 C.3   191  LEU191      0.1713
     91  C        -15.8770   21.6250   -0.2820 C.2   191  LEU191      0.2458
     92  O        -15.9700   21.5090   -1.4910 O.2   191  LEU191     -0.2730
     93  CB       -13.9500   22.8330    0.8270 C.3   191  LEU191      0.0310
     94  CG       -12.8410   22.4000    1.8120 C.3   191  LEU191      0.0022
     95  CD1      -11.5300   23.1280    1.7010 C.3   191  LEU191      0.0001
     96  CD2      -13.3920   22.3540    3.2270 C.3   191  LEU191      0.0001
     97  N        -16.9280   21.8220    0.5160 N.am  192  PRO192     -0.2727
     98  CA       -18.2150   22.0190   -0.1010 C.3   192  PRO192      0.1402
     99  C        -18.1790   23.2010   -1.0820 C.2   192  PRO192      0.2269
    100  O        -17.5110   24.2130   -0.8580 O.2   192  PRO192     -0.2865
    101  CB       -19.1540   22.2590    1.0640 C.3   192  PRO192      0.0296
    102  CG       -18.4790   21.6900    2.2300 C.3   192  PRO192      0.0237
    103  CD       -17.0080   21.8530    1.9800 C.3   192  PRO192      0.0939
    104  N        -19.0160   26.8630   -0.1230 N.3   195  MET195     -0.1245
    105  CA       -18.4050   27.3100    1.1190 C.3   195  MET195      0.1570
    106  C        -17.5320   28.5080    0.7640 C.2   195  MET195      0.2261
    107  O        -16.7450   28.4400   -0.1700 O.2   195  MET195     -0.2867
    108  CB       -17.5600   26.1770    1.7400 C.3   195  MET195      0.0387
    109  CG       -16.8490   26.5930    3.0280 C.3   195  MET195      0.0595
    110  SD       -15.8680   25.2720    3.7750 S.3   195  MET195     -0.1393
    111  CE       -17.1990   24.4080    4.6290 C.3   195  MET195      0.0692
    112  N        -10.1190   25.5970    7.2890 N.3   203  TRP203     -0.1241
    113  CA        -9.9000   24.1430    7.1820 C.3   203  TRP203      0.1605
    114  C         -8.4910   23.8340    6.6550 C.2   203  TRP203      0.2264
    115  O         -7.7310   23.0710    7.2720 O.2   203  TRP203     -0.2867
    116  CB       -10.9910   23.4950    6.3050 C.3   203  TRP203      0.0550
    117  CG       -12.2670   23.3490    7.0630 C.ar  203  TRP203      0.0003
    118  CD1      -13.3810   24.1290    6.9710 C.ar  203  TRP203      0.0946
    119  CD2      -12.5340   22.3830    8.0550 C.ar  203  TRP203      0.0152
    120  NE1      -14.3400   23.6880    7.8440 N.ar  203  TRP203     -0.2442
    121  CE2      -13.8340   22.6220    8.5370 C.ar  203  TRP203      0.0810
    122  CE3      -11.7920   21.3240    8.6000 C.ar  203  TRP203      0.0012
    123  CZ2      -14.4150   21.8390    9.5300 C.ar  203  TRP203      0.0191
    124  CZ3      -12.3640   20.5510    9.6080 C.ar  203  TRP203      0.0001
    125  CH2      -13.6670   20.8060   10.0520 C.ar  203  TRP203      0.0015
@<TRIPOS>BOND
     1     1     2    1
     2     4     3    2
     3     2     3    1
     4     2     5    1
     5     6     5    1
     6     6     7    1
     7    87    86    1
     8     7     8    1
     9    88    86    1
    10    86    85    1
    11     8     9    2
    12    10     9    1
    13    85    82    1
    14     9    11    1
    15    82    81    1
    16    82    83    1
    17    92    91    2
    18    99   100    2
    19    99    98    1
    20    80    79    1
    21    81    77   am
    22    83    89   am
    23    83    84    2
    24    89    90    1
    25    91    90    1
    26    91    97   am
    27   107   106    2
    28   104   105    1
    29    98    97    1
    30    98   101    1
    31    12    13    1
    32    77    76    1
    33    77    78    2
    34    90    93    1
    35    79    76    1
    36    97   103    1
    37   106   105    1
    38    93    94    1
    39    76    75    1
    40   101   102    1
    41   105   108    1
    42    15    14    2
    43    13    14    1
    44    13    16    1
    45    95    94    1
    46   108   109    1
    47    94    96    1
    48   103   102    1
    49    16    17    1
    50    75    70   am
    51    71    70    2
    52   109   110    1
    53    70    69    1
    54   110   111    1
    55    73    72    1
    56    18    19    1
    57    69    72    1
    58    69    68    1
    59    63    62    1
    60    22    19    1
    61    22    23    1
    62    21    20    2
    63    72    74    1
    64    25    23   ar
    65    25    27   ar
    66    19    20    1
    67    68    66   am
    68    23    24   ar
    69    64    65    1
    70    27    28   ar
    71    66    67    2
    72    66    65    1
    73    62    61    1
    74   116   117    1
    75   116   113    1
    76    24    26   ar
    77   114   113    1
    78   114   115    2
    79    28    26   ar
    80   118   117   ar
    81   118   120   ar
    82    54    53    1
    83    51    53   ar
    84    51    49   ar
    85   117   119   ar
    86   113   112    1
    87    61    60    1
    88    29    30    1
    89    53    52   ar
    90    49    48   ar
    91    30    33    1
    92    30    31    1
    93   120   121   ar
    94   119   121   ar
    95   119   122   ar
    96    33    34    1
    97    60    59    1
    98   121   123   ar
    99   122   124   ar
   100    36    34   ar
   101    34    35   ar
   102    31    32    2
   103    52    50   ar
   104    48    50   ar
   105    48    47    1
   106   123   125   ar
   107   124   125   ar
   108    56    59    1
   109    56    55    1
   110    56    57    1
   111    47    44    1
   112    58    57    2
   113    44    45    1
   114    44    43    1
   115    46    45    2
   116    42    41    1
   117    41    38    1
   118    38    37    1
   119    38    39    1
   120    39    40    2
