@<TRIPOS>MOLECULE
tmp/4cm5B01.pdb
 159 154 0 0 0
SMALL
GASTEIGER

@<TRIPOS>ATOM
      1  N         18.0130  -12.2540   -7.0890 N.3    13  ARG13      -0.1245
      2  CA        17.0370  -12.3170   -6.0110 C.3    13  ARG13       0.1563
      3  C         16.1950  -10.9920   -5.8270 C.2    13  ARG13       0.2260
      4  O         15.6370  -10.4740   -6.8100 O.2    13  ARG13      -0.2867
      5  CB        17.7900  -12.7920   -4.7360 C.3    13  ARG13       0.0307
      6  CG        18.5170  -14.1500   -4.9070 C.3    13  ARG13       0.0489
      7  CD        19.5540  -14.4240   -3.8120 C.3    13  ARG13       0.2205
      8  NE        18.9520  -14.1760   -2.4870 N.pl3  13  ARG13      -0.0865
      9  CZ        18.0660  -14.9770   -1.9020 C.cat  13  ARG13       0.5346
     10  NH1       17.7240  -16.1440   -2.4760 N.pl3  13  ARG13       0.1354
     11  NH2       17.5220  -14.6360   -0.7200 N.pl3  13  ARG13       0.1354
     12  N         23.6050   -6.5520    1.0660 N.3    94  SER94      -0.1273
     13  CA        23.7170   -6.9270    2.4450 C.3    94  SER94       0.1575
     14  C         24.5090   -8.1870    2.5370 C.3    94  SER94       0.2036
     15  O         24.1130   -9.2220    1.8840 O.3    94  SER94      -0.2187
     16  CB        22.3010   -7.2270    2.9530 C.3    94  SER94       0.2036
     17  OG        22.2710   -7.9380    4.1680 O.3    94  SER94      -0.2187
     18  N         25.3480  -11.2630    4.9440 N.3    96  PHE96      -0.1241
     19  CA        24.5740  -11.9720    5.8720 C.3    96  PHE96       0.1605
     20  C         25.1940  -13.3360    6.2280 C.2    96  PHE96       0.2264
     21  O         25.1530  -14.2240    5.4290 O.2    96  PHE96      -0.2867
     22  CB        23.1950  -12.2260    5.2570 C.3    96  PHE96       0.0534
     23  CG        22.3190  -13.1130    6.1080 C.ar   96  PHE96      -0.0203
     24  CD1       21.7960  -12.6430    7.3050 C.ar   96  PHE96      -0.0042
     25  CD2       22.0360  -14.4240    5.7190 C.ar   96  PHE96      -0.0042
     26  CE1       21.0190  -13.4480    8.1020 C.ar   96  PHE96      -0.0003
     27  CE2       21.2290  -15.2360    6.4880 C.ar   96  PHE96      -0.0003
     28  CZ        20.7170  -14.7530    7.6820 C.ar   96  PHE96      -0.0000
     29  N         14.7830   -5.3500    8.0470 N.3   143  ASP143     -0.1239
     30  CA        14.5940   -6.7210    8.4890 C.3   143  ASP143      0.1674
     31  C         13.4730   -6.7450    9.5450 C.2   143  ASP143      0.2266
     32  O         13.5320   -6.0490   10.5590 O.2   143  ASP143     -0.2867
     33  CB        15.9190   -7.2370    9.0600 C.3   143  ASP143      0.1410
     34  CG        15.8520   -8.7050    9.5090 C.2   143  ASP143      0.3668
     35  OD1       14.7370   -9.2030    9.7690 O.co2 143  ASP143     -0.2456
     36  OD2       16.9160   -9.3600    9.6150 O.co2 143  ASP143     -0.2456
     37  N         12.6490   -8.9710   11.5940 N.3   145  MET145     -0.1245
     38  CA        12.9040   -9.8320   12.7760 C.3   145  MET145      0.1570
     39  C         13.9420   -9.2460   13.7400 C.2   145  MET145      0.2261
     40  O         14.4310   -9.9010   14.6390 O.2   145  MET145     -0.2867
     41  CB        13.3650  -11.2020   12.2970 C.3   145  MET145      0.0387
     42  CG        12.3190  -11.9580   11.5020 C.3   145  MET145      0.0595
     43  SD        10.7530  -12.1750   12.3800 S.3   145  MET145     -0.1393
     44  CE        11.2230  -13.2290   13.7260 C.3   145  MET145      0.0692
     45  N         15.9650  -11.5430   17.1320 N.3   149  PRO149     -0.2102
     46  CA        16.9420  -11.8280   16.1140 C.3   149  PRO149      0.1504
     47  C         17.4530  -13.2940   16.0360 C.2   149  PRO149      0.2576
     48  O         17.3360  -14.0640   16.9670 O.2   149  PRO149     -0.2718
     49  CB        18.0760  -10.8800   16.4820 C.3   149  PRO149      0.0282
     50  CG        17.9540  -10.6920   17.9310 C.3   149  PRO149      0.0208
     51  CD        16.4800  -10.6490   18.1760 C.3   149  PRO149      0.0893
     52  N         18.0170  -13.6510   14.8990 N.am  150  CYS150     -0.1971
     53  CA        18.6060  -15.0060   14.7220 C.3   150  CYS150      0.1712
     54  C         19.7260  -15.1870   15.6930 C.2   150  CYS150      0.2296
     55  O         20.5470  -14.2940   15.8820 O.2   150  CYS150     -0.2864
     56  CB        19.1620  -15.1170   13.3300 C.3   150  CYS150      0.0983
     57  SG        17.8390  -15.1230   12.1560 S.3   150  CYS150     -0.0798
     58  N         23.7360  -13.9730   15.1730 N.3   153  PHE153     -0.1241
     59  CA        23.8810  -13.0240   14.1230 C.3   153  PHE153      0.1605
     60  C         23.9840  -11.5890   14.6740 C.2   153  PHE153      0.2264
     61  O         23.3710  -10.7110   14.1490 O.2   153  PHE153     -0.2867
     62  CB        22.7310  -13.1100   13.1440 C.3   153  PHE153      0.0534
     63  CG        22.8010  -14.3120   12.2400 C.ar  153  PHE153     -0.0203
     64  CD1       22.5030  -15.5720   12.7360 C.ar  153  PHE153     -0.0042
     65  CD2       23.1970  -14.1770   10.9040 C.ar  153  PHE153     -0.0042
     66  CE1       22.5200  -16.6850   11.8980 C.ar  153  PHE153     -0.0003
     67  CE2       23.2500  -15.3000   10.0750 C.ar  153  PHE153     -0.0003
     68  CZ        22.9180  -16.5530   10.5730 C.ar  153  PHE153     -0.0000
     69  N         25.1750   -8.8610   12.0380 N.3   156  TYR156     -0.1227
     70  CA        24.1100   -8.6080   11.0770 C.3   156  TYR156      0.1736
     71  C         22.9820   -7.7360   11.6910 C.2   156  TYR156      0.2595
     72  O         22.4490   -6.7720   11.0630 O.2   156  TYR156     -0.2718
     73  CB        23.5300   -9.9480   10.5790 C.3   156  TYR156      0.0548
     74  CG        22.2990   -9.7750    9.7900 C.ar  156  TYR156     -0.0200
     75  CD1       22.3670   -9.4360    8.4590 C.ar  156  TYR156     -0.0009
     76  CD2       21.0480   -9.9770   10.3740 C.ar  156  TYR156     -0.0009
     77  CE1       21.2290   -9.2780    7.7250 C.ar  156  TYR156      0.0417
     78  CE2       19.8940   -9.7870    9.6560 C.ar  156  TYR156      0.0417
     79  CZ        19.9900   -9.4360    8.3400 C.ar  156  TYR156      0.1957
     80  OH        18.8340   -9.2780    7.5840 O.3   156  TYR156     -0.2866
     81  N         22.5570   -8.1390   12.8780 N.am  157  ASN157     -0.1974
     82  CA        21.4240   -7.5390   13.5280 C.3   157  ASN157      0.1688
     83  C         21.7610   -6.1090   13.9410 C.2   157  ASN157      0.2292
     84  O         20.9330   -5.1850   13.7780 O.2   157  ASN157     -0.2864
     85  CB        21.0820   -8.3110   14.7480 C.3   157  ASN157      0.1181
     86  CG        19.7620   -7.8720   15.3370 C.2   157  ASN157      0.2629
     87  OD1       19.6580   -7.4590   16.5180 O.2   157  ASN157     -0.2716
     88  ND2       18.7320   -7.9690   14.5170 N.am  157  ASN157     -0.0877
     89  N         21.5100   -4.0470   10.7090 N.3   160  LYS160     -0.1245
     90  CA        20.1390   -3.7100   10.3980 C.3   160  LYS160      0.1561
     91  C         19.5050   -2.6930   11.3560 C.2   160  LYS160      0.2260
     92  O         18.6290   -1.9220   10.9320 O.2   160  LYS160     -0.2867
     93  CB        19.2640   -4.9620   10.3490 C.3   160  LYS160      0.0271
     94  CG        19.5270   -5.8210    9.1240 C.3   160  LYS160      0.0035
     95  CD        19.4930   -5.0630    7.8030 C.3   160  LYS160      0.0206
     96  CE        19.4560   -6.0610    6.6630 C.3   160  LYS160      0.1093
     97  NZ        19.5240   -5.4590    5.3210 N.3   160  LYS160     -0.1314
     98  N         10.4820  -10.5330    5.9660 N.3   187  GLY187     -0.1210
     99  CA        10.4960  -11.5660    6.9780 C.3   187  GLY187      0.1956
    100  C         11.4160  -12.6780    6.5550 C.2   187  GLY187      0.2612
    101  O         12.6100  -12.6580    6.8890 O.2   187  GLY187     -0.2717
    102  N         10.8460  -13.6680    5.8940 N.am  188  VAL188     -0.1965
    103  CA        11.6380  -14.5990    5.0930 C.3   188  VAL188      0.1727
    104  C         11.1380  -14.5610    3.6610 C.2   188  VAL188      0.2617
    105  O          9.9200  -14.4610    3.4100 O.2   188  VAL188     -0.2715
    106  CB        11.6730  -16.0430    5.6210 C.3   188  VAL188      0.0290
    107  CG1       12.4890  -16.1200    6.9040 C.3   188  VAL188      0.0023
    108  CG2       10.3110  -16.6470    5.7670 C.3   188  VAL188      0.0023
    109  N         12.0990  -14.5740    2.7430 N.am  189  SER189     -0.1936
    110  CA        11.8630  -14.4330    1.3120 C.3   189  SER189      0.2055
    111  C         12.9080  -15.2100    0.4960 C.2   189  SER189      0.2643
    112  O         14.1240  -15.0880    0.6960 O.2   189  SER189     -0.2714
    113  CB        11.9520  -12.9450    0.9400 C.3   189  SER189      0.2130
    114  OG        11.6680  -12.7830   -0.4490 O.3   189  SER189     -0.2179
    115  N         12.4530  -16.0210   -0.4490 N.am  190  LEU190     -0.1963
    116  CA        13.3940  -16.6180   -1.3900 C.3   190  LEU190      0.1728
    117  C         14.5120  -17.4270   -0.7160 C.2   190  LEU190      0.2616
    118  O         15.6860  -17.2240   -1.0020 O.2   190  LEU190     -0.2715
    119  CB        14.0270  -15.5170   -2.2500 C.3   190  LEU190      0.0311
    120  CG        13.4590  -15.2720   -3.6280 C.3   190  LEU190      0.0022
    121  CD1       14.5230  -14.5430   -4.4440 C.3   190  LEU190      0.0001
    122  CD2       13.0480  -16.5720   -4.3260 C.3   190  LEU190      0.0001
    123  N         14.1660  -18.3480    0.1660 N.am  191  LEU191     -0.1964
    124  CA        15.1910  -19.1280    0.8230 C.3   191  LEU191      0.1713
    125  C         15.7950  -20.0840   -0.2140 C.2   191  LEU191      0.2458
    126  O         15.0770  -20.8660   -0.8330 O.2   191  LEU191     -0.2730
    127  CB        14.6310  -19.8940    2.0070 C.3   191  LEU191      0.0310
    128  CG        13.8930  -18.9990    3.0090 C.3   191  LEU191      0.0022
    129  CD1       13.2700  -19.8640    4.0820 C.3   191  LEU191      0.0001
    130  CD2       14.8490  -17.9840    3.6390 C.3   191  LEU191      0.0001
    131  N         17.1170  -20.0170   -0.4080 N.am  192  PRO192     -0.2727
    132  CA        17.7690  -20.7340   -1.5170 C.3   192  PRO192      0.1402
    133  C         17.9970  -22.2680   -1.2670 C.2   192  PRO192      0.2269
    134  O         17.9200  -22.7560   -0.1070 O.2   192  PRO192     -0.2865
    135  CB        19.1050  -19.9900   -1.6280 C.3   192  PRO192      0.0296
    136  CG        19.4360  -19.6860   -0.1880 C.3   192  PRO192      0.0237
    137  CD        18.0970  -19.3140    0.4320 C.3   192  PRO192      0.0939
    138  N         20.5660  -23.3480    1.5260 N.3   195  MET195     -0.1245
    139  CA        20.1930  -23.3920    2.9410 C.3   195  MET195      0.1570
    140  C         19.6180  -24.7440    3.3330 C.2   195  MET195      0.2261
    141  O         18.9290  -25.3790    2.5460 O.2   195  MET195     -0.2867
    142  CB        19.1910  -22.2730    3.2720 C.3   195  MET195      0.0387
    143  CG        18.7510  -22.2230    4.7420 C.3   195  MET195      0.0595
    144  SD        17.5710  -20.8960    5.1420 S.3   195  MET195     -0.1393
    145  CE        18.3660  -19.4720    4.4090 C.3   195  MET195      0.0692
    146  N         11.2410  -22.1440    9.3620 N.3   203  TRP203     -0.1241
    147  CA        10.7600  -20.8120    9.0100 C.3   203  TRP203      0.1605
    148  C          9.4230  -20.8120    8.2400 C.2   203  TRP203      0.2264
    149  O          8.4420  -20.2160    8.6910 O.2   203  TRP203     -0.2867
    150  CB        11.8230  -20.0970    8.1980 C.3   203  TRP203      0.0550
    151  CG        12.9960  -19.6150    9.0120 C.ar  203  TRP203      0.0003
    152  CD1       14.3020  -20.0350    8.9120 C.ar  203  TRP203      0.0946
    153  CD2       12.9840  -18.6040   10.0260 C.ar  203  TRP203      0.0152
    154  NE1       15.0880  -19.3270    9.7930 N.ar  203  TRP203     -0.2442
    155  CE2       14.3060  -18.4480   10.4840 C.ar  203  TRP203      0.0810
    156  CE3       11.9870  -17.7980   10.5750 C.ar  203  TRP203      0.0012
    157  CZ2       14.6540  -17.5230   11.4670 C.ar  203  TRP203      0.0191
    158  CZ3       12.3400  -16.8830   11.5540 C.ar  203  TRP203      0.0001
    159  CH2       13.6680  -16.7510   11.9850 C.ar  203  TRP203      0.0015
@<TRIPOS>BOND
     1     1     2    1
     2     4     3    2
     3     2     3    1
     4     2     5    1
     5     6     5    1
     6     6     7    1
     7   121   120    1
     8   122   120    1
     9     7     8    1
    10   120   119    1
    11     8     9    2
    12    10     9    1
    13   119   116    1
    14     9    11    1
    15   135   132    1
    16   135   136    1
    17   132   133    1
    18   132   131    1
    19   116   117    1
    20   116   115    1
    21   133   134    2
    22   118   117    2
    23   126   125    2
    24   117   123   am
    25   114   113    1
    26   115   111   am
    27   131   125   am
    28   131   137    1
    29   125   124    1
    30   136   137    1
    31   123   124    1
    32   111   112    2
    33   111   110    1
    34   124   127    1
    35   113   110    1
    36    12    13    1
    37   110   109    1
    38   138   139    1
    39    15    14    1
    40   127   128    1
    41    13    14    1
    42    13    16    1
    43   141   140    2
    44   109   104   am
    45   139   142    1
    46   139   140    1
    47    16    17    1
    48   128   130    1
    49   128   129    1
    50   142   143    1
    51   105   104    2
    52   104   103    1
    53   145   144    1
    54   143   144    1
    55    18    19    1
    56   103   106    1
    57   103   102    1
    58    22    19    1
    59    22    23    1
    60    97    96    1
    61    21    20    2
    62   106   108    1
    63   106   107    1
    64    25    23   ar
    65    25    27   ar
    66    19    20    1
    67   102   100   am
    68    98    99    1
    69    23    24   ar
    70    27    28   ar
    71   100   101    2
    72   100    99    1
    73    96    95    1
    74    24    26   ar
    75    80    79    1
    76    28    26   ar
    77    77    79   ar
    78    77    75   ar
    79    95    94    1
    80    29    30    1
    81   150   147    1
    82   150   151    1
    83   148   149    2
    84   148   147    1
    85    79    78   ar
    86    75    74   ar
    87    30    33    1
    88    30    31    1
    89   152   151   ar
    90   152   154   ar
    91   147   146    1
    92   151   153   ar
    93    33    34    1
    94    94    93    1
    95    34    36   ar
    96    34    35   ar
    97    31    32    2
    98    78    76   ar
    99    74    76   ar
   100    74    73    1
   101   154   155   ar
   102   153   155   ar
   103   153   156   ar
   104    67    68   ar
   105    67    65   ar
   106    93    90    1
   107    90    89    1
   108    90    91    1
   109   155   157   ar
   110    68    66   ar
   111   156   158   ar
   112    73    70    1
   113    65    63   ar
   114    92    91    2
   115    72    71    2
   116    70    71    1
   117    70    69    1
   118   157   159   ar
   119    42    41    1
   120    42    43    1
   121   158   159   ar
   122    37    38    1
   123    71    81   am
   124    66    64   ar
   125    57    56    1
   126    63    64   ar
   127    63    62    1
   128    41    38    1
   129    43    44    1
   130    38    39    1
   131    81    82    1
   132    62    59    1
   133    56    53    1
   134    82    83    1
   135    82    85    1
   136    39    40    2
   137    84    83    2
   138    59    60    1
   139    59    58    1
   140    61    60    2
   141    88    86   am
   142    53    52    1
   143    53    54    1
   144    85    86    1
   145    52    47   am
   146    86    87    2
   147    54    55    2
   148    47    46    1
   149    47    48    2
   150    46    49    1
   151    46    45    1
   152    49    50    1
   153    45    51    1
   154    50    51    1
