@<TRIPOS>MOLECULE
tmp/4cm6A01.pdb
 157 151 0 0 0
SMALL
GASTEIGER

@<TRIPOS>ATOM
      1  N        -15.0270   14.1920    5.0400 N.3    13  ARG13      -0.1245
      2  CA       -13.6080   14.1940    5.4170 C.3    13  ARG13       0.1563
      3  C        -12.8560   12.9320    4.9200 C.2    13  ARG13       0.2260
      4  O        -12.9880   12.5620    3.7720 O.2    13  ARG13      -0.2867
      5  CB       -13.5130   14.4380    6.9360 C.3    13  ARG13       0.0307
      6  CG       -13.9170   15.8800    7.2900 C.3    13  ARG13       0.0489
      7  CD       -14.1990   16.1190    8.7510 C.3    13  ARG13       0.2205
      8  NE       -13.0340   15.8560    9.5790 N.pl3  13  ARG13      -0.0865
      9  CZ       -12.0360   16.6760    9.8160 C.cat  13  ARG13       0.5346
     10  NH1      -11.9890   17.9070    9.2990 N.pl3  13  ARG13       0.1354
     11  NH2      -11.0620   16.2720   10.6280 N.pl3  13  ARG13       0.1354
     12  N        -14.6010    7.6440   14.1690 N.3    94  SER94      -0.1217
     13  CA       -13.8540    7.9080   15.3980 C.3    94  SER94       0.1889
     14  C        -14.3510    9.1590   16.1510 C.2    94  SER94       0.2288
     15  O        -14.4640   10.2380   15.5640 O.2    94  SER94      -0.2866
     16  CB       -12.4120    8.0820   14.9790 C.3    94  SER94       0.2089
     17  OG       -11.6010    8.5350   16.0420 O.3    94  SER94      -0.2183
     18  N        -13.2560   11.9560   18.9490 N.3    96  PHE96      -0.1241
     19  CA       -11.9810   12.5530   19.2270 C.3    96  PHE96       0.1605
     20  C        -12.2600   13.8370   20.0250 C.2    96  PHE96       0.2264
     21  O        -12.8520   14.8020   19.4960 O.2    96  PHE96      -0.2867
     22  CB       -11.2500   12.8270   17.8800 C.3    96  PHE96       0.0534
     23  CG       -10.0150   13.6750   17.9860 C.ar   96  PHE96      -0.0203
     24  CD1       -8.8590   13.2030   18.5660 C.ar   96  PHE96      -0.0042
     25  CD2       -9.9980   14.9630   17.4460 C.ar   96  PHE96      -0.0042
     26  CE1       -7.7200   13.9770   18.6340 C.ar   96  PHE96      -0.0003
     27  CE2       -8.8570   15.7500   17.5210 C.ar   96  PHE96      -0.0003
     28  CZ        -7.7250   15.2670   18.1230 C.ar   96  PHE96      -0.0000
     29  N         -3.2820    6.0350   14.2350 N.3   143  ASP143     -0.1239
     30  CA        -2.8280    7.3910   14.5570 C.3   143  ASP143      0.1674
     31  C         -1.3230    7.3420   14.6940 C.2   143  ASP143      0.2266
     32  O         -0.8040    6.5190   15.4710 O.2   143  ASP143     -0.2867
     33  CB        -3.5340    7.8270   15.8440 C.3   143  ASP143      0.1410
     34  CG        -3.1820    9.2290   16.2430 C.2   143  ASP143      0.3668
     35  OD1       -1.9690    9.4980   16.3910 O.co2 143  ASP143     -0.2456
     36  OD2       -4.0910   10.0720   16.3650 O.co2 143  ASP143     -0.2456
     37  N          0.7980    9.2600   15.9070 N.3   145  MET145     -0.1245
     38  CA         1.3390    9.9170   17.0740 C.3   145  MET145      0.1570
     39  C          0.9420    9.2130   18.3550 C.2   145  MET145      0.2261
     40  O          1.0340    9.7840   19.4080 O.2   145  MET145     -0.2867
     41  CB         0.8620   11.3710   17.1110 C.3   145  MET145      0.0387
     42  CG         1.1860   12.1450   15.8570 C.3   145  MET145      0.0595
     43  SD         2.9580   12.3540   15.6990 S.3   145  MET145     -0.1393
     44  CE         3.2350   13.6660   16.8750 C.3   145  MET145      0.0692
     45  N          3.3950    9.5790   21.0330 N.3   148  GLN148     -0.1231
     46  CA         3.6710   10.9410   21.4340 C.3   148  GLN148      0.1683
     47  C          2.3420   11.7260   21.4950 C.2   148  GLN148      0.2434
     48  O          2.1480   12.6740   20.7080 O.2   148  GLN148     -0.2733
     49  CB         4.5890   11.6050   20.4260 C.3   148  GLN148      0.0380
     50  CG         5.9430   10.9610   20.2600 C.3   148  GLN148      0.0905
     51  CD         6.2180   10.7050   18.7920 C.2   148  GLN148      0.2608
     52  OE1        5.7680    9.7010   18.2400 O.2   148  GLN148     -0.2717
     53  NE2        6.9000   11.6380   18.1410 N.am  148  GLN148     -0.0878
     54  N          1.4410   11.3190   22.4040 N.am  149  PRO149     -0.2718
     55  CA         0.0400   11.7280   22.3250 C.3   149  PRO149      0.1535
     56  C         -0.2240   13.1910   22.7270 C.2   149  PRO149      0.2598
     57  O          0.5680   13.7950   23.4880 O.2   149  PRO149     -0.2715
     58  CB        -0.6550   10.7820   23.3130 C.3   149  PRO149      0.0310
     59  CG         0.3720   10.4660   24.3400 C.3   149  PRO149      0.0237
     60  CD         1.7190   10.5170   23.6270 C.3   149  PRO149      0.0939
     61  N         -1.3260   13.7430   22.2320 N.am  150  CYS150     -0.1968
     62  CA        -1.7450   15.0660   22.6610 C.3   150  CYS150      0.1712
     63  C         -2.1220   15.0210   24.1410 C.2   150  CYS150      0.2296
     64  O         -2.6950   14.0530   24.6210 O.2   150  CYS150     -0.2864
     65  CB        -2.9190   15.5700   21.8470 C.3   150  CYS150      0.0983
     66  SG        -2.9310   17.3740   21.7420 S.3   150  CYS150     -0.0798
     67  N         -8.9270    8.7110   24.1050 N.3   156  TYR156     -0.1241
     68  CA        -8.7000    8.5950   22.6470 C.3   156  TYR156      0.1605
     69  C         -7.4030    7.7990   22.3380 C.2   156  TYR156      0.2264
     70  O         -7.3720    6.9400   21.4600 O.2   156  TYR156     -0.2867
     71  CB        -8.6000   10.0100   22.0220 C.3   156  TYR156      0.0534
     72  CG        -8.0660    9.9920   20.6150 C.ar  156  TYR156     -0.0201
     73  CD1       -8.8980    9.6970   19.5300 C.ar  156  TYR156     -0.0009
     74  CD2       -6.7280   10.2610   20.3470 C.ar  156  TYR156     -0.0009
     75  CE1       -8.3970    9.6380   18.2330 C.ar  156  TYR156      0.0417
     76  CE2       -6.2230   10.2110   19.0470 C.ar  156  TYR156      0.0417
     77  CZ        -7.0430    9.8940   18.0010 C.ar  156  TYR156      0.1957
     78  OH        -6.5310    9.8810   16.7170 O.3   156  TYR156     -0.2866
     79  N         -6.9620    4.2370   20.2800 N.3   160  LYS160     -0.1245
     80  CA        -6.0570    4.0470   19.1280 C.3   160  LYS160      0.1561
     81  C         -4.9650    2.9780   19.3670 C.2   160  LYS160      0.2260
     82  O         -4.5850    2.2290   18.4620 O.2   160  LYS160     -0.2867
     83  CB        -5.4580    5.3920   18.7290 C.3   160  LYS160      0.0271
     84  CG        -6.5110    6.2660   18.0890 C.3   160  LYS160      0.0035
     85  CD        -7.2150    5.6490   16.8870 C.3   160  LYS160      0.0206
     86  CE        -7.8790    6.7250   15.9920 C.3   160  LYS160      0.1093
     87  NZ        -8.8560    6.2490   14.9690 N.3   160  LYS160     -0.1314
     88  N         -0.7900   11.4670   10.5230 N.3   187  GLY187     -0.1210
     89  CA        -0.2660   12.2920   11.5830 C.3   187  GLY187      0.1956
     90  C         -1.2410   13.4590   11.8040 C.2   187  GLY187      0.2612
     91  O         -2.1210   13.4170   12.6610 O.2   187  GLY187     -0.2717
     92  N         -1.0230   14.5180   11.0440 N.am  188  VAL188     -0.1965
     93  CA        -2.0620   15.5300   10.8400 C.3   188  VAL188      0.1727
     94  C         -2.4870   15.4570    9.3690 C.2   188  VAL188      0.2617
     95  O         -1.6460   15.5330    8.4390 O.2   188  VAL188     -0.2715
     96  CB        -1.6410   16.9780   11.2800 C.3   188  VAL188      0.0290
     97  CG1       -1.4740   17.0540   12.7960 C.3   188  VAL188      0.0023
     98  CG2       -0.3840   17.4420   10.6130 C.3   188  VAL188      0.0023
     99  N         -3.7920   15.2750    9.1830 N.am  189  SER189     -0.1936
    100  CA        -4.4390   15.3220    7.9100 C.3   189  SER189      0.2055
    101  C         -5.4720   16.4450    8.0500 C.2   189  SER189      0.2643
    102  O         -5.1410   17.4870    8.6450 O.2   189  SER189     -0.2714
    103  CB        -5.0550   13.9820    7.5470 C.3   189  SER189      0.2130
    104  OG        -5.7950   14.0400    6.3080 O.3   189  SER189     -0.2179
    105  N         -6.6860   16.2770    7.5500 N.am  190  LEU190     -0.1963
    106  CA        -7.6780   17.3670    7.7190 C.3   190  LEU190      0.1728
    107  C         -7.8420   17.7330    9.1960 C.2   190  LEU190      0.2616
    108  O         -8.2400   16.9120   10.0450 O.2   190  LEU190     -0.2715
    109  CB        -9.0430   16.9820    7.1530 C.3   190  LEU190      0.0311
    110  CG        -9.2400   17.0630    5.6480 C.3   190  LEU190      0.0022
    111  CD1      -10.5870   16.4690    5.2970 C.3   190  LEU190      0.0001
    112  CD2       -9.1550   18.5220    5.1760 C.3   190  LEU190      0.0001
    113  N         -7.5290   18.9890    9.5110 N.am  191  LEU191     -0.1964
    114  CA        -7.6180   19.4440   10.8610 C.3   191  LEU191      0.1713
    115  C         -9.0890   19.6040   11.2300 C.2   191  LEU191      0.2458
    116  O         -9.9480   19.6720   10.3480 O.2   191  LEU191     -0.2730
    117  CB        -6.7720   20.7190   11.0750 C.3   191  LEU191      0.0310
    118  CG        -5.2890   20.3210   10.8720 C.3   191  LEU191      0.0022
    119  CD1       -4.4650   21.4270   10.2660 C.3   191  LEU191      0.0001
    120  CD2       -4.6740   19.7970   12.1700 C.3   191  LEU191      0.0001
    121  N         -9.3820   19.6180   12.5300 N.am  192  PRO192     -0.2727
    122  CA       -10.7660   19.6570   12.9620 C.3   192  PRO192      0.1402
    123  C        -11.4200   20.9490   12.4950 C.2   192  PRO192      0.2269
    124  O        -10.7510   21.9870   12.4730 O.2   192  PRO192     -0.2865
    125  CB       -10.6650   19.6100   14.4840 C.3   192  PRO192      0.0296
    126  CG        -9.3580   18.9340   14.7610 C.3   192  PRO192      0.0237
    127  CD        -8.4550   19.4100   13.6590 C.3   192  PRO192      0.0939
    128  N        -11.1070   23.9820   14.6880 N.3   195  MET195     -0.1245
    129  CA        -9.7930   24.5750   14.9380 C.3   195  MET195      0.1570
    130  C         -9.6230   25.8750   14.1680 C.2   195  MET195      0.2261
    131  O         -9.9800   25.9450   12.9860 O.2   195  MET195     -0.2867
    132  CB        -8.7000   23.6140   14.5420 C.3   195  MET195      0.0387
    133  CG        -7.3020   24.0960   14.8580 C.3   195  MET195      0.0595
    134  SD        -6.0240   22.8210   14.6350 S.3   195  MET195     -0.1393
    135  CE        -6.3950   21.7270   16.0100 C.3   195  MET195      0.0692
    136  N          0.2640   23.5650   13.6430 N.3   203  TRP203     -0.1241
    137  CA         0.4720   22.1140   13.3880 C.3   203  TRP203      0.1605
    138  C          1.1650   21.8870   12.0590 C.2   203  TRP203      0.2264
    139  O          2.1420   21.1000   11.9240 O.2   203  TRP203     -0.2867
    140  CB        -0.8360   21.3460   13.4470 C.3   203  TRP203      0.0550
    141  CG        -1.2330   21.0660   14.8440 C.ar  203  TRP203      0.0003
    142  CD1       -2.1430   21.7280   15.5960 C.ar  203  TRP203      0.0946
    143  CD2       -0.6380   20.0810   15.6970 C.ar  203  TRP203      0.0152
    144  NE1       -2.1640   21.2030   16.8840 N.ar  203  TRP203     -0.2442
    145  CE2       -1.2600   20.1770   16.9520 C.ar  203  TRP203      0.0810
    146  CE3        0.3590   19.1160   15.5050 C.ar  203  TRP203      0.0012
    147  CZ2       -0.9210   19.3350   18.0190 C.ar  203  TRP203      0.0191
    148  CZ3        0.6880   18.2740   16.5620 C.ar  203  TRP203      0.0001
    149  CH2        0.0530   18.3890   17.7930 C.ar  203  TRP203      0.0015
    150  N          6.0930   13.7320   10.6310 N.3   245  LEU245     -0.1245
    151  CA         5.7010   14.3940   11.9000 C.3   245  LEU245      0.1561
    152  C          6.1410   13.6440   13.1450 C.2   245  LEU245      0.2260
    153  O          6.7020   14.2340   14.0850 O.2   245  LEU245     -0.2867
    154  CB         4.1950   14.6330   11.9320 C.3   245  LEU245      0.0270
    155  CG         3.7210   15.4280   13.1540 C.3   245  LEU245      0.0019
    156  CD1        4.2660   16.8400   13.2530 C.3   245  LEU245      0.0001
    157  CD2        2.2170   15.4810   13.0670 C.3   245  LEU245      0.0001
@<TRIPOS>BOND
     1     4     3    2
     2     3     2    1
     3     1     2    1
     4   112   110    1
     5   111   110    1
     6     2     5    1
     7   110   109    1
     8   104   103    1
     9     5     6    1
    10   109   106    1
    11     6     7    1
    12   103   100    1
    13   105   106    1
    14   105   101   am
    15   106   107    1
    16   100   101    1
    17   100    99    1
    18   101   102    2
    19    95    94    2
    20     7     8    1
    21    99    94   am
    22   107   113   am
    23   107   108    2
    24    10     9    1
    25    94    93    1
    26   113   114    1
    27     8     9    2
    28     9    11    1
    29   119   118    1
    30   116   115    2
    31    88    89    1
    32    98    96    1
    33   150   151    1
    34    93    92    1
    35    93    96    1
    36   114   117    1
    37   114   115    1
    38   118   117    1
    39   118   120    1
    40    92    90   am
    41   115   121   am
    42    96    97    1
    43    89    90    1
    44    90    91    2
    45   151   154    1
    46   151   152    1
    47   139   138    2
    48   154   155    1
    49   138   137    1
    50   124   123    2
    51   123   122    1
    52   121   122    1
    53   121   127    1
    54   122   125    1
    55   131   130    2
    56   157   155    1
    57   152   153    2
    58   155   156    1
    59   137   140    1
    60   137   136    1
    61   140   141    1
    62   127   126    1
    63   130   129    1
    64    12    13    1
    65    29    30    1
    66   125   126    1
    67   132   133    1
    68   132   129    1
    69    30    31    1
    70    30    33    1
    71   134   133    1
    72   134   135    1
    73   128   129    1
    74    31    32    2
    75   141   142   ar
    76   141   143   ar
    77    87    86    1
    78    16    13    1
    79    16    17    1
    80    13    14    1
    81   146   143   ar
    82   146   148   ar
    83    15    14    2
    84   142   144   ar
    85   143   145   ar
    86    43    42    1
    87    43    44    1
    88    33    34    1
    89    42    41    1
    90    37    38    1
    91    86    85    1
    92    34    36   ar
    93    34    35   ar
    94   148   149   ar
    95    78    77    1
    96   144   145   ar
    97    85    84    1
    98   145   147   ar
    99    38    41    1
   100    38    39    1
   101    25    27   ar
   102    25    23   ar
   103    27    28   ar
   104   149   147   ar
   105    22    23    1
   106    22    19    1
   107    23    24   ar
   108    77    75   ar
   109    77    76   ar
   110    84    83    1
   111    28    26   ar
   112    53    51   am
   113    75    73   ar
   114    52    51    2
   115    39    40    2
   116    82    81    2
   117    24    26   ar
   118    83    80    1
   119    51    50    1
   120    18    19    1
   121    76    74   ar
   122    80    81    1
   123    80    79    1
   124    19    20    1
   125    21    20    2
   126    73    72   ar
   127    50    49    1
   128    74    72   ar
   129    49    46    1
   130    72    71    1
   131    48    47    2
   132    45    46    1
   133    46    47    1
   134    70    69    2
   135    47    54   am
   136    66    65    1
   137    65    62    1
   138    71    68    1
   139    61    62    1
   140    61    56   am
   141    55    54    1
   142    55    56    1
   143    55    58    1
   144    69    68    1
   145    54    60    1
   146    68    67    1
   147    62    63    1
   148    56    57    2
   149    58    59    1
   150    60    59    1
   151    63    64    2
