@<TRIPOS>MOLECULE
tmp/4cm7C01.pdb
 141 134 0 0 0
SMALL
GASTEIGER

@<TRIPOS>ATOM
      1  N          1.1180   14.5100   43.5850 N.3    13  ARG13      -0.1245
      2  CA         0.2590   14.5800   42.4120 C.3    13  ARG13       0.1563
      3  C         -0.5770   13.3240   42.3300 C.2    13  ARG13       0.2260
      4  O         -1.1810   12.9560   43.3160 O.2    13  ARG13      -0.2867
      5  CB         1.1100   14.8650   41.1620 C.3    13  ARG13       0.0307
      6  CG         1.7340   16.2410   41.1970 C.3    13  ARG13       0.0489
      7  CD         2.8240   16.5240   40.1730 C.3    13  ARG13       0.2205
      8  NE         2.4260   16.1940   38.8010 N.pl3  13  ARG13      -0.0865
      9  CZ         1.8410   17.0110   37.9400 C.cat  13  ARG13       0.5346
     10  NH1        1.5760   18.2700   38.2490 N.pl3  13  ARG13       0.1354
     11  NH2        1.5470   16.5630   36.7190 N.pl3  13  ARG13       0.1354
     12  N          6.8900    8.0630   36.4160 N.3    94  SER94      -0.1217
     13  CA         7.0310    8.3020   34.9830 C.3    94  SER94       0.1889
     14  C          7.7710    9.5540   34.6500 C.2    94  SER94       0.2288
     15  O          7.3980   10.6450   35.1140 O.2    94  SER94      -0.2866
     16  CB         5.6290    8.4150   34.3680 C.3    94  SER94       0.2089
     17  OG         5.6700    8.9150   33.0310 O.3    94  SER94      -0.2183
     18  N          8.6710   12.3720   31.7550 N.3    96  PHE96      -0.1241
     19  CA         7.8260   12.9920   30.7380 C.3    96  PHE96       0.1605
     20  C          8.4930   14.2530   30.2590 C.2    96  PHE96       0.2264
     21  O          8.5230   15.2560   30.9690 O.2    96  PHE96      -0.2867
     22  CB         6.4100   13.2880   31.3180 C.3    96  PHE96       0.0534
     23  CG         5.4870   14.0950   30.4020 C.ar   96  PHE96      -0.0203
     24  CD1        4.8650   13.5150   29.3270 C.ar   96  PHE96      -0.0042
     25  CD2        5.1550   15.4070   30.6980 C.ar   96  PHE96      -0.0042
     26  CE1        4.0170   14.2400   28.5030 C.ar   96  PHE96      -0.0003
     27  CE2        4.2830   16.1430   29.9070 C.ar   96  PHE96      -0.0003
     28  CZ         3.6940   15.5450   28.7960 C.ar   96  PHE96      -0.0000
     29  N         -2.0000    6.3150   29.2210 N.3   144  ASP144     -0.1239
     30  CA        -2.2250    7.6630   28.7100 C.3   144  ASP144      0.1674
     31  C         -3.2450    7.5930   27.5790 C.2   144  ASP144      0.2266
     32  O         -3.0020    6.9630   26.5530 O.2   144  ASP144     -0.2867
     33  CB        -0.8970    8.2230   28.1860 C.3   144  ASP144      0.1410
     34  CG        -0.9780    9.6670   27.7200 C.2   144  ASP144      0.3668
     35  OD1       -2.0790   10.1650   27.3600 O.co2 144  ASP144     -0.2456
     36  OD2        0.1190   10.3020   27.6630 O.co2 144  ASP144     -0.2456
     37  N         -4.0220    9.6130   25.3880 N.3   146  MET146     -0.1245
     38  CA        -3.6900   10.3290   24.1470 C.3   146  MET146      0.1570
     39  C         -2.5820    9.6480   23.3310 C.2   146  MET146      0.2261
     40  O         -2.0630   10.2530   22.4040 O.2   146  MET146     -0.2867
     41  CB        -3.3170   11.7820   24.4470 C.3   146  MET146      0.0387
     42  CG        -4.4200   12.5940   25.1350 C.3   146  MET146      0.0595
     43  SD        -5.9030   12.8020   24.1160 S.3   146  MET146     -0.1393
     44  CE        -5.2800   13.9120   22.8580 C.3   146  MET146      0.0692
     45  N          1.2590   14.2070   21.6250 N.3   151  CYS151     -0.1235
     46  CA         1.8380   15.5240   21.4980 C.3   151  CYS151      0.1677
     47  C          3.1010   15.4300   20.6510 C.2   151  CYS151      0.2270
     48  O          3.8350   14.4530   20.6940 O.2   151  CYS151     -0.2867
     49  CB         2.1160   16.1530   22.8760 C.3   151  CYS151      0.0956
     50  SG         0.6020   16.7050   23.7520 S.3   151  CYS151     -0.0801
     51  N          8.6190    9.1710   24.9180 N.3   157  TYR157     -0.1241
     52  CA         7.5800    9.0710   25.9570 C.3   157  TYR157      0.1605
     53  C          6.4340    8.2310   25.4250 C.2   157  TYR157      0.2264
     54  O          5.9490    7.3400   26.0970 O.2   157  TYR157     -0.2867
     55  CB         7.0630   10.4650   26.3600 C.3   157  TYR157      0.0534
     56  CG         5.7650   10.3810   27.1540 C.ar  157  TYR157     -0.0201
     57  CD1        5.7710    9.9940   28.4860 C.ar  157  TYR157     -0.0009
     58  CD2        4.5670   10.5730   26.5360 C.ar  157  TYR157     -0.0009
     59  CE1        4.6080    9.8730   29.1990 C.ar  157  TYR157      0.0417
     60  CE2        3.3620   10.4640   27.2370 C.ar  157  TYR157      0.0417
     61  CZ         3.3790   10.1180   28.5610 C.ar  157  TYR157      0.1957
     62  OH         2.2420    9.9500   29.2710 O.3   157  TYR157     -0.2866
     63  N          4.7470    4.5730   26.6880 N.3   161  LYS161     -0.1245
     64  CA         3.3770    4.3560   27.0770 C.3   161  LYS161      0.1561
     65  C          2.7190    3.2960   26.2170 C.2   161  LYS161      0.2260
     66  O          1.9330    2.5120   26.7400 O.2   161  LYS161     -0.2867
     67  CB         2.5960    5.6440   27.0900 C.3   161  LYS161      0.0271
     68  CG         2.9720    6.5640   28.2210 C.3   161  LYS161      0.0035
     69  CD         2.7980    5.9290   29.6070 C.3   161  LYS161      0.0206
     70  CE         2.7860    6.9770   30.6840 C.3   161  LYS161      0.1093
     71  NZ         2.8180    6.4630   32.0700 N.3   161  LYS161     -0.1314
     72  N         -6.3100   11.6300   30.4210 N.3   188  GLY188     -0.1210
     73  CA        -6.1360   12.5820   29.3230 C.3   188  GLY188      0.1956
     74  C         -5.3280   13.7340   29.8440 C.2   188  GLY188      0.2612
     75  O         -4.1190   13.6050   29.9540 O.2   188  GLY188     -0.2717
     76  N         -5.9820   14.8770   30.0780 N.am  189  VAL189     -0.1965
     77  CA        -5.4130   15.9940   30.8470 C.3   189  VAL189      0.1727
     78  C         -5.8510   15.8270   32.3090 C.2   189  VAL189      0.2617
     79  O         -7.0580   15.9360   32.6370 O.2   189  VAL189     -0.2715
     80  CB        -5.9070   17.3930   30.3760 C.3   189  VAL189      0.0290
     81  CG1       -5.0060   18.5050   30.9240 C.3   189  VAL189      0.0023
     82  CG2       -6.0050   17.4740   28.8700 C.3   189  VAL189      0.0023
     83  N         -4.9000   15.5640   33.1790 N.am  190  SER190     -0.1936
     84  CA        -5.1220   15.6330   34.6230 C.3   190  SER190      0.2055
     85  C         -4.1950   16.7800   35.0780 C.2   190  SER190      0.2643
     86  O         -4.0900   17.8200   34.3630 O.2   190  SER190     -0.2714
     87  CB        -4.8430   14.2790   35.2700 C.3   190  SER190      0.2130
     88  OG        -4.9970   14.3490   36.6670 O.3   190  SER190     -0.2179
     89  N         -3.4800   16.6120   36.1880 N.am  191  LEU191     -0.1963
     90  CA        -2.6560   17.7200   36.7230 C.3   191  LEU191      0.1728
     91  C         -1.6190   18.1220   35.6940 C.2   191  LEU191      0.2616
     92  O         -0.8280   17.3080   35.2210 O.2   191  LEU191     -0.2715
     93  CB        -1.9880   17.3230   38.0360 C.3   191  LEU191      0.0311
     94  CG        -2.9180   16.9140   39.1820 C.3   191  LEU191      0.0022
     95  CD1       -2.1300   16.6320   40.4560 C.3   191  LEU191      0.0001
     96  CD2       -4.0260   17.9350   39.3780 C.3   191  LEU191      0.0001
     97  N         -1.6310   19.3920   35.3130 N.am  192  LEU192     -0.1964
     98  CA        -0.7650   19.8150   34.2410 C.3   192  LEU192      0.1713
     99  C          0.6660   19.9820   34.8020 C.2   192  LEU192      0.2458
    100  O          0.8350   20.0460   36.0010 O.2   192  LEU192     -0.2730
    101  CB        -1.3100   21.0790   33.6150 C.3   192  LEU192      0.0310
    102  CG        -2.6040   20.7170   32.8720 C.3   192  LEU192      0.0022
    103  CD1       -3.6170   21.8260   32.9150 C.3   192  LEU192      0.0001
    104  CD2       -2.2710   20.2740   31.4410 C.3   192  LEU192      0.0001
    105  N          1.6830   19.9960   33.9370 N.am  193  PRO193     -0.2727
    106  CA         3.0450   20.1320   34.4780 C.3   193  PRO193      0.1402
    107  C          3.2160   21.4660   35.2060 C.2   193  PRO193      0.2269
    108  O          2.6500   22.4910   34.8000 O.2   193  PRO193     -0.2865
    109  CB         3.9540   20.0190   33.2360 C.3   193  PRO193      0.0296
    110  CG         3.0730   19.5620   32.1170 C.3   193  PRO193      0.0237
    111  CD         1.6810   20.0440   32.4600 C.3   193  PRO193      0.0939
    112  N          4.3670   24.2200   33.0570 N.3   196  MET196     -0.1245
    113  CA         3.5670   24.7120   31.9410 C.3   196  MET196      0.1570
    114  C          2.9870   26.0670   32.3180 C.2   196  MET196      0.2261
    115  O          2.4760   26.2530   33.4270 O.2   196  MET196     -0.2867
    116  CB         2.4490   23.7230   31.5590 C.3   196  MET196      0.0387
    117  CG         1.4690   24.2370   30.5050 C.3   196  MET196      0.0595
    118  SD         0.2110   22.9940   30.0540 S.3   196  MET196     -0.1393
    119  CE         1.2170   21.8520   29.1160 C.3   196  MET196      0.0692
    120  N         -5.4410   23.7630   27.0260 N.3   204  TRP204     -0.1241
    121  CA        -5.7540   22.3170   27.1570 C.3   204  TRP204      0.1605
    122  C         -7.0960   22.0650   27.8800 C.2   204  TRP204      0.2264
    123  O         -7.9120   21.2240   27.4510 O.2   204  TRP204     -0.2867
    124  CB        -4.6170   21.6070   27.8460 C.3   204  TRP204      0.0550
    125  CG        -3.5170   21.3060   26.8860 C.ar  204  TRP204      0.0003
    126  CD1       -2.3130   21.9360   26.7810 C.ar  204  TRP204      0.0946
    127  CD2       -3.5470   20.3010   25.8560 C.ar  204  TRP204      0.0152
    128  NE1       -1.5840   21.3820   25.7550 N.ar  204  TRP204     -0.2442
    129  CE2       -2.3120   20.3690   25.1790 C.ar  204  TRP204      0.0810
    130  CE3       -4.4940   19.3500   25.4570 C.ar  204  TRP204      0.0012
    131  CZ2       -1.9950   19.5150   24.1140 C.ar  204  TRP204      0.0191
    132  CZ3       -4.1770   18.4880   24.4040 C.ar  204  TRP204      0.0001
    133  CH2       -2.9280   18.5810   23.7490 C.ar  204  TRP204      0.0015
    134  N        -11.7440   13.8240   25.9920 N.3   246  LEU246     -0.1245
    135  CA       -10.7020   14.5750   25.2260 C.3   246  LEU246      0.1561
    136  C        -10.2200   13.8130   23.9820 C.2   246  LEU246      0.2260
    137  O        -10.0100   14.3870   22.8970 O.2   246  LEU246     -0.2867
    138  CB        -9.4920   14.8920   26.1250 C.3   246  LEU246      0.0270
    139  CG        -8.3020   15.5480   25.4020 C.3   246  LEU246      0.0019
    140  CD1       -8.6360   16.9420   24.8410 C.3   246  LEU246      0.0001
    141  CD2       -7.1210   15.6150   26.3470 C.3   246  LEU246      0.0001
@<TRIPOS>BOND
     1    47    48    2
     2    47    46    1
     3    46    45    1
     4    46    49    1
     5    40    39    2
     6    44    43    1
     7    49    50    1
     8   137   136    2
     9    39    38    1
    10   133   131   ar
    11   133   132   ar
    12   136   135    1
    13   131   129   ar
    14    43    42    1
    15    38    41    1
    16    38    37    1
    17   132   130   ar
    18    41    42    1
    19   140   139    1
    20    51    52    1
    21   129   128   ar
    22   129   127   ar
    23   135   134    1
    24   135   138    1
    25   139   138    1
    26   139   141    1
    27    53    52    1
    28    53    54    2
    29   130   127   ar
    30   128   126   ar
    31   127   125   ar
    32    52    55    1
    33    65    66    2
    34    65    64    1
    35    55    56    1
    36    58    56   ar
    37    58    60   ar
    38    32    31    2
    39    63    64    1
    40   126   125   ar
    41   125   124    1
    42   120   121    1
    43    64    67    1
    44    67    68    1
    45    56    57   ar
    46   121   124    1
    47   121   122    1
    48    60    61   ar
    49    35    34   ar
    50   123   122    2
    51    31    30    1
    52    36    34   ar
    53    34    33    1
    54    33    30    1
    55    68    69    1
    56    57    59   ar
    57    26    28   ar
    58    26    24   ar
    59    61    59   ar
    60    61    62    1
    61    30    29    1
    62    28    27   ar
    63    82    80    1
    64   119   118    1
    65    73    74    1
    66    73    72    1
    67    24    23   ar
    68    69    70    1
    69    74    75    2
    70    74    76   am
    71    27    25   ar
    72   118   117    1
    73    76    77    1
    74    20    19    1
    75    20    21    2
    76    80    77    1
    77    80    81    1
    78    23    25   ar
    79    23    22    1
    80   117   116    1
    81    70    71    1
    82    19    22    1
    83    19    18    1
    84    77    78    1
    85   104   102    1
    86   116   113    1
    87   113   114    1
    88   113   112    1
    89   110   111    1
    90   110   109    1
    91    78    79    2
    92    78    83   am
    93   114   115    2
    94   111   105    1
    95   102   103    1
    96   102   101    1
    97    17    16    1
    98    83    84    1
    99   109   106    1
   100   101    98    1
   101   105   106    1
   102   105    99   am
   103    98    99    1
   104    98    97    1
   105    86    85    2
   106    16    13    1
   107   106   107    1
   108    84    85    1
   109    84    87    1
   110    14    13    1
   111    14    15    2
   112   108   107    2
   113    99   100    2
   114    13    12    1
   115    85    89   am
   116    92    91    2
   117    87    88    1
   118    97    91   am
   119    91    90    1
   120    89    90    1
   121    11     9    1
   122    90    93    1
   123     9    10    1
   124     9     8    2
   125    93    94    1
   126     8     7    1
   127    94    96    1
   128    94    95    1
   129     7     6    1
   130     5     6    1
   131     5     2    1
   132     3     2    1
   133     3     4    2
   134     2     1    1
