@<TRIPOS>MOLECULE
tmp/4cm8C01.pdb
 151 145 0 0 0
SMALL
GASTEIGER

@<TRIPOS>ATOM
      1  N        -36.2540   14.5600   43.8560 N.3    13  ARG13      -0.1245
      2  CA       -37.0970   14.5960   42.6690 C.3    13  ARG13       0.1563
      3  C        -37.9260   13.3070   42.5760 C.2    13  ARG13       0.2260
      4  O        -38.5860   12.9530   43.5580 O.2    13  ARG13      -0.2867
      5  CB       -36.2200   14.9070   41.4500 C.3    13  ARG13       0.0307
      6  CG       -35.6490   16.3230   41.4720 C.3    13  ARG13       0.0489
      7  CD       -34.4830   16.5450   40.5030 C.3    13  ARG13       0.2205
      8  NE       -34.8330   16.1810   39.1230 N.pl3  13  ARG13      -0.0865
      9  CZ       -35.4650   16.9590   38.2640 C.cat  13  ARG13       0.5346
     10  NH1      -35.8380   18.1830   38.6090 N.pl3  13  ARG13       0.1354
     11  NH2      -35.7530   16.4990   37.0420 N.pl3  13  ARG13       0.1354
     12  N        -30.5060    8.1020   36.6400 N.3    94  SER94      -0.1217
     13  CA       -30.3740    8.3580   35.2170 C.3    94  SER94       0.1889
     14  C        -29.5930    9.5990   34.9050 C.2    94  SER94       0.2288
     15  O        -29.8990   10.6800   35.4510 O.2    94  SER94      -0.2866
     16  CB       -31.7970    8.5360   34.6520 C.3    94  SER94       0.2089
     17  OG       -31.7590    8.9640   33.3050 O.3    94  SER94      -0.2183
     18  N        -28.6580   12.3530   32.0390 N.3    96  PHE96      -0.1241
     19  CA       -29.4760   12.9420   31.0400 C.3    96  PHE96       0.1605
     20  C        -28.8340   14.2520   30.5680 C.2    96  PHE96       0.2264
     21  O        -28.7600   15.2310   31.3180 O.2    96  PHE96      -0.2867
     22  CB       -30.8750   13.1780   31.5960 C.3    96  PHE96       0.0534
     23  CG       -31.7900   13.9780   30.6910 C.ar   96  PHE96      -0.0203
     24  CD1      -32.3320   13.4190   29.5390 C.ar   96  PHE96      -0.0042
     25  CD2      -32.1670   15.2740   31.0320 C.ar   96  PHE96      -0.0042
     26  CE1      -33.1690   14.1480   28.7290 C.ar   96  PHE96      -0.0003
     27  CE2      -33.0220   16.0060   30.2330 C.ar   96  PHE96      -0.0003
     28  CZ       -33.5320   15.4310   29.0860 C.ar   96  PHE96      -0.0000
     29  N        -39.2380    6.2430   29.3530 N.3   142  ASP142     -0.1239
     30  CA       -39.4670    7.5930   28.8100 C.3   142  ASP142      0.1674
     31  C        -40.5500    7.5110   27.7350 C.2   142  ASP142      0.2266
     32  O        -40.4040    6.8150   26.7340 O.2   142  ASP142     -0.2867
     33  CB       -38.1690    8.1780   28.2980 C.3   142  ASP142      0.1410
     34  CG       -38.3000    9.6340   27.8280 C.2   142  ASP142      0.3668
     35  OD1      -39.4390   10.0910   27.4620 O.co2 142  ASP142     -0.2456
     36  OD2      -37.2540   10.3170   27.8300 O.co2 142  ASP142     -0.2456
     37  N        -41.4380    9.5140   25.5310 N.3   144  MET144     -0.1245
     38  CA       -41.0720   10.1960   24.2840 C.3   144  MET144      0.1570
     39  C        -39.9470    9.4930   23.5240 C.2   144  MET144      0.2261
     40  O        -39.3840   10.0810   22.6200 O.2   144  MET144     -0.2867
     41  CB       -40.6940   11.6840   24.5620 C.3   144  MET144      0.0387
     42  CG       -41.8070   12.4680   25.2660 C.3   144  MET144      0.0595
     43  SD       -43.3200   12.5000   24.2460 S.3   144  MET144     -0.1393
     44  CE       -42.7910   13.5890   22.9210 C.3   144  MET144      0.0692
     45  N        -40.2260    9.8260   19.8090 N.3   147  GLN147     -0.1231
     46  CA       -40.2500   11.1830   19.3090 C.3   147  GLN147      0.1683
     47  C        -39.2080   11.9610   20.1070 C.2   147  GLN147      0.2434
     48  O        -39.5510   12.8430   20.8680 O.2   147  GLN147     -0.2733
     49  CB       -41.6290   11.7900   19.5680 C.3   147  GLN147      0.0380
     50  CG       -42.7550   11.1780   18.7980 C.3   147  GLN147      0.0905
     51  CD       -43.9600   10.8800   19.6910 C.2   147  GLN147      0.2608
     52  OE1      -44.0180    9.8170   20.3160 O.2   147  GLN147     -0.2717
     53  NE2      -44.9390   11.7910   19.7230 N.am  147  GLN147     -0.0878
     54  N        -37.9470   11.5820   19.9830 N.am  148  PRO148     -0.2729
     55  CA       -36.9660   12.0190   20.9220 C.3   148  PRO148      0.1401
     56  C        -36.6040   13.5130   20.7960 C.2   148  PRO148      0.2269
     57  O        -36.8120   14.1100   19.7270 O.2   148  PRO148     -0.2865
     58  CB       -35.7650   11.1660   20.5560 C.3   148  PRO148      0.0296
     59  CG       -35.9200   10.8600   19.1080 C.3   148  PRO148      0.0237
     60  CD       -37.3840   10.7430   18.9050 C.3   148  PRO148      0.0939
     61  N        -28.7730    9.1420   25.1410 N.3   154  TYR154     -0.1241
     62  CA       -29.8200    9.0700   26.1780 C.3   154  TYR154      0.1605
     63  C        -30.9310    8.2310   25.6180 C.2   154  TYR154      0.2264
     64  O        -31.4140    7.2800   26.2730 O.2   154  TYR154     -0.2867
     65  CB       -30.3200   10.5030   26.5830 C.3   154  TYR154      0.0534
     66  CG       -31.5950   10.4530   27.4160 C.ar  154  TYR154     -0.0201
     67  CD1      -31.5610   10.0670   28.7540 C.ar  154  TYR154     -0.0009
     68  CD2      -32.8320   10.6180   26.8280 C.ar  154  TYR154     -0.0009
     69  CE1      -32.7250    9.9930   29.5070 C.ar  154  TYR154      0.0417
     70  CE2      -33.9990   10.5200   27.5460 C.ar  154  TYR154      0.0417
     71  CZ       -33.9440   10.2140   28.8830 C.ar  154  TYR154      0.1957
     72  OH       -35.0940   10.0800   29.5910 O.3   154  TYR154     -0.2866
     73  N        -32.5220    4.5830   26.9200 N.3   158  LYS158     -0.1245
     74  CA       -33.9370    4.3610   27.2920 C.3   158  LYS158      0.1561
     75  C        -34.5990    3.3240   26.4190 C.2   158  LYS158      0.2260
     76  O        -35.4080    2.5320   26.9000 O.2   158  LYS158     -0.2867
     77  CB       -34.7450    5.6340   27.2820 C.3   158  LYS158      0.0271
     78  CG       -34.3520    6.5580   28.4090 C.3   158  LYS158      0.0035
     79  CD       -34.6120    5.9510   29.7890 C.3   158  LYS158      0.0206
     80  CE       -34.5700    7.0170   30.8630 C.3   158  LYS158      0.1093
     81  NZ       -34.6540    6.5120   32.2490 N.3   158  LYS158     -0.1314
     82  N        -43.5830   11.6590   30.7110 N.3   185  GLY185     -0.1210
     83  CA       -43.3760   12.5200   29.5490 C.3   185  GLY185      0.1956
     84  C        -42.5170   13.6860   29.9990 C.2   185  GLY185      0.2612
     85  O        -41.3040   13.6130   29.9700 O.2   185  GLY185     -0.2717
     86  N        -43.1670   14.7670   30.3890 N.am  186  VAL186     -0.1965
     87  CA       -42.5020   15.8260   31.1320 C.3   186  VAL186      0.1727
     88  C        -43.1060   15.7490   32.5380 C.2   186  VAL186      0.2617
     89  O        -44.3270   15.8430   32.7740 O.2   186  VAL186     -0.2715
     90  CB       -42.6050   17.2240   30.4700 C.3   186  VAL186      0.0290
     91  CG1      -42.1440   17.1680   29.0170 C.3   186  VAL186      0.0023
     92  CG2      -44.0000   17.8030   30.5860 C.3   186  VAL186      0.0023
     93  N        -42.2420   15.4440   33.4670 N.am  187  SER187     -0.1936
     94  CA       -42.5320   15.5750   34.8700 C.3   187  SER187      0.2055
     95  C        -41.5920   16.7140   35.3340 C.2   187  SER187      0.2643
     96  O        -41.4340   17.7500   34.6280 O.2   187  SER187     -0.2714
     97  CB       -42.2820   14.2180   35.5500 C.3   187  SER187      0.2130
     98  OG       -42.4240   14.2940   36.9610 O.3   187  SER187     -0.2179
     99  N        -40.9410   16.5560   36.4770 N.am  188  LEU188     -0.1963
    100  CA       -40.0640   17.6140   36.9720 C.3   188  LEU188      0.1728
    101  C        -38.9780   17.9550   35.9790 C.2   188  LEU188      0.2616
    102  O        -38.1300   17.1390   35.6370 O.2   188  LEU188     -0.2715
    103  CB       -39.4090   17.2130   38.2940 C.3   188  LEU188      0.0311
    104  CG       -40.3580   16.8740   39.4130 C.3   188  LEU188      0.0022
    105  CD1      -39.5100   16.6030   40.6510 C.3   188  LEU188      0.0001
    106  CD2      -41.4100   17.9720   39.6030 C.3   188  LEU188      0.0001
    107  N        -39.0040   19.1930   35.5150 N.am  189  LEU189     -0.1964
    108  CA       -38.0810   19.6140   34.4970 C.3   189  LEU189      0.1713
    109  C        -36.7090   19.7830   35.1290 C.2   189  LEU189      0.2458
    110  O        -36.6170   20.0180   36.3250 O.2   189  LEU189     -0.2730
    111  CB       -38.5970   20.9200   33.8740 C.3   189  LEU189      0.0310
    112  CG       -39.9520   20.6050   33.1900 C.3   189  LEU189      0.0022
    113  CD1      -40.7620   21.8570   32.9340 C.3   189  LEU189      0.0001
    114  CD2      -39.7390   19.8140   31.8930 C.3   189  LEU189      0.0001
    115  N        -35.6390   19.6420   34.3420 N.am  190  PRO190     -0.2727
    116  CA       -34.2950   19.7910   34.8980 C.3   190  PRO190      0.1402
    117  C        -34.1100   21.1300   35.6020 C.2   190  PRO190      0.2269
    118  O        -34.6240   22.1490   35.1330 O.2   190  PRO190     -0.2865
    119  CB       -33.3820   19.7040   33.6600 C.3   190  PRO190      0.0296
    120  CG       -34.2370   19.1620   32.5800 C.3   190  PRO190      0.0237
    121  CD       -35.6120   19.6950   32.8760 C.3   190  PRO190      0.0939
    122  N        -32.7510   23.9410   33.4920 N.3   193  MET193     -0.1245
    123  CA       -33.6210   24.4800   32.4530 C.3   193  MET193      0.1570
    124  C        -34.2080   25.8440   32.8210 C.2   193  MET193      0.2261
    125  O        -34.7190   26.0690   33.9440 O.2   193  MET193     -0.2867
    126  CB       -34.7420   23.4940   32.1110 C.3   193  MET193      0.0387
    127  CG       -35.6490   23.9390   30.9630 C.3   193  MET193      0.0595
    128  SD       -36.9080   22.7170   30.4960 S.3   193  MET193     -0.1393
    129  CE       -35.9520   21.5210   29.5800 C.3   193  MET193      0.0692
    130  N        -42.6660   23.5470   27.4100 N.3   201  TRP201     -0.1241
    131  CA       -42.9700   22.0980   27.5180 C.3   201  TRP201      0.1605
    132  C        -44.3470   21.8760   28.1500 C.2   201  TRP201      0.2264
    133  O        -45.1660   21.0670   27.6440 O.2   201  TRP201     -0.2867
    134  CB       -41.8760   21.3830   28.3150 C.3   201  TRP201      0.0550
    135  CG       -40.6940   21.1140   27.4660 C.ar  201  TRP201      0.0003
    136  CD1      -39.5190   21.7780   27.4750 C.ar  201  TRP201      0.0946
    137  CD2      -40.6050   20.1410   26.4220 C.ar  201  TRP201      0.0152
    138  NE1      -38.6960   21.2810   26.5140 N.ar  201  TRP201     -0.2442
    139  CE2      -39.3310   20.2650   25.8560 C.ar  201  TRP201      0.0810
    140  CE3      -41.4860   19.1850   25.9080 C.ar  201  TRP201      0.0012
    141  CZ2      -38.8960   19.4630   24.8020 C.ar  201  TRP201      0.0191
    142  CZ3      -41.0450   18.3630   24.8720 C.ar  201  TRP201      0.0001
    143  CH2      -39.7540   18.5050   24.3370 C.ar  201  TRP201      0.0015
    144  N        -49.0710   13.7540   26.2030 N.3   243  LEU243     -0.1245
    145  CA       -47.9930   14.4410   25.4550 C.3   243  LEU243      0.1561
    146  C        -47.4970   13.6480   24.2640 C.2   243  LEU243      0.2260
    147  O        -47.3110   14.2170   23.1640 O.2   243  LEU243     -0.2867
    148  CB       -46.7960   14.7420   26.3720 C.3   243  LEU243      0.0270
    149  CG       -45.6520   15.5270   25.6970 C.3   243  LEU243      0.0019
    150  CD1      -46.1000   16.8850   25.1660 C.3   243  LEU243      0.0001
    151  CD2      -44.4320   15.6580   26.6070 C.3   243  LEU243      0.0001
@<TRIPOS>BOND
     1    50    49    1
     2    50    51    1
     3    60    59    1
     4    60    54    1
     5    59    58    1
     6    46    49    1
     7    46    45    1
     8    46    47    1
     9    51    53   am
    10    51    52    2
    11    57    56    2
    12    54    47   am
    13    54    55    1
    14    47    48    2
    15    58    55    1
    16    56    55    1
    17    40    39    2
    18    44    43    1
    19   147   146    2
    20    39    38    1
    21    43    42    1
    22   146   145    1
    23    38    41    1
    24    38    37    1
    25   143   141   ar
    26   143   142   ar
    27    41    42    1
    28   141   139   ar
    29   142   140   ar
    30    61    62    1
    31   150   149    1
    32   145   144    1
    33   145   148    1
    34    63    62    1
    35    63    64    2
    36   149   148    1
    37   149   151    1
    38   139   137   ar
    39   139   138   ar
    40   140   137   ar
    41    62    65    1
    42    75    76    2
    43    75    74    1
    44   137   135   ar
    45   138   136   ar
    46    65    66    1
    47    32    31    2
    48    68    66   ar
    49    68    70   ar
    50    73    74    1
    51    77    74    1
    52    77    78    1
    53   130   131    1
    54    66    67   ar
    55    35    34   ar
    56   135   136   ar
    57   135   134    1
    58   131   132    1
    59   131   134    1
    60    70    71   ar
    61   133   132    2
    62    31    30    1
    63    34    36   ar
    64    34    33    1
    65    33    30    1
    66    78    79    1
    67    26    28   ar
    68    26    24   ar
    69    67    69   ar
    70    30    29    1
    71    71    69   ar
    72    71    72    1
    73    91    90    1
    74    28    27   ar
    75    24    23   ar
    76    83    84    1
    77    83    82    1
    78   129   128    1
    79    79    80    1
    80    85    84    2
    81    84    86   am
    82    27    25   ar
    83    86    87    1
    84    90    92    1
    85    90    87    1
    86   128   127    1
    87    20    19    1
    88    20    21    2
    89    23    25   ar
    90    23    22    1
    91    80    81    1
    92   127   126    1
    93    19    22    1
    94    19    18    1
    95    87    88    1
    96   114   112    1
    97   126   123    1
    98   123   124    1
    99   123   122    1
   100    88    89    2
   101    88    93   am
   102   120   121    1
   103   120   119    1
   104   124   125    2
   105   121   115    1
   106   113   112    1
   107   112   111    1
   108    17    16    1
   109    93    94    1
   110   119   116    1
   111   111   108    1
   112   115   116    1
   113   115   109   am
   114   108   109    1
   115   108   107    1
   116    96    95    2
   117    16    13    1
   118    94    95    1
   119    94    97    1
   120   116   117    1
   121    14    13    1
   122    14    15    2
   123   109   110    2
   124   118   117    2
   125    13    12    1
   126    95    99   am
   127   107   101   am
   128    97    98    1
   129   102   101    2
   130   101   100    1
   131    99   100    1
   132   100   103    1
   133    11     9    1
   134     9    10    1
   135     9     8    2
   136   103   104    1
   137     8     7    1
   138   104   106    1
   139   104   105    1
   140     7     6    1
   141     5     6    1
   142     5     2    1
   143     3     2    1
   144     3     4    2
   145     2     1    1
