@<TRIPOS>MOLECULE
tmp/4cm9D01.pdb
 143 138 0 0 0
SMALL
GASTEIGER

@<TRIPOS>ATOM
      1  N          0.7040  -12.0250   44.9490 N.3    13  ARG13      -0.1245
      2  CA         1.6290  -12.1690   43.8390 C.3    13  ARG13       0.1563
      3  C          2.4400  -10.8850   43.6910 C.2    13  ARG13       0.2260
      4  O          2.9120  -10.3040   44.6820 O.2    13  ARG13      -0.2867
      5  CB         0.8250  -12.5540   42.5960 C.3    13  ARG13       0.0307
      6  CG         0.2840  -13.9740   42.6770 C.3    13  ARG13       0.0489
      7  CD        -0.7540  -14.2640   41.6060 C.3    13  ARG13       0.2205
      8  NE        -0.2480  -14.0490   40.2400 N.pl3  13  ARG13      -0.0865
      9  CZ         0.4080  -14.9540   39.5140 C.cat  13  ARG13       0.5346
     10  NH1        0.7030  -16.1550   40.0200 N.pl3  13  ARG13       0.1354
     11  NH2        0.8200  -14.6510   38.2810 N.pl3  13  ARG13       0.1354
     12  N         -4.7130   -6.4250   37.0190 N.3    94  SER94      -0.1217
     13  CA        -4.8670   -6.8100   35.6470 C.3    94  SER94       0.1889
     14  C         -5.6820   -8.0840   35.4880 C.2    94  SER94       0.2288
     15  O         -5.3530   -9.0750   36.1220 O.2    94  SER94      -0.2866
     16  CB        -3.4520   -7.0650   35.0890 C.3    94  SER94       0.2089
     17  OG        -3.4680   -7.7840   33.8840 O.3    94  SER94      -0.2183
     18  N         -6.4070  -11.1530   32.9660 N.3    96  PHE96      -0.1241
     19  CA        -5.6040  -11.8320   31.9950 C.3    96  PHE96       0.1605
     20  C         -6.2340  -13.1740   31.6500 C.2    96  PHE96       0.2264
     21  O         -6.1930  -14.1010   32.4630 O.2    96  PHE96      -0.2867
     22  CB        -4.2130  -12.0610   32.5960 C.3    96  PHE96       0.0534
     23  CG        -3.3110  -12.9300   31.7530 C.ar   96  PHE96      -0.0203
     24  CD1       -2.7410  -12.4350   30.5870 C.ar   96  PHE96      -0.0042
     25  CD2       -3.0070  -14.2210   32.1400 C.ar   96  PHE96      -0.0042
     26  CE1       -1.9060  -13.2090   29.8150 C.ar   96  PHE96      -0.0003
     27  CE2       -2.1590  -15.0060   31.3880 C.ar   96  PHE96      -0.0003
     28  CZ        -1.6020  -14.5060   30.2110 C.ar   96  PHE96      -0.0000
     29  N          4.1950   -5.1510   29.9760 N.3   142  ASP142     -0.1239
     30  CA         4.3390   -6.5230   29.5220 C.3   142  ASP142      0.1674
     31  C          5.5050   -6.4800   28.5250 C.2   142  ASP142      0.2266
     32  O          5.4690   -5.7260   27.5150 O.2   142  ASP142     -0.2867
     33  CB         2.9920   -6.8730   28.8920 C.3   142  ASP142      0.1410
     34  CG         2.9080   -8.2410   28.3610 C.2   142  ASP142      0.3668
     35  OD1        3.9490   -8.8520   28.1080 O.co2 142  ASP142     -0.2456
     36  OD2        1.7600   -8.6830   28.1240 O.co2 142  ASP142     -0.2456
     37  N          6.4960   -8.6840   26.4880 N.3   144  MET144     -0.1245
     38  CA         6.1840   -9.4530   25.2770 C.3   144  MET144      0.1570
     39  C          5.0770   -8.8010   24.4330 C.2   144  MET144      0.2261
     40  O          4.4630   -9.4160   23.5810 O.2   144  MET144     -0.2867
     41  CB         5.7070  -10.8380   25.7170 C.3   144  MET144      0.0387
     42  CG         6.7460  -11.6040   26.5210 C.3   144  MET144      0.0595
     43  SD         8.2550  -11.8390   25.5720 S.3   144  MET144     -0.1393
     44  CE         7.6760  -13.0280   24.3910 C.3   144  MET144      0.0692
     45  N          5.1790   -9.4280   20.8710 N.3   147  GLN147     -0.1231
     46  CA         5.1470  -10.8620   20.5290 C.3   147  GLN147      0.1683
     47  C          4.0690  -11.5240   21.3920 C.2   147  GLN147      0.2434
     48  O          4.3540  -12.2630   22.3220 O.2   147  GLN147     -0.2733
     49  CB         6.4910  -11.5340   20.7270 C.3   147  GLN147      0.0380
     50  CG         7.6380  -10.8730   19.9610 C.3   147  GLN147      0.0905
     51  CD         8.7650  -10.4230   20.9000 C.2   147  GLN147      0.2608
     52  OE1        8.6690   -9.3750   21.5430 O.2   147  GLN147     -0.2717
     53  NE2        9.8270  -11.2360   21.0020 N.am  147  GLN147     -0.0878
     54  N          2.8170  -11.1840   21.1180 N.am  148  PRO148     -0.2729
     55  CA         1.7540  -11.5250   22.0590 C.3   148  PRO148      0.1401
     56  C          1.3630  -13.0080   22.1050 C.2   148  PRO148      0.2269
     57  O          1.6090  -13.7360   21.1490 O.2   148  PRO148     -0.2865
     58  CB         0.5880  -10.6970   21.5580 C.3   148  PRO148      0.0296
     59  CG         0.8640  -10.4560   20.1170 C.3   148  PRO148      0.0237
     60  CD         2.3470  -10.3840   19.9850 C.3   148  PRO148      0.0939
     61  N         -6.3070   -8.5050   25.9220 N.3   154  TYR154     -0.1241
     62  CA        -5.2880   -8.2860   26.9270 C.3   154  TYR154      0.1605
     63  C         -4.1200   -7.4820   26.3200 C.2   154  TYR154      0.2264
     64  O         -3.6430   -6.5040   26.9220 O.2   154  TYR154     -0.2867
     65  CB        -4.7810   -9.6170   27.4710 C.3   154  TYR154      0.0534
     66  CG        -3.5000   -9.4830   28.2550 C.ar  154  TYR154     -0.0201
     67  CD1       -3.5080   -9.1390   29.5820 C.ar  154  TYR154     -0.0009
     68  CD2       -2.2790   -9.7290   27.6550 C.ar  154  TYR154     -0.0009
     69  CE1       -2.3160   -8.9440   30.2700 C.ar  154  TYR154      0.0417
     70  CE2       -1.0930   -9.5840   28.3410 C.ar  154  TYR154      0.0417
     71  CZ        -1.1110   -9.1660   29.6450 C.ar  154  TYR154      0.1957
     72  OH         0.0920   -9.0510   30.3320 O.3   154  TYR154     -0.2866
     73  N         -2.5720   -3.7900   27.3040 N.3   158  LYS158     -0.1245
     74  CA        -1.1720   -3.5370   27.6670 C.3   158  LYS158      0.1561
     75  C         -0.5190   -2.5550   26.7040 C.2   158  LYS158      0.2260
     76  O          0.2740   -1.7260   27.0920 O.2   158  LYS158     -0.2867
     77  CB        -0.3960   -4.8080   27.7470 C.3   158  LYS158      0.0271
     78  CG        -0.7810   -5.6830   28.9310 C.3   158  LYS158      0.0035
     79  CD        -0.6750   -4.9080   30.2250 C.3   158  LYS158      0.0206
     80  CE        -0.6320   -5.8630   31.4080 C.3   158  LYS158      0.1093
     81  NZ        -0.6920   -5.1280   32.7130 N.3   158  LYS158     -0.1314
     82  N          8.4880  -10.2650   31.9910 N.3   185  GLY185     -0.1210
     83  CA         8.4000  -11.2680   30.9530 C.3   185  GLY185      0.1956
     84  C          7.5340  -12.4290   31.4580 C.2   185  GLY185      0.2612
     85  O          6.3060  -12.4570   31.2810 O.2   185  GLY185     -0.2717
     86  N          8.1830  -13.4000   32.0670 N.am  186  VAL186     -0.1965
     87  CA         7.4530  -14.3450   32.8860 C.3   186  VAL186      0.1727
     88  C          8.0020  -14.2550   34.2780 C.2   186  VAL186      0.2617
     89  O          9.2380  -14.3190   34.5240 O.2   186  VAL186     -0.2715
     90  CB         7.5080  -15.7910   32.3810 C.3   186  VAL186      0.0290
     91  CG1        6.8300  -15.8870   31.0290 C.3   186  VAL186      0.0023
     92  CG2        8.9320  -16.3030   32.3300 C.3   186  VAL186      0.0023
     93  N          7.0600  -14.0420   35.1670 N.am  187  SER187     -0.1936
     94  CA         7.3180  -14.0540   36.5880 C.3   187  SER187      0.2055
     95  C          6.3650  -15.1280   37.1570 C.2   187  SER187      0.2643
     96  O          6.1720  -16.1760   36.5170 O.2   187  SER187     -0.2714
     97  CB         7.0890  -12.6680   37.1420 C.3   187  SER187      0.2130
     98  OG         7.4490  -12.6060   38.5080 O.3   187  SER187     -0.2179
     99  N          5.8060  -14.9120   38.3320 N.am  188  LEU188     -0.1963
    100  CA         4.9110  -15.9100   38.9300 C.3   188  LEU188      0.1728
    101  C          3.9340  -16.4440   37.9060 C.2   188  LEU188      0.2616
    102  O          3.2030  -15.6680   37.2420 O.2   188  LEU188     -0.2715
    103  CB         4.1310  -15.3000   40.0540 C.3   188  LEU188      0.0311
    104  CG         5.0020  -14.6990   41.1270 C.3   188  LEU188      0.0022
    105  CD1        4.1480  -14.2510   42.3190 C.3   188  LEU188      0.0001
    106  CD2        6.0580  -15.7250   41.5330 C.3   188  LEU188      0.0001
    107  N          3.9360  -17.7660   37.7570 N.am  189  LEU189     -0.1964
    108  CA         3.1880  -18.4090   36.6890 C.3   189  LEU189      0.1713
    109  C          1.7030  -18.5510   37.0850 C.2   189  LEU189      0.2458
    110  O          1.4020  -18.7930   38.2370 O.2   189  LEU189     -0.2730
    111  CB         3.8670  -19.7480   36.3180 C.3   189  LEU189      0.0310
    112  CG         5.3100  -19.5100   35.7920 C.3   189  LEU189      0.0022
    113  CD1        6.3220  -20.5720   36.1800 C.3   189  LEU189      0.0001
    114  CD2        5.2760  -19.3400   34.2860 C.3   189  LEU189      0.0001
    115  N          0.7750  -18.3700   36.1270 N.am  190  PRO190     -0.2727
    116  CA        -0.6310  -18.4140   36.5290 C.3   190  PRO190      0.1402
    117  C         -1.0680  -19.8000   37.0090 C.2   190  PRO190      0.2269
    118  O         -0.5310  -20.8400   36.5560 O.2   190  PRO190     -0.2865
    119  CB        -1.4060  -18.0070   35.2420 C.3   190  PRO190      0.0296
    120  CG        -0.3780  -17.5720   34.2420 C.3   190  PRO190      0.0237
    121  CD         0.9020  -18.2590   34.6600 C.3   190  PRO190      0.0939
    122  N         -2.5290  -22.3780   34.2380 N.3   193  MET193     -0.1245
    123  CA        -1.6490  -22.9160   33.1910 C.3   193  MET193      0.1570
    124  C         -1.1290  -24.3190   33.5220 C.2   193  MET193      0.2261
    125  O         -0.8740  -24.6490   34.6960 O.2   193  MET193     -0.2867
    126  CB        -0.4660  -21.9750   32.9900 C.3   193  MET193      0.0387
    127  CG         0.3910  -22.2980   31.7780 C.3   193  MET193      0.0595
    128  SD         1.8530  -21.2480   31.7210 S.3   193  MET193     -0.1393
    129  CE         2.4380  -21.5160   33.3950 C.3   193  MET193      0.0692
    130  N          7.9170  -22.4380   29.4330 N.3   201  TRP201     -0.1241
    131  CA         8.1750  -21.0010   29.6330 C.3   201  TRP201      0.1605
    132  C          9.5320  -20.7660   30.2930 C.2   201  TRP201      0.2264
    133  O         10.3160  -19.9200   29.8500 O.2   201  TRP201     -0.2867
    134  CB         7.0380  -20.3250   30.4190 C.3   201  TRP201      0.0550
    135  CG         5.8740  -19.9650   29.5140 C.ar  201  TRP201      0.0003
    136  CD1        4.6080  -20.4960   29.5300 C.ar  201  TRP201      0.0946
    137  CD2        5.8960  -19.0290   28.4140 C.ar  201  TRP201      0.0152
    138  NE1        3.8470  -19.9420   28.5180 N.ar  201  TRP201     -0.2442
    139  CE2        4.6100  -19.0400   27.8240 C.ar  201  TRP201      0.0810
    140  CE3        6.8740  -18.1780   27.8780 C.ar  201  TRP201      0.0012
    141  CZ2        4.2770  -18.2190   26.7330 C.ar  201  TRP201      0.0191
    142  CZ3        6.5390  -17.3620   26.7810 C.ar  201  TRP201      0.0001
    143  CH2        5.2520  -17.3940   26.2260 C.ar  201  TRP201      0.0015
@<TRIPOS>BOND
     1    50    49    1
     2    50    51    1
     3    60    59    1
     4    60    54    1
     5    59    58    1
     6    46    49    1
     7    46    45    1
     8    46    47    1
     9    51    53   am
    10    51    52    2
    11    54    47   am
    12    54    55    1
    13    57    56    2
    14    47    48    2
    15    58    55    1
    16    55    56    1
    17    40    39    2
    18    44    43    1
    19    39    38    1
    20    38    41    1
    21    38    37    1
    22    43    42    1
    23    41    42    1
    24    61    62    1
    25   143   141   ar
    26   143   142   ar
    27    63    64    2
    28    63    62    1
    29    75    76    2
    30    75    74    1
    31   141   139   ar
    32   142   140   ar
    33    62    65    1
    34    73    74    1
    35    65    66    1
    36    32    31    2
    37    68    66   ar
    38    68    70   ar
    39    74    77    1
    40    77    78    1
    41   139   137   ar
    42   139   138   ar
    43   140   137   ar
    44    35    34   ar
    45    36    34   ar
    46    66    67   ar
    47    70    71   ar
    48    34    33    1
    49   137   135   ar
    50   138   136   ar
    51    31    30    1
    52    33    30    1
    53    78    79    1
    54   130   131    1
    55   135   136   ar
    56   135   134    1
    57    30    29    1
    58    67    69   ar
    59   131   132    1
    60   131   134    1
    61    71    69   ar
    62    71    72    1
    63    26    28   ar
    64    26    24   ar
    65   133   132    2
    66    28    27   ar
    67    79    80    1
    68    24    23   ar
    69    83    84    1
    70    83    82    1
    71    91    90    1
    72    85    84    2
    73    27    25   ar
    74    80    81    1
    75    84    86   am
    76    20    19    1
    77    20    21    2
    78   128   127    1
    79   128   129    1
    80    23    25   ar
    81    23    22    1
    82   127   126    1
    83    19    22    1
    84    19    18    1
    85    86    87    1
    86    92    90    1
    87    90    87    1
    88    87    88    1
    89   126   123    1
    90   123   124    1
    91   123   122    1
    92   124   125    2
    93    17    16    1
    94   120   121    1
    95   120   119    1
    96    88    89    2
    97    88    93   am
    98   114   112    1
    99   121   115    1
   100    16    13    1
   101    93    94    1
   102   119   116    1
   103    14    13    1
   104    14    15    2
   105    13    12    1
   106   112   113    1
   107   112   111    1
   108   115   116    1
   109   115   109   am
   110   111   108    1
   111    96    95    2
   112   116   117    1
   113   118   117    2
   114    94    97    1
   115    94    95    1
   116   108   109    1
   117   108   107    1
   118   109   110    2
   119    97    98    1
   120    95    99   am
   121   102   101    2
   122   107   101   am
   123   101   100    1
   124    11     9    1
   125    99   100    1
   126   100   103    1
   127     9    10    1
   128     9     8    2
   129   103   104    1
   130     8     7    1
   131   104   106    1
   132   104   105    1
   133     7     6    1
   134     5     6    1
   135     5     2    1
   136     3     2    1
   137     3     4    2
   138     2     1    1
