@<TRIPOS>MOLECULE
tmp/4cmbB01.pdb
 119 115 0 0 0
SMALL
GASTEIGER

@<TRIPOS>ATOM
      1  N        -19.2940  -12.1250   -7.3540 N.3    13  ARG13      -0.1245
      2  CA       -20.2600  -12.1810   -6.2490 C.3    13  ARG13       0.1563
      3  C        -21.0490  -10.8770   -6.0650 C.2    13  ARG13       0.2260
      4  O        -21.6170  -10.3420   -7.0360 O.2    13  ARG13      -0.2867
      5  CB       -19.5480  -12.6120   -4.9550 C.3    13  ARG13       0.0307
      6  CG       -18.8110  -13.9810   -5.0310 C.3    13  ARG13       0.0489
      7  CD       -17.8140  -14.1960   -3.8760 C.3    13  ARG13       0.2205
      8  NE       -18.4730  -13.9510   -2.6000 N.pl3  13  ARG13      -0.0865
      9  CZ       -19.3880  -14.7490   -2.0480 C.cat  13  ARG13       0.5346
     10  NH1      -19.7220  -15.9290   -2.6010 N.pl3  13  ARG13       0.1354
     11  NH2      -19.9910  -14.3800   -0.9140 N.pl3  13  ARG13       0.1354
     12  N        -13.7200   -6.5430    0.7310 N.3    94  SER94      -0.1217
     13  CA       -13.6020   -6.9260    2.1260 C.3    94  SER94       0.1889
     14  C        -12.8030   -8.1880    2.3200 C.2    94  SER94       0.2288
     15  O        -13.1280   -9.1950    1.7190 O.2    94  SER94      -0.2866
     16  CB       -15.0230   -7.0960    2.7150 C.3    94  SER94       0.2089
     17  OG       -15.0500   -7.6670    4.0320 O.3    94  SER94      -0.2183
     18  N        -11.9130  -11.2160    4.8590 N.3    96  PHE96      -0.1241
     19  CA       -12.7570  -11.9070    5.7830 C.3    96  PHE96       0.1605
     20  C        -12.0680  -13.2020    6.1340 C.2    96  PHE96       0.2264
     21  O        -12.0090  -14.0780    5.2910 O.2    96  PHE96      -0.2867
     22  CB       -14.1160  -12.2190    5.1370 C.3    96  PHE96       0.0534
     23  CG       -15.0280  -13.0800    5.9900 C.ar   96  PHE96      -0.0203
     24  CD1      -15.7630  -12.5280    7.0260 C.ar   96  PHE96      -0.0042
     25  CD2      -15.1500  -14.4540    5.7490 C.ar   96  PHE96      -0.0042
     26  CE1      -16.6010  -13.3130    7.8160 C.ar   96  PHE96      -0.0003
     27  CE2      -15.9850  -15.2490    6.5210 C.ar   96  PHE96      -0.0003
     28  CZ       -16.7070  -14.6920    7.5650 C.ar   96  PHE96      -0.0000
     29  N        -22.5780   -5.2790    7.8020 N.3   143  ASP143     -0.1239
     30  CA       -22.8200   -6.6590    8.1820 C.3   143  ASP143      0.1674
     31  C        -23.9010   -6.6640    9.2770 C.2   143  ASP143      0.2266
     32  O        -23.7230   -6.1060   10.3760 O.2   143  ASP143     -0.2867
     33  CB       -21.5480   -7.3310    8.6860 C.3   143  ASP143      0.1410
     34  CG       -21.7380   -8.8440    8.9940 C.2   143  ASP143      0.3668
     35  OD1      -22.8720   -9.3110    9.2720 O.co2 143  ASP143     -0.2456
     36  OD2      -20.7280   -9.5910    8.9530 O.co2 143  ASP143     -0.2456
     37  N        -12.0520   -8.5500   11.8310 N.3   156  TYR156     -0.1241
     38  CA       -13.1280   -8.3800   10.8380 C.3   156  TYR156      0.1605
     39  C        -14.2970   -7.5710   11.4460 C.2   156  TYR156      0.2264
     40  O        -14.7930   -6.6000   10.8440 O.2   156  TYR156     -0.2867
     41  CB       -13.6560   -9.7310   10.3230 C.3   156  TYR156      0.0534
     42  CG       -14.9410   -9.6010    9.5580 C.ar  156  TYR156     -0.0201
     43  CD1      -14.9450   -9.1320    8.2720 C.ar  156  TYR156     -0.0009
     44  CD2      -16.1650   -9.8470   10.1670 C.ar  156  TYR156     -0.0009
     45  CE1      -16.1360   -8.9560    7.5640 C.ar  156  TYR156      0.0417
     46  CE2      -17.3550   -9.7020    9.4760 C.ar  156  TYR156      0.0417
     47  CZ       -17.3260   -9.2530    8.1760 C.ar  156  TYR156      0.1957
     48  OH       -18.4600   -9.0290    7.5020 O.3   156  TYR156     -0.2866
     49  N        -15.8120   -3.8970   10.4630 N.3   160  LYS160     -0.1245
     50  CA       -17.2170   -3.6030   10.1970 C.3   160  LYS160      0.1561
     51  C        -17.8500   -2.6230   11.1720 C.2   160  LYS160      0.2260
     52  O        -18.6140   -1.7940   10.7840 O.2   160  LYS160     -0.2867
     53  CB       -18.0380   -4.8970   10.1530 C.3   160  LYS160      0.0271
     54  CG       -17.7970   -5.7250    8.9280 C.3   160  LYS160      0.0035
     55  CD       -17.9280   -4.9540    7.6080 C.3   160  LYS160      0.0206
     56  CE       -17.8790   -5.9050    6.4050 C.3   160  LYS160      0.1093
     57  NZ       -17.8380   -5.1870    5.1020 N.3   160  LYS160     -0.1314
     58  N        -26.9650  -10.3510    5.7550 N.3   187  GLY187     -0.1210
     59  CA       -26.7420  -11.3740    6.7740 C.3   187  GLY187      0.1956
     60  C        -25.8940  -12.5500    6.2840 C.2   187  GLY187      0.2612
     61  O        -24.7070  -12.6670    6.5810 O.2   187  GLY187     -0.2717
     62  N        -26.5370  -13.4530    5.5830 N.am  188  VAL188     -0.1965
     63  CA       -25.8570  -14.4590    4.7770 C.3   188  VAL188      0.1727
     64  C        -26.3650  -14.3390    3.3600 C.2   188  VAL188      0.2617
     65  O        -27.5800  -14.3570    3.1040 O.2   188  VAL188     -0.2715
     66  CB       -25.9950  -15.8940    5.3470 C.3   188  VAL188      0.0290
     67  CG1      -27.4210  -16.3630    5.4550 C.3   188  VAL188      0.0023
     68  CG2      -25.2190  -16.8820    4.5130 C.3   188  VAL188      0.0023
     69  N        -25.4090  -14.1370    2.4600 N.am  189  SER189     -0.1936
     70  CA       -25.6420  -14.0300    1.0270 C.3   189  SER189      0.2055
     71  C        -24.6040  -14.8920    0.2830 C.2   189  SER189      0.2643
     72  O        -23.4310  -15.0010    0.7240 O.2   189  SER189     -0.2714
     73  CB       -25.5060  -12.5790    0.6030 C.3   189  SER189      0.2130
     74  OG       -25.7070  -12.4200   -0.8210 O.3   189  SER189     -0.2179
     75  N        -25.0350  -15.4870   -0.8320 N.am  190  LEU190     -0.1963
     76  CA       -24.1710  -16.2010   -1.7610 C.3   190  LEU190      0.1728
     77  C        -23.0970  -16.9460   -1.0180 C.2   190  LEU190      0.2616
     78  O        -22.0210  -16.4170   -0.7500 O.2   190  LEU190     -0.2715
     79  CB       -23.5520  -15.1990   -2.7350 C.3   190  LEU190      0.0311
     80  CG       -23.2240  -15.6880   -4.1370 C.3   190  LEU190      0.0022
     81  CD1      -24.4550  -16.2810   -4.7960 C.3   190  LEU190      0.0001
     82  CD2      -22.6540  -14.5520   -4.9820 C.3   190  LEU190      0.0001
     83  N        -23.3740  -18.1720   -0.6280 N.am  191  LEU191     -0.1964
     84  CA       -22.3760  -18.8990    0.1610 C.3   191  LEU191      0.1713
     85  C        -21.2450  -19.3710   -0.7510 C.2   191  LEU191      0.2458
     86  O        -21.4250  -19.4370   -1.9530 O.2   191  LEU191     -0.2730
     87  CB       -23.0360  -20.0370    0.9250 C.3   191  LEU191      0.0310
     88  CG       -23.9790  -19.4620    1.9920 C.3   191  LEU191      0.0022
     89  CD1      -25.1830  -20.3540    2.1870 C.3   191  LEU191      0.0001
     90  CD2      -23.1930  -19.2550    3.2800 C.3   191  LEU191      0.0001
     91  N        -20.0710  -19.6520   -0.1900 N.am  192  PRO192     -0.2727
     92  CA       -18.9590  -20.1190   -1.0140 C.3   192  PRO192      0.1402
     93  C        -19.3170  -21.3370   -1.8770 C.2   192  PRO192      0.2269
     94  O        -20.0320  -22.2270   -1.4250 O.2   192  PRO192     -0.2865
     95  CB       -17.9300  -20.5160    0.0200 C.3   192  PRO192      0.0296
     96  CG       -18.2330  -19.6610    1.1960 C.3   192  PRO192      0.0237
     97  CD       -19.7110  -19.5780    1.2320 C.3   192  PRO192      0.0939
     98  N        -18.1010  -24.5370   -0.2880 N.3   195  MET195     -0.1245
     99  CA       -18.7640  -25.0120    0.9310 C.3   195  MET195      0.1570
    100  C        -19.7790  -26.1350    0.6260 C.2   195  MET195      0.2261
    101  O        -20.6540  -25.9880   -0.2340 O.2   195  MET195     -0.2867
    102  CB       -19.5030  -23.8410    1.6260 C.3   195  MET195      0.0387
    103  CG       -20.3330  -24.2490    2.8430 C.3   195  MET195      0.0595
    104  SD       -21.1500  -22.8310    3.6600 S.3   195  MET195     -0.1393
    105  CE       -19.7220  -22.1910    4.5860 C.3   195  MET195      0.0692
    106  N        -26.6030  -22.7510    7.5900 N.3   203  TRP203     -0.1241
    107  CA       -26.8280  -21.3180    7.5550 C.3   203  TRP203      0.1605
    108  C        -28.2420  -21.0830    7.0960 C.2   203  TRP203      0.2264
    109  O        -28.9700  -20.3060    7.6800 O.2   203  TRP203     -0.2867
    110  CB       -25.8280  -20.6100    6.6170 C.3   203  TRP203      0.0550
    111  CG       -24.4670  -20.5130    7.2230 C.ar  203  TRP203      0.0003
    112  CD1      -23.3600  -21.2210    6.8640 C.ar  203  TRP203      0.0946
    113  CD2      -24.0820  -19.7030    8.3390 C.ar  203  TRP203      0.0152
    114  NE1      -22.3020  -20.8950    7.6820 N.ar  203  TRP203     -0.2442
    115  CE2      -22.7150  -19.9690    8.5980 C.ar  203  TRP203      0.0810
    116  CE3      -24.7600  -18.7830    9.1530 C.ar  203  TRP203      0.0012
    117  CZ2      -22.0070  -19.3450    9.6350 C.ar  203  TRP203      0.0191
    118  CZ3      -24.0500  -18.1600   10.2000 C.ar  203  TRP203      0.0001
    119  CH2      -22.6880  -18.4480   10.4220 C.ar  203  TRP203      0.0015
@<TRIPOS>BOND
     1     1     2    1
     2     4     3    2
     3     2     3    1
     4     2     5    1
     5     6     5    1
     6     6     7    1
     7    82    80    1
     8    81    80    1
     9    80    79    1
    10     7     8    1
    11    79    76    1
    12    10     9    1
    13     8     9    2
    14     9    11    1
    15    86    85    2
    16    93    94    2
    17    93    92    1
    18    76    77    1
    19    76    75    1
    20    77    78    2
    21    77    83   am
    22    92    91    1
    23    92    95    1
    24    75    71   am
    25    74    73    1
    26    85    91   am
    27    85    84    1
    28    83    84    1
    29    98    99    1
    30   101   100    2
    31    91    97    1
    32    95    96    1
    33    84    87    1
    34    71    72    2
    35    71    70    1
    36    73    70    1
    37   100    99    1
    38    12    13    1
    39    87    88    1
    40    99   102    1
    41    70    69    1
    42    96    97    1
    43   102   103    1
    44    15    14    2
    45    88    89    1
    46    88    90    1
    47    13    14    1
    48    13    16    1
    49    69    64   am
    50    16    17    1
    51   103   104    1
    52    65    64    2
    53    64    63    1
    54   104   105    1
    55    68    66    1
    56    63    66    1
    57    63    62    1
    58    18    19    1
    59    57    56    1
    60    22    19    1
    61    22    23    1
    62    21    20    2
    63    66    67    1
    64    62    60   am
    65    25    23   ar
    66    25    27   ar
    67    58    59    1
    68    19    20    1
    69    23    24   ar
    70    60    61    2
    71    60    59    1
    72    56    55    1
    73    27    28   ar
    74   110   111    1
    75   110   107    1
    76   112   111   ar
    77   112   114   ar
    78    24    26   ar
    79   108   107    1
    80   108   109    2
    81   111   113   ar
    82    48    47    1
    83   107   106    1
    84    45    47   ar
    85    45    43   ar
    86    28    26   ar
    87    55    54    1
    88   114   115   ar
    89    29    30    1
    90    47    46   ar
    91    30    33    1
    92    30    31    1
    93    43    42   ar
    94   113   115   ar
    95   113   116   ar
    96   115   117   ar
    97    33    34    1
    98    54    53    1
    99    36    34   ar
   100    34    35   ar
   101   116   118   ar
   102    31    32    2
   103    46    44   ar
   104    42    44   ar
   105    42    41    1
   106   117   119   ar
   107    53    50    1
   108    50    49    1
   109    50    51    1
   110   118   119   ar
   111    41    38    1
   112    52    51    2
   113    38    39    1
   114    38    37    1
   115    40    39    2
