@<TRIPOS>MOLECULE
tmp/4cmcC01.pdb
 133 127 0 0 0
SMALL
GASTEIGER

@<TRIPOS>ATOM
      1  N         -0.6010  -14.7270   44.0570 N.3    13  ARG13      -0.1245
      2  CA         0.2870  -14.6870   42.9050 C.3    13  ARG13       0.1563
      3  C          1.1230  -13.3990   42.8990 C.2    13  ARG13       0.2260
      4  O          1.6830  -13.0110   43.9350 O.2    13  ARG13      -0.2867
      5  CB        -0.5110  -14.9330   41.5780 C.3    13  ARG13       0.0307
      6  CG        -1.2450  -16.2800   41.5740 C.3    13  ARG13       0.0489
      7  CD        -2.0880  -16.6330   40.3710 C.3    13  ARG13       0.2205
      8  NE        -1.4480  -16.2900   39.1080 N.pl3  13  ARG13      -0.0865
      9  CZ        -0.6270  -17.0600   38.4100 C.cat  13  ARG13       0.5346
     10  NH1       -0.3210  -18.3000   38.8080 N.pl3  13  ARG13       0.1354
     11  NH2       -0.1060  -16.5780   37.2800 N.pl3  13  ARG13       0.1354
     12  N         -6.2460   -8.4010   36.6530 N.3    94  SER94      -0.1217
     13  CA        -6.3570   -8.6210   35.2400 C.3    94  SER94       0.1889
     14  C         -7.1340   -9.8680   34.9380 C.2    94  SER94       0.2288
     15  O         -6.8010  -10.9430   35.4200 O.2    94  SER94      -0.2866
     16  CB        -4.9380   -8.7430   34.6580 C.3    94  SER94       0.2089
     17  OG        -5.0050   -9.2860   33.3510 O.3    94  SER94      -0.2183
     18  N         -7.9390  -12.5800   32.0740 N.3    96  PHE96      -0.1241
     19  CA        -7.1410  -13.2050   31.0160 C.3    96  PHE96       0.1605
     20  C         -7.7960  -14.5310   30.6020 C.2    96  PHE96       0.2264
     21  O         -7.7910  -15.5090   31.3900 O.2    96  PHE96      -0.2867
     22  CB        -5.7380  -13.4750   31.5540 C.3    96  PHE96       0.0534
     23  CG        -4.8400  -14.2600   30.6590 C.ar   96  PHE96      -0.0203
     24  CD1       -4.1710  -13.6720   29.5860 C.ar   96  PHE96      -0.0042
     25  CD2       -4.5690  -15.5860   30.9480 C.ar   96  PHE96      -0.0042
     26  CE1       -3.2940  -14.4070   28.7990 C.ar   96  PHE96      -0.0003
     27  CE2       -3.6960  -16.3260   30.1700 C.ar   96  PHE96      -0.0003
     28  CZ        -3.0570  -15.7490   29.0830 C.ar   96  PHE96      -0.0000
     29  N          2.6830   -6.3780   29.7410 N.3   142  ASP142     -0.1239
     30  CA         2.9300   -7.7110   29.1850 C.3   142  ASP142      0.1674
     31  C          4.0620   -7.5890   28.1730 C.2   142  ASP142      0.2266
     32  O          3.9850   -6.8220   27.2040 O.2   142  ASP142     -0.2867
     33  CB         1.6530   -8.2380   28.5460 C.3   142  ASP142      0.1410
     34  CG         1.7470   -9.7040   28.1340 C.2   142  ASP142      0.3668
     35  OD1        2.8670  -10.2090   27.7740 O.co2 142  ASP142     -0.2456
     36  OD2        0.6820  -10.3370   28.1770 O.co2 142  ASP142     -0.2456
     37  N          5.0280   -9.6300   26.0090 N.3   144  MET144     -0.1245
     38  CA         4.7010  -10.2520   24.7160 C.3   144  MET144      0.1570
     39  C          3.5760   -9.5200   23.9750 C.2   144  MET144      0.2261
     40  O          2.9350  -10.0790   23.0760 O.2   144  MET144     -0.2867
     41  CB         4.2490  -11.7010   24.9060 C.3   144  MET144      0.0387
     42  CG         5.2410  -12.6100   25.6190 C.3   144  MET144      0.0595
     43  SD         6.7600  -12.7350   24.6340 S.3   144  MET144     -0.1393
     44  CE         6.1340  -13.6740   23.2420 C.3   144  MET144      0.0692
     45  N         -0.6690  -13.9240   22.0590 N.3   149  CYS149     -0.1235
     46  CA        -1.2070  -15.2830   21.9890 C.3   149  CYS149      0.1677
     47  C         -2.3930  -15.3480   21.0410 C.2   149  CYS149      0.2270
     48  O         -3.1850  -14.4300   20.9430 O.2   149  CYS149     -0.2867
     49  CB        -1.6090  -15.8000   23.3480 C.3   149  CYS149      0.0956
     50  SG        -0.2750  -15.7280   24.5330 S.3   149  CYS149     -0.0801
     51  N         -7.7790   -9.3080   25.3520 N.3   155  TYR155     -0.1241
     52  CA        -6.7690   -9.2010   26.3980 C.3   155  TYR155      0.1605
     53  C         -5.6310   -8.3520   25.8450 C.2   155  TYR155      0.2264
     54  O         -5.1430   -7.4230   26.5260 O.2   155  TYR155     -0.2867
     55  CB        -6.2490  -10.5560   26.8930 C.3   155  TYR155      0.0534
     56  CG        -4.9260  -10.4850   27.6690 C.ar  155  TYR155     -0.0201
     57  CD1       -4.9100  -10.1580   29.0140 C.ar  155  TYR155     -0.0009
     58  CD2       -3.6970  -10.7490   27.0440 C.ar  155  TYR155     -0.0009
     59  CE1       -3.7140  -10.0910   29.7310 C.ar  155  TYR155      0.0417
     60  CE2       -2.4970  -10.6820   27.7510 C.ar  155  TYR155      0.0417
     61  CZ        -2.5200  -10.3410   29.1000 C.ar  155  TYR155      0.1957
     62  OH        -1.3540  -10.2510   29.8480 O.3   155  TYR155     -0.2866
     63  N         -4.1070   -4.7160   27.2160 N.3   159  LYS159     -0.1245
     64  CA        -2.7220   -4.4920   27.5920 C.3   159  LYS159      0.1561
     65  C         -2.0390   -3.3780   26.7510 C.2   159  LYS159      0.2260
     66  O         -1.2610   -2.5100   27.2790 O.2   159  LYS159     -0.2867
     67  CB        -1.9530   -5.8240   27.5830 C.3   159  LYS159      0.0271
     68  CG        -2.3060   -6.7740   28.7160 C.3   159  LYS159      0.0035
     69  CD        -2.1550   -6.1300   30.0640 C.3   159  LYS159      0.0206
     70  CE        -2.0140   -7.1700   31.1840 C.3   159  LYS159      0.1093
     71  NZ        -2.1320   -6.5800   32.5360 N.3   159  LYS159     -0.1314
     72  N          7.1330  -11.6930   31.3170 N.3   186  GLY186     -0.1210
     73  CA         7.0080  -12.6350   30.1960 C.3   186  GLY186      0.1956
     74  C          6.1010  -13.7930   30.5680 C.2   186  GLY186      0.2612
     75  O          4.8660  -13.7000   30.4190 O.2   186  GLY186     -0.2717
     76  N          6.6840  -14.8920   31.0310 N.am  187  VAL187     -0.1965
     77  CA         5.9390  -15.9410   31.7190 C.3   187  VAL187      0.1727
     78  C          6.3860  -15.9800   33.1680 C.2   187  VAL187      0.2617
     79  O          7.5870  -15.9440   33.4690 O.2   187  VAL187     -0.2715
     80  CB         6.0120  -17.3600   31.0540 C.3   187  VAL187      0.0290
     81  CG1        5.2510  -17.3580   29.7530 C.3   187  VAL187      0.0023
     82  CG2        7.4200  -17.8310   30.8300 C.3   187  VAL187      0.0023
     83  N          5.3910  -15.9800   34.0700 N.am  188  SER188     -0.1936
     84  CA         5.6190  -15.9660   35.5270 C.3   188  SER188      0.2055
     85  C          4.5790  -16.8370   36.2640 C.2   188  SER188      0.2643
     86  O          3.3740  -16.7390   36.0300 O.2   188  SER188     -0.2714
     87  CB         5.5680  -14.5040   36.0640 C.3   188  SER188      0.2130
     88  OG         5.7890  -14.4800   37.4890 O.3   188  SER188     -0.2179
     89  N          5.0420  -17.6810   37.1790 N.am  189  LEU189     -0.1963
     90  CA         4.1590  -18.4800   38.0110 C.3   189  LEU189      0.1728
     91  C          3.1930  -19.3070   37.1990 C.2   189  LEU189      0.2616
     92  O          1.9950  -19.0720   37.1720 O.2   189  LEU189     -0.2715
     93  CB         3.3580  -17.6060   38.9800 C.3   189  LEU189      0.0311
     94  CG         3.9690  -17.2790   40.3240 C.3   189  LEU189      0.0022
     95  CD1        2.8660  -16.6470   41.1650 C.3   189  LEU189      0.0001
     96  CD2        4.5570  -18.5180   41.0140 C.3   189  LEU189      0.0001
     97  N          3.7060  -20.3460   36.5830 N.am  190  LEU190     -0.1964
     98  CA         2.8160  -21.2070   35.8350 C.3   190  LEU190      0.1713
     99  C          1.9230  -21.9230   36.8560 C.2   190  LEU190      0.2458
    100  O          2.4330  -22.4190   37.8680 O.2   190  LEU190     -0.2730
    101  CB         3.6260  -22.1930   35.0150 C.3   190  LEU190      0.0310
    102  CG         4.5210  -21.4840   34.0050 C.3   190  LEU190      0.0022
    103  CD1        5.4670  -22.5020   33.3870 C.3   190  LEU190      0.0001
    104  CD2        3.6960  -20.7990   32.9200 C.3   190  LEU190      0.0001
    105  N          0.5960  -21.9370   36.6210 N.am  191  PRO191     -0.2727
    106  CA        -0.2390  -22.6510   37.5880 C.3   191  PRO191      0.1402
    107  C          0.1330  -24.1510   37.6760 C.2   191  PRO191      0.2269
    108  O          0.7030  -24.7210   36.7300 O.2   191  PRO191     -0.2865
    109  CB        -1.6830  -22.4480   37.0630 C.3   191  PRO191      0.0296
    110  CG        -1.5890  -21.8100   35.7120 C.3   191  PRO191      0.0237
    111  CD        -0.1780  -21.3180   35.5150 C.3   191  PRO191      0.0939
    112  N         -2.1360  -26.4740   35.0250 N.3   194  MET194     -0.1245
    113  CA        -1.5390  -26.4460   33.6870 C.3   194  MET194      0.1570
    114  C         -0.7670  -27.7650   33.4570 C.2   194  MET194      0.2261
    115  O          0.0490  -28.1850   34.2840 O.2   194  MET194     -0.2867
    116  CB        -0.5790  -25.2520   33.5300 C.3   194  MET194      0.0387
    117  CG        -0.4980  -24.6920   32.1110 C.3   194  MET194      0.0595
    118  SD         0.9410  -23.6380   31.7510 S.3   194  MET194     -0.1393
    119  CE         0.3440  -22.8000   30.2960 C.3   194  MET194      0.0692
    120  N          6.4910  -23.7740   27.6550 N.3   202  TRP202     -0.1241
    121  CA         6.7550  -22.3530   27.9290 C.3   202  TRP202      0.1605
    122  C          8.1470  -22.1800   28.5240 C.2   202  TRP202      0.2264
    123  O          8.9110  -21.3190   28.0820 O.2   202  TRP202     -0.2867
    124  CB         5.6980  -21.7370   28.8720 C.3   202  TRP202      0.0550
    125  CG         4.4600  -21.2720   28.1560 C.ar  202  TRP202      0.0003
    126  CD1        3.2110  -21.8110   28.2480 C.ar  202  TRP202      0.0946
    127  CD2        4.3620  -20.1820   27.2240 C.ar  202  TRP202      0.0152
    128  NE1        2.3380  -21.1300   27.4330 N.ar  202  TRP202     -0.2442
    129  CE2        3.0180  -20.1250   26.7900 C.ar  202  TRP202      0.0810
    130  CE3        5.2830  -19.2520   26.7060 C.ar  202  TRP202      0.0012
    131  CZ2        2.5660  -19.1710   25.8630 C.ar  202  TRP202      0.0191
    132  CZ3        4.8320  -18.3070   25.7770 C.ar  202  TRP202      0.0001
    133  CH2        3.4850  -18.2760   25.3670 C.ar  202  TRP202      0.0015
@<TRIPOS>BOND
     1    48    47    2
     2    47    46    1
     3    46    45    1
     4    46    49    1
     5    40    39    2
     6    44    43    1
     7    49    50    1
     8    39    38    1
     9    43    42    1
    10    38    41    1
    11    38    37    1
    12    41    42    1
    13    51    52    1
    14   133   132   ar
    15   133   131   ar
    16   132   130   ar
    17    53    52    1
    18    53    54    2
    19   131   129   ar
    20    52    55    1
    21   130   127   ar
    22    65    66    2
    23    65    64    1
    24   129   127   ar
    25   129   128   ar
    26    55    56    1
    27    58    56   ar
    28    58    60   ar
    29    32    31    2
    30    63    64    1
    31   127   125   ar
    32   128   126   ar
    33    67    64    1
    34    67    68    1
    35   120   121    1
    36    56    57   ar
    37    60    61   ar
    38    35    34   ar
    39   121   122    1
    40   121   124    1
    41   123   122    2
    42    34    36   ar
    43    34    33    1
    44   125   126   ar
    45   125   124    1
    46    31    30    1
    47    33    30    1
    48    68    69    1
    49    26    28   ar
    50    26    24   ar
    51    57    59   ar
    52    28    27   ar
    53    61    59   ar
    54    61    62    1
    55    30    29    1
    56    24    23   ar
    57    81    80    1
    58    69    70    1
    59    27    25   ar
    60    73    74    1
    61    73    72    1
    62   119   118    1
    63    75    74    2
    64    74    76   am
    65    20    19    1
    66    20    21    2
    67    23    25   ar
    68    23    22    1
    69    82    80    1
    70    19    22    1
    71    19    18    1
    72    76    77    1
    73    80    77    1
    74    70    71    1
    75    77    78    1
    76   118   117    1
    77   117   116    1
    78   104   102    1
    79    78    79    2
    80    78    83   am
    81    17    16    1
    82   103   102    1
    83   114   113    1
    84   114   115    2
    85   116   113    1
    86   113   112    1
    87   102   101    1
    88    83    84    1
    89    16    13    1
    90    14    13    1
    91    14    15    2
    92   101    98    1
    93    13    12    1
    94   111   110    1
    95   111   105    1
    96    84    87    1
    97    84    85    1
    98   110   109    1
    99    98    97    1
   100    98    99    1
   101    86    85    2
   102    87    88    1
   103    85    89   am
   104    97    91   am
   105   105    99   am
   106   105   106    1
   107   108   107    2
   108    99   100    2
   109   109   106    1
   110    92    91    2
   111    89    90    1
   112    91    90    1
   113    11     9    1
   114   106   107    1
   115    90    93    1
   116     9    10    1
   117     9     8    2
   118    93    94    1
   119     8     7    1
   120    94    96    1
   121    94    95    1
   122     7     6    1
   123     6     5    1
   124     5     2    1
   125     3     2    1
   126     3     4    2
   127     2     1    1
