@<TRIPOS>MOLECULE
tmp/4cmdA01.pdb
 174 166 0 0 0
SMALL
GASTEIGER

@<TRIPOS>ATOM
      1  N         93.6160   19.7360   43.4670 N.3    58  TYR58      -0.1241
      2  CA        92.3090   20.0270   44.0700 C.3    58  TYR58       0.1605
      3  C         92.0930   19.1670   45.2830 C.2    58  TYR58       0.2264
      4  O         92.8740   18.2410   45.5500 O.2    58  TYR58      -0.2867
      5  CB        91.1580   19.8690   43.0500 C.3    58  TYR58       0.0534
      6  CG        90.6640   18.4540   42.7830 C.ar   58  TYR58      -0.0201
      7  CD1       91.5130   17.4800   42.2180 C.ar   58  TYR58      -0.0009
      8  CD2       89.3600   18.0810   43.1040 C.ar   58  TYR58      -0.0009
      9  CE1       91.0550   16.1970   41.9620 C.ar   58  TYR58       0.0417
     10  CE2       88.8910   16.8010   42.8150 C.ar   58  TYR58       0.0417
     11  CZ        89.7560   15.8600   42.2620 C.ar   58  TYR58       0.1957
     12  OH        89.3250   14.5900   41.9740 O.3    58  TYR58      -0.2866
     13  N         88.5600   17.6190   47.8720 N.3    60  VAL60      -0.1245
     14  CA        87.1140   17.5610   48.0540 C.3    60  VAL60       0.1561
     15  C         86.7640   17.0610   49.4760 C.2    60  VAL60       0.2260
     16  O         86.6330   15.8700   49.6970 O.2    60  VAL60      -0.2867
     17  CB        86.4770   16.6550   46.9710 C.3    60  VAL60       0.0252
     18  CG1       84.9730   16.4550   47.2080 C.3    60  VAL60       0.0019
     19  CG2       86.7240   17.2410   45.5640 C.3    60  VAL60       0.0019
     20  N         96.1940   17.9970   53.0720 N.3    77  ARG77      -0.1245
     21  CA        96.5460   17.2390   51.8540 C.3    77  ARG77       0.1563
     22  C         96.6630   18.2140   50.6700 C.2    77  ARG77       0.2260
     23  O         97.5990   18.1360   49.8950 O.2    77  ARG77      -0.2867
     24  CB        95.5400   16.1130   51.5540 C.3    77  ARG77       0.0307
     25  CG        95.9000   15.2920   50.3100 C.3    77  ARG77       0.0489
     26  CD        94.9810   14.0900   50.1400 C.3    77  ARG77       0.2205
     27  NE        93.6060   14.4920   49.7950 N.pl3  77  ARG77      -0.0865
     28  CZ        92.5920   13.6280   49.7100 C.cat  77  ARG77       0.5346
     29  NH1       92.8060   12.3240   49.9530 N.pl3  77  ARG77       0.1354
     30  NH2       91.3740   14.0530   49.3710 N.pl3  77  ARG77       0.1354
     31  N         96.5470    2.3070   35.0630 N.3   168  ARG168     -0.1245
     32  CA        96.7180    3.5560   35.7770 C.3   168  ARG168      0.1563
     33  C         97.9660    4.2980   35.3070 C.2   168  ARG168      0.2260
     34  O         99.0040    3.6700   35.0490 O.2   168  ARG168     -0.2867
     35  CB        96.8100    3.2780   37.2810 C.3   168  ARG168      0.0307
     36  CG        96.6230    4.5180   38.1560 C.3   168  ARG168      0.0489
     37  CD        95.1560    4.9650   38.2770 C.3   168  ARG168      0.2205
     38  NE        95.0610    6.1130   39.1930 N.pl3 168  ARG168     -0.0865
     39  CZ        95.1120    7.3900   38.8180 C.cat 168  ARG168      0.5346
     40  NH1       95.2270    7.7230   37.5450 N.pl3 168  ARG168      0.1354
     41  NH2       95.0570    8.3500   39.7340 N.pl3 168  ARG168      0.1354
     42  N         96.4280   15.0410   44.2730 N.3   179  LYS179     -0.1231
     43  CA        95.0790   14.8900   43.7360 C.3   179  LYS179      0.1693
     44  C         94.9710   15.7500   42.5070 C.2   179  LYS179      0.2592
     45  O         95.3570   16.9220   42.5240 O.2   179  LYS179     -0.2718
     46  CB        94.0650   15.2810   44.8190 C.3   179  LYS179      0.0285
     47  CG        92.7260   14.5920   44.5730 C.3   179  LYS179      0.0035
     48  CD        91.8800   14.7650   45.8510 C.3   179  LYS179      0.0206
     49  CE        90.4280   14.3750   45.6210 C.3   179  LYS179      0.1093
     50  NZ        90.3090   13.1080   44.9340 N.3   179  LYS179     -0.1314
     51  N         94.4920   15.1760   41.4070 N.am  180  ASN180     -0.1974
     52  CA        94.4930   15.9280   40.1610 C.3   180  ASN180      0.1688
     53  C         93.3170   15.5580   39.2800 C.2   180  ASN180      0.2292
     54  O         92.6500   14.5440   39.5230 O.2   180  ASN180     -0.2864
     55  CB        95.8130   15.7260   39.4240 C.3   180  ASN180      0.1181
     56  CG        95.9560   14.3340   38.8720 C.2   180  ASN180      0.2629
     57  OD1       95.3960   14.0200   37.8280 O.2   180  ASN180     -0.2716
     58  ND2       96.6950   13.4760   39.5840 N.am  180  ASN180     -0.0877
     59  N         92.0910   12.9660   34.1740 N.3   183  TRP183     -0.1241
     60  CA        91.3950   11.7040   34.2840 C.3   183  TRP183      0.1605
     61  C         91.4040   10.8340   33.0290 C.2   183  TRP183      0.2264
     62  O         90.5190    9.9830   32.8720 O.2   183  TRP183     -0.2867
     63  CB        89.9330   11.9710   34.7010 C.3   183  TRP183      0.0550
     64  CG        89.7260   12.0110   36.1980 C.ar  183  TRP183      0.0003
     65  CD1       90.5380   12.5830   37.1190 C.ar  183  TRP183      0.0946
     66  CD2       88.6050   11.4700   36.9210 C.ar  183  TRP183      0.0152
     67  NE1       90.0100   12.4130   38.3850 N.ar  183  TRP183     -0.2442
     68  CE2       88.8130   11.7540   38.2830 C.ar  183  TRP183      0.0810
     69  CE3       87.4300   10.8030   36.5350 C.ar  183  TRP183      0.0012
     70  CZ2       87.9120   11.3630   39.2830 C.ar  183  TRP183      0.0191
     71  CZ3       86.5250   10.4130   37.5290 C.ar  183  TRP183      0.0001
     72  CH2       86.7850   10.6830   38.8880 C.ar  183  TRP183      0.0015
     73  N         91.1990    7.2280   33.7910 N.3   186  LEU186     -0.1245
     74  CA        89.9990    6.9390   34.5900 C.3   186  LEU186      0.1561
     75  C         88.7240    6.9820   33.7470 C.2   186  LEU186      0.2260
     76  O         87.8600    6.0940   33.8780 O.2   186  LEU186     -0.2867
     77  CB        89.9210    7.8950   35.7990 C.3   186  LEU186      0.0270
     78  CG        91.1650    7.8550   36.7040 C.3   186  LEU186      0.0019
     79  CD1       90.9070    8.7110   37.9510 C.3   186  LEU186      0.0001
     80  CD2       91.4900    6.4200   37.1120 C.3   186  LEU186      0.0001
     81  N         93.6530    1.6790   41.9360 N.3   212  GLU212     -0.1231
     82  CA        92.4130    2.3210   42.3810 C.3   212  GLU212      0.1699
     83  C         91.4560    2.4000   41.1920 C.2   212  GLU212      0.2592
     84  O         91.7290    1.8680   40.1140 O.2   212  GLU212     -0.2718
     85  CB        92.6840    3.7390   42.9510 C.3   212  GLU212      0.0402
     86  CG        93.3160    4.7190   41.9580 C.3   212  GLU212      0.1161
     87  CD        93.8210    6.0340   42.5850 C.2   212  GLU212      0.3649
     88  OE1       93.4330    6.3980   43.7050 O.co2 212  GLU212     -0.2457
     89  OE2       94.6230    6.7220   41.9280 O.co2 212  GLU212     -0.2457
     90  N         90.3200    3.0430   41.3960 N.am  213  GLY213     -0.1957
     91  CA        89.3580    3.1940   40.3050 C.3   213  GLY213      0.1869
     92  C         89.1410    4.6560   39.9690 C.2   213  GLY213      0.2309
     93  O         89.9230    5.5320   40.3600 O.2   213  GLY213     -0.2863
     94  N         88.1120    7.6360   40.7500 N.3   215  GLY215     -0.1210
     95  CA        87.7700    8.5100   41.8720 C.3   215  GLY215      0.1956
     96  C         87.4220    7.7910   43.1660 C.2   215  GLY215      0.2612
     97  O         86.7040    8.3460   43.9830 O.2   215  GLY215     -0.2717
     98  N         87.8950    6.5550   43.3480 N.am  216  PHE216     -0.1962
     99  CA        87.6870    5.8440   44.6260 C.3   216  PHE216      0.1771
    100  C         88.8670    4.9350   44.8630 C.2   216  PHE216      0.2619
    101  O         89.5160    4.4730   43.9000 O.2   216  PHE216     -0.2715
    102  CB        86.3750    5.0130   44.6200 C.3   216  PHE216      0.0574
    103  CG        86.2750    4.0500   43.4590 C.ar  216  PHE216     -0.0200
    104  CD1       86.9270    2.8030   43.4870 C.ar  216  PHE216     -0.0042
    105  CD2       85.5660    4.4120   42.3000 C.ar  216  PHE216     -0.0042
    106  CE1       86.8370    1.9210   42.3970 C.ar  216  PHE216     -0.0003
    107  CE2       85.4790    3.5430   41.2110 C.ar  216  PHE216     -0.0003
    108  CZ        86.1130    2.3090   41.2530 C.ar  216  PHE216     -0.0000
    109  N         89.1740    4.6910   46.1340 N.am  217  ASN217     -0.1972
    110  CA        90.1530    3.6680   46.4770 C.3   217  ASN217      0.1688
    111  C         89.4360    2.3200   46.6270 C.2   217  ASN217      0.2292
    112  O         88.2100    2.2740   46.7760 O.2   217  ASN217     -0.2864
    113  CB        90.8560    4.0100   47.8030 C.3   217  ASN217      0.1181
    114  CG        91.8010    5.2030   47.6970 C.2   217  ASN217      0.2629
    115  OD1       91.6210    6.1910   48.4070 O.2   217  ASN217     -0.2716
    116  ND2       92.8310    5.1020   46.8590 N.am  217  ASN217     -0.0877
    117  N         95.7830    7.5520   45.0650 N.3   234  LEU234     -0.1245
    118  CA        95.5500    8.6840   45.9510 C.3   234  LEU234      0.1561
    119  C         95.4070    8.1510   47.3700 C.2   234  LEU234      0.2260
    120  O         94.7610    7.1360   47.5980 O.2   234  LEU234     -0.2867
    121  CB        94.3050    9.4730   45.4980 C.3   234  LEU234      0.0270
    122  CG        94.2260   10.6760   46.4260 C.3   234  LEU234      0.0019
    123  CD1       94.9840   11.8630   45.8450 C.3   234  LEU234      0.0001
    124  CD2       92.8200   11.0000   46.8290 C.3   234  LEU234      0.0001
    125  N         93.4910    8.3140   50.0480 N.3   236  GLY236     -0.1210
    126  CA        92.1870    8.9390   50.3020 C.3   236  GLY236      0.1956
    127  C         91.9600    9.2120   51.7720 C.2   236  GLY236      0.2612
    128  O         92.4940    8.4990   52.6570 O.2   236  GLY236     -0.2717
    129  N         91.1560   10.2260   52.0520 N.am  237  ILE237     -0.1965
    130  CA        90.7370   10.5610   53.4150 C.3   237  ILE237      0.1727
    131  C         89.6860    9.5340   53.8440 C.2   237  ILE237      0.2617
    132  O         89.5730    9.1990   55.0120 O.2   237  ILE237     -0.2715
    133  CB        90.1560   11.9990   53.4990 C.3   237  ILE237      0.0290
    134  CG1       91.2190   13.0360   53.0890 C.3   237  ILE237      0.0022
    135  CG2       89.5850   12.2930   54.8900 C.3   237  ILE237      0.0023
    136  CD1       92.5830   12.8030   53.7050 C.3   237  ILE237      0.0001
    137  N         88.8980    9.0460   52.8800 N.am  238  THR238     -0.1937
    138  CA        87.9480    7.9840   53.2100 C.3   238  THR238      0.2028
    139  C         88.7600    6.7130   53.5660 C.2   238  THR238      0.2642
    140  O         88.4950    6.0380   54.5720 O.2   238  THR238     -0.2714
    141  CB        86.9590    7.6990   52.0660 C.3   238  THR238      0.1808
    142  OG1       86.4500    8.9510   51.5610 O.3   238  THR238     -0.2208
    143  CG2       85.7820    6.8780   52.6110 C.3   238  THR238      0.0379
    144  N         89.7940    6.4460   52.7750 N.am  239  ARG239     -0.1977
    145  CA        90.6790    5.3120   53.0390 C.3   239  ARG239      0.1597
    146  C         91.3490    5.4350   54.4270 C.2   239  ARG239      0.2287
    147  O         91.4230    4.4540   55.1890 O.2   239  ARG239     -0.2864
    148  CB        91.7470    5.2350   51.9450 C.3   239  ARG239      0.0334
    149  CG        92.5110    3.9180   52.0300 C.3   239  ARG239      0.0492
    150  CD        93.6270    3.8630   51.0200 C.3   239  ARG239      0.2205
    151  NE        94.7500    4.6310   51.5150 N.pl3 239  ARG239     -0.0865
    152  CZ        95.9970    4.4730   51.1140 C.cat 239  ARG239      0.5346
    153  NH1       96.2890    3.5770   50.1860 N.pl3 239  ARG239      0.1354
    154  NH2       96.9510    5.2290   51.6470 N.pl3 239  ARG239      0.1354
    155  N         85.9500    3.2000   48.3960 N.3   272  CYS272     -0.1221
    156  CA        85.7590    4.2830   49.3570 C.3   272  CYS272      0.1808
    157  C         86.1450    5.6140   48.7280 C.2   272  CYS272      0.2602
    158  O         87.1100    5.7020   47.9620 O.2   272  CYS272     -0.2717
    159  CB        86.4920    4.0240   50.6990 C.3   272  CYS272      0.0970
    160  SG        88.2730    3.7050   50.5670 S.3   272  CYS272     -0.0800
    161  N         85.3650    6.6400   49.0490 N.am  273  THR273     -0.1939
    162  CA        85.5450    7.9380   48.4560 C.3   273  THR273      0.2028
    163  C         84.7070    8.9330   49.2160 C.2   273  THR273      0.2642
    164  O         83.6990    8.5540   49.8220 O.2   273  THR273     -0.2714
    165  CB        85.1240    7.9320   46.9800 C.3   273  THR273      0.1808
    166  OG1       85.6180    9.1160   46.3680 O.3   273  THR273     -0.2208
    167  CG2       83.6090    7.8610   46.8520 C.3   273  THR273      0.0379
    168  N         85.1260   10.2020   49.2190 N.am  274  THR274     -0.1950
    169  CA        84.3530   11.2420   49.9220 C.3   274  THR274      0.1897
    170  C         82.9580   11.3420   49.3190 C.2   274  THR274      0.2313
    171  O         81.9700   11.5010   50.0440 O.2   274  THR274     -0.2863
    172  CB        85.0640   12.6090   49.8950 C.3   274  THR274      0.1794
    173  OG1       86.3080   12.4710   50.5870 O.3   274  THR274     -0.2208
    174  CG2       84.1930   13.7030   50.5720 C.3   274  THR274      0.0378
@<TRIPOS>BOND
     1    62    61    2
     2    61    60    1
     3    75    76    2
     4    75    74    1
     5    73    74    1
     6    59    60    1
     7    60    63    1
     8    74    77    1
     9    63    64    1
    10    34    33    2
    11    31    32    1
    12    33    32    1
    13    32    35    1
    14    77    78    1
    15    64    66   ar
    16    64    65   ar
    17    69    66   ar
    18    69    71   ar
    19    78    80    1
    20    78    79    1
    21    66    68   ar
    22    65    67   ar
    23    35    36    1
    24    71    72   ar
    25    40    39    1
    26    57    56    2
    27    36    37    1
    28    37    38    1
    29    68    67   ar
    30    68    70   ar
    31    39    38    2
    32    39    41    1
    33    56    55    1
    34    56    58   am
    35    72    70   ar
    36    53    54    2
    37    53    52    1
    38    55    52    1
    39    92    91    1
    40    92    93    2
    41    84    83    2
    42    52    51    1
    43    91    90    1
    44    94    95    1
    45    83    90   am
    46    83    82    1
    47   107   108   ar
    48   107   105   ar
    49   108   106   ar
    50    51    44   am
    51    95    96    1
    52    89    87   ar
    53    81    82    1
    54    86    87    1
    55    86    85    1
    56     9     7   ar
    57     9    11   ar
    58    12    11    1
    59     7     6   ar
    60    11    10   ar
    61   105   103   ar
    62    82    85    1
    63   106   104   ar
    64    44    45    2
    65    44    43    1
    66    87    88   ar
    67     6     5    1
    68     6     8   ar
    69    10     8   ar
    70     5     2    1
    71    96    98   am
    72    96    97    2
    73    98    99    1
    74   103   104   ar
    75   103   102    1
    76     1     2    1
    77    43    42    1
    78    43    46    1
    79   101   100    2
    80     2     3    1
    81    47    46    1
    82    47    48    1
    83   102    99    1
    84    99   100    1
    85   100   109   am
    86    50    49    1
    87   117   118    1
    88     3     4    2
    89   121   118    1
    90   121   122    1
    91    19    17    1
    92    49    48    1
    93   123   122    1
    94   118   119    1
    95   109   110    1
    96   166   165    1
    97   122   124    1
    98   110   111    1
    99   110   113    1
   100   111   112    2
   101   167   165    1
   102   116   114   am
   103    17    18    1
   104    17    14    1
   105   165   162    1
   106   119   120    2
   107   114   113    1
   108   114   115    2
   109    13    14    1
   110   158   157    2
   111    14    15    1
   112   155   156    1
   113   162   161    1
   114   162   163    1
   115   157   161   am
   116   157   156    1
   117   163   168   am
   118   163   164    2
   119   168   169    1
   120   170   169    1
   121   170   171    2
   122   156   159    1
   123    30    28    1
   124    15    16    2
   125    28    27    2
   126    28    29    1
   127    27    26    1
   128   172   169    1
   129   172   174    1
   130   172   173    1
   131    23    22    2
   132   125   126    1
   133    26    25    1
   134   153   152    1
   135   126   127    1
   136    25    24    1
   137   160   159    1
   138    22    21    1
   139   150   151    1
   140   150   149    1
   141   152   151    2
   142   152   154    1
   143    24    21    1
   144   142   141    1
   145   127   129   am
   146   127   128    2
   147    21    20    1
   148   148   149    1
   149   148   145    1
   150   129   130    1
   151   141   143    1
   152   141   138    1
   153   144   145    1
   154   144   139   am
   155   137   138    1
   156   137   131   am
   157   145   146    1
   158   134   133    1
   159   134   136    1
   160   138   139    1
   161   130   133    1
   162   130   131    1
   163   133   135    1
   164   139   140    2
   165   131   132    2
   166   146   147    2
