@<TRIPOS>MOLECULE
tmp/4cmdA00.pdb
 96 91 0 0 0
SMALL
GASTEIGER

@<TRIPOS>ATOM
      1  N         93.6160   19.7360   43.4670 N.3    58  TYR58      -0.1241
      2  CA        92.3090   20.0270   44.0700 C.3    58  TYR58       0.1605
      3  C         92.0930   19.1670   45.2830 C.2    58  TYR58       0.2264
      4  O         92.8740   18.2410   45.5500 O.2    58  TYR58      -0.2867
      5  CB        91.1580   19.8690   43.0500 C.3    58  TYR58       0.0534
      6  CG        90.6640   18.4540   42.7830 C.ar   58  TYR58      -0.0201
      7  CD1       91.5130   17.4800   42.2180 C.ar   58  TYR58      -0.0009
      8  CD2       89.3600   18.0810   43.1040 C.ar   58  TYR58      -0.0009
      9  CE1       91.0550   16.1970   41.9620 C.ar   58  TYR58       0.0417
     10  CE2       88.8910   16.8010   42.8150 C.ar   58  TYR58       0.0417
     11  CZ        89.7560   15.8600   42.2620 C.ar   58  TYR58       0.1957
     12  OH        89.3250   14.5900   41.9740 O.3    58  TYR58      -0.2866
     13  N         88.5600   17.6190   47.8720 N.3    60  VAL60      -0.1245
     14  CA        87.1140   17.5610   48.0540 C.3    60  VAL60       0.1561
     15  C         86.7640   17.0610   49.4760 C.2    60  VAL60       0.2260
     16  O         86.6330   15.8700   49.6970 O.2    60  VAL60      -0.2867
     17  CB        86.4770   16.6550   46.9710 C.3    60  VAL60       0.0252
     18  CG1       84.9730   16.4550   47.2080 C.3    60  VAL60       0.0019
     19  CG2       86.7240   17.2410   45.5640 C.3    60  VAL60       0.0019
     20  N         78.9310   18.4180   48.9490 N.3   113  PHE113     -0.1241
     21  CA        80.1930   18.0670   48.2840 C.3   113  PHE113      0.1605
     22  C         80.8890   19.4200   48.1930 C.2   113  PHE113      0.2264
     23  O         80.2780   20.3870   47.7350 O.2   113  PHE113     -0.2867
     24  CB        79.8210   17.5310   46.8920 C.3   113  PHE113      0.0534
     25  CG        80.9740   17.3010   45.9400 C.ar  113  PHE113     -0.0203
     26  CD1       81.6040   18.3630   45.2650 C.ar  113  PHE113     -0.0042
     27  CD2       81.3280   15.9950   45.6150 C.ar  113  PHE113     -0.0042
     28  CE1       82.6350   18.1050   44.3360 C.ar  113  PHE113     -0.0003
     29  CE2       82.3220   15.7300   44.6740 C.ar  113  PHE113     -0.0003
     30  CZ        82.9900   16.7910   44.0460 C.ar  113  PHE113     -0.0000
     31  N         77.2350   14.3580   46.5220 N.3   146  VAL146     -0.1245
     32  CA        77.2620   13.5020   45.3320 C.3   146  VAL146      0.1561
     33  C         77.4990   12.0370   45.7240 C.2   146  VAL146      0.2260
     34  O         78.3660   11.7580   46.5550 O.2   146  VAL146     -0.2867
     35  CB        78.4040   13.9630   44.3880 C.3   146  VAL146      0.0252
     36  CG1       78.5680   12.9700   43.2260 C.3   146  VAL146      0.0019
     37  CG2       78.1090   15.3730   43.8840 C.3   146  VAL146      0.0019
     38  N         78.6780    8.3980   44.4490 N.3   148  VAL148     -0.1245
     39  CA        79.2920    7.5380   43.4280 C.3   148  VAL148      0.1561
     40  C         78.5790    6.1780   43.4320 C.2   148  VAL148      0.2260
     41  O         78.5890    5.4530   42.4320 O.2   148  VAL148     -0.2867
     42  CB        80.8240    7.4910   43.6260 C.3   148  VAL148      0.0252
     43  CG1       81.5190    6.3630   42.8510 C.3   148  VAL148      0.0019
     44  CG2       81.4170    8.8420   43.2060 C.3   148  VAL148      0.0019
     45  N         96.4280   15.0410   44.2730 N.3   179  LYS179     -0.1245
     46  CA        95.0790   14.8900   43.7360 C.3   179  LYS179      0.1561
     47  C         94.9710   15.7500   42.5070 C.2   179  LYS179      0.2260
     48  O         95.3570   16.9220   42.5240 O.2   179  LYS179     -0.2867
     49  CB        94.0650   15.2810   44.8190 C.3   179  LYS179      0.0271
     50  CG        92.7260   14.5920   44.5730 C.3   179  LYS179      0.0035
     51  CD        91.8800   14.7650   45.8510 C.3   179  LYS179      0.0206
     52  CE        90.4280   14.3750   45.6210 C.3   179  LYS179      0.1093
     53  NZ        90.3090   13.1080   44.9340 N.3   179  LYS179     -0.1314
     54  N         92.0910   12.9660   34.1740 N.3   183  TRP183     -0.1241
     55  CA        91.3950   11.7040   34.2840 C.3   183  TRP183      0.1605
     56  C         91.4040   10.8340   33.0290 C.2   183  TRP183      0.2264
     57  O         90.5190    9.9830   32.8720 O.2   183  TRP183     -0.2867
     58  CB        89.9330   11.9710   34.7010 C.3   183  TRP183      0.0550
     59  CG        89.7260   12.0110   36.1980 C.ar  183  TRP183      0.0003
     60  CD1       90.5380   12.5830   37.1190 C.ar  183  TRP183      0.0946
     61  CD2       88.6050   11.4700   36.9210 C.ar  183  TRP183      0.0152
     62  NE1       90.0100   12.4130   38.3850 N.ar  183  TRP183     -0.2442
     63  CE2       88.8130   11.7540   38.2830 C.ar  183  TRP183      0.0810
     64  CE3       87.4300   10.8030   36.5350 C.ar  183  TRP183      0.0012
     65  CZ2       87.9120   11.3630   39.2830 C.ar  183  TRP183      0.0191
     66  CZ3       86.5250   10.4130   37.5290 C.ar  183  TRP183      0.0001
     67  CH2       86.7850   10.6830   38.8880 C.ar  183  TRP183      0.0015
     68  N         88.0610    4.9260   39.2400 N.3   214  SER214     -0.1202
     69  CA        87.7600    6.2690   38.7650 C.3   214  SER214      0.2020
     70  C         87.2190    7.1710   39.8870 C.2   214  SER214      0.2619
     71  O         86.0250    7.4050   39.9650 O.2   214  SER214     -0.2717
     72  CB        86.7750    6.1640   37.5930 C.3   214  SER214      0.2103
     73  OG        85.7270    5.2720   37.9450 O.3   214  SER214     -0.2182
     74  N         88.1120    7.6360   40.7500 N.am  215  GLY215     -0.1956
     75  CA        87.7700    8.5100   41.8720 C.3   215  GLY215      0.1869
     76  C         87.4220    7.7910   43.1660 C.2   215  GLY215      0.2309
     77  O         86.7040    8.3460   43.9830 O.2   215  GLY215     -0.2863
     78  N         85.3650    6.6400   49.0490 N.3   273  THR273     -0.1203
     79  CA        85.5450    7.9380   48.4560 C.3   273  THR273      0.1994
     80  C         84.7070    8.9330   49.2160 C.2   273  THR273      0.2619
     81  O         83.6990    8.5540   49.8220 O.2   273  THR273     -0.2717
     82  CB        85.1240    7.9320   46.9800 C.3   273  THR273      0.1784
     83  OG1       85.6180    9.1160   46.3680 O.3   273  THR273     -0.2211
     84  CG2       83.6090    7.8610   46.8520 C.3   273  THR273      0.0376
     85  N         85.1260   10.2020   49.2190 N.am  274  THR274     -0.1938
     86  CA        84.3530   11.2420   49.9220 C.3   274  THR274      0.2028
     87  C         82.9580   11.3420   49.3190 C.2   274  THR274      0.2642
     88  O         81.9700   11.5010   50.0440 O.2   274  THR274     -0.2714
     89  CB        85.0640   12.6090   49.8950 C.3   274  THR274      0.1808
     90  OG1       86.3080   12.4710   50.5870 O.3   274  THR274     -0.2208
     91  CG2       84.1930   13.7030   50.5720 C.3   274  THR274      0.0379
     92  N         82.8830   11.2180   47.9950 N.am  275  ALA275     -0.1977
     93  CA        81.5930   11.3390   47.2940 C.3   275  ALA275      0.1597
     94  C         80.8000   10.0250   47.3080 C.2   275  ALA275      0.2287
     95  O         80.6230    9.3810   46.2620 O.2   275  ALA275     -0.2864
     96  CB        81.7970   11.8410   45.8640 C.3   275  ALA275      0.0319
@<TRIPOS>BOND
     1    57    56    2
     2    56    55    1
     3    54    55    1
     4    55    58    1
     5    58    59    1
     6    59    61   ar
     7    59    60   ar
     8    64    61   ar
     9    64    66   ar
    10    61    63   ar
    11    60    62   ar
    12    66    67   ar
    13    72    73    1
    14    72    69    1
    15    63    62   ar
    16    63    65   ar
    17    69    68    1
    18    69    70    1
    19    67    65   ar
    20    70    71    2
    21    70    74   am
    22    74    75    1
    23    75    76    1
    24     9     7   ar
    25     9    11   ar
    26    12    11    1
    27     7     6   ar
    28    11    10   ar
    29    41    40    2
    30    47    48    2
    31    47    46    1
    32     6     5    1
    33     6     8   ar
    34    10     8   ar
    35    43    42    1
    36     5     2    1
    37    76    77    2
    38    44    42    1
    39    36    35    1
    40    39    40    1
    41    39    42    1
    42    39    38    1
    43     1     2    1
    44    46    45    1
    45    46    49    1
    46    37    35    1
    47    30    28   ar
    48    30    29   ar
    49     2     3    1
    50    28    26   ar
    51    35    32    1
    52    50    49    1
    53    50    51    1
    54    29    27   ar
    55    53    52    1
    56    26    25   ar
    57     3     4    2
    58    32    33    1
    59    32    31    1
    60    19    17    1
    61    27    25   ar
    62    52    51    1
    63    33    34    2
    64    96    93    1
    65    25    24    1
    66    95    94    2
    67    83    82    1
    68    84    82    1
    69    24    21    1
    70    17    18    1
    71    17    14    1
    72    82    79    1
    73    93    94    1
    74    93    92    1
    75    23    22    2
    76    13    14    1
    77    92    87   am
    78    14    15    1
    79    22    21    1
    80    21    20    1
    81    79    78    1
    82    79    80    1
    83    80    85   am
    84    80    81    2
    85    85    86    1
    86    87    86    1
    87    87    88    2
    88    15    16    2
    89    89    86    1
    90    89    91    1
    91    89    90    1
