@<TRIPOS>MOLECULE
tmp/4cmeD01.pdb
 135 129 0 0 0
SMALL
GASTEIGER

@<TRIPOS>ATOM
      1  N          1.0190  -11.9570   45.1100 N.3    13  ARG13      -0.1245
      2  CA         1.9320  -12.0910   43.9870 C.3    13  ARG13       0.1563
      3  C          2.7250  -10.7940   43.8050 C.2    13  ARG13       0.2260
      4  O          3.2670  -10.2530   44.7870 O.2    13  ARG13      -0.2867
      5  CB         1.1840  -12.5480   42.7180 C.3    13  ARG13       0.0307
      6  CG         0.4270  -13.8740   42.9090 C.3    13  ARG13       0.0489
      7  CD        -0.4190  -14.2580   41.7170 C.3    13  ARG13       0.2205
      8  NE         0.2210  -13.9830   40.4380 N.pl3  13  ARG13      -0.0865
      9  CZ         1.0640  -14.7900   39.8100 C.cat  13  ARG13       0.5346
     10  NH1        1.3750  -15.9950   40.3020 N.pl3  13  ARG13       0.1354
     11  NH2        1.6000  -14.4070   38.6470 N.pl3  13  ARG13       0.1354
     12  N         -4.5520   -6.3790   37.1030 N.3    94  SER94      -0.1217
     13  CA        -4.6900   -6.7770   35.7310 C.3    94  SER94       0.1889
     14  C         -5.4610   -8.0530   35.5680 C.2    94  SER94       0.2288
     15  O         -5.1390   -9.0310   36.2380 O.2    94  SER94      -0.2866
     16  CB        -3.2640   -7.0300   35.1980 C.3    94  SER94       0.2089
     17  OG        -3.2620   -7.6220   33.9440 O.3    94  SER94      -0.2183
     18  N         -6.1970  -11.1070   32.9920 N.3    96  PHE96      -0.1241
     19  CA        -5.4090  -11.7880   32.0130 C.3    96  PHE96       0.1605
     20  C         -6.0690  -13.1390   31.6820 C.2    96  PHE96       0.2264
     21  O         -6.1060  -14.0250   32.5340 O.2    96  PHE96      -0.2867
     22  CB        -3.9730  -12.0130   32.5650 C.3    96  PHE96       0.0534
     23  CG        -3.1160  -12.9490   31.7440 C.ar   96  PHE96      -0.0203
     24  CD1       -2.4020  -12.4970   30.6390 C.ar   96  PHE96      -0.0042
     25  CD2       -2.9800  -14.2950   32.1040 C.ar   96  PHE96      -0.0042
     26  CE1       -1.6360  -13.3530   29.8820 C.ar   96  PHE96      -0.0003
     27  CE2       -2.1860  -15.1470   31.3760 C.ar   96  PHE96      -0.0003
     28  CZ        -1.5140  -14.6910   30.2460 C.ar   96  PHE96      -0.0000
     29  N          4.2290   -5.1640   29.7560 N.3   142  ASP142     -0.1239
     30  CA         4.7270   -6.4690   29.2880 C.3   142  ASP142      0.1674
     31  C          6.0000   -6.3030   28.5030 C.2   142  ASP142      0.2266
     32  O          6.0440   -5.5120   27.5620 O.2   142  ASP142     -0.2867
     33  CB         3.8020   -7.0950   28.2440 C.3   142  ASP142      0.1410
     34  CG         2.5340   -7.6550   28.8170 C.2   142  ASP142      0.3668
     35  OD1        2.3600   -7.6000   30.0260 O.co2 142  ASP142     -0.2456
     36  OD2        1.7030   -8.1370   28.0090 O.co2 142  ASP142     -0.2456
     37  N          6.9390   -8.6020   26.5270 N.3   144  MET144     -0.1245
     38  CA         6.5840   -9.3250   25.2910 C.3   144  MET144      0.1570
     39  C          5.4770   -8.6340   24.4820 C.2   144  MET144      0.2261
     40  O          4.8690   -9.2440   23.6330 O.2   144  MET144     -0.2867
     41  CB         6.1210  -10.7340   25.6350 C.3   144  MET144      0.0387
     42  CG         7.1390  -11.5120   26.4350 C.3   144  MET144      0.0595
     43  SD         8.6920  -11.7390   25.5480 S.3   144  MET144     -0.1393
     44  CE         8.3040  -12.9840   24.3500 C.3   144  MET144      0.0692
     45  N          5.4710   -9.2520   20.8550 N.3   147  GLN147     -0.1231
     46  CA         5.4050  -10.6660   20.4970 C.3   147  GLN147      0.1683
     47  C          4.2750  -11.3130   21.2840 C.2   147  GLN147      0.2434
     48  O          4.4970  -12.1100   22.1810 O.2   147  GLN147     -0.2733
     49  CB         6.7130  -11.3730   20.7370 C.3   147  GLN147      0.0380
     50  CG         7.9010  -10.8000   19.9800 C.3   147  GLN147      0.0905
     51  CD         9.0450  -10.4750   20.9360 C.2   147  GLN147      0.2608
     52  OE1        9.0180   -9.4530   21.6310 O.2   147  GLN147     -0.2717
     53  NE2       10.0730  -11.3510   20.9670 N.am  147  GLN147     -0.0878
     54  N          3.0430  -10.9660   20.9240 N.am  148  PRO148     -0.2729
     55  CA         1.9000  -11.2870   21.7700 C.3   148  PRO148      0.1401
     56  C          1.6210  -12.7910   21.8470 C.2   148  PRO148      0.2269
     57  O          1.9250  -13.5190   20.9180 O.2   148  PRO148     -0.2865
     58  CB         0.7490  -10.5710   21.0860 C.3   148  PRO148      0.0296
     59  CG         1.1690  -10.3930   19.6830 C.3   148  PRO148      0.0237
     60  CD         2.6630  -10.2480   19.7010 C.3   148  PRO148      0.0939
     61  N         -6.0580   -8.4950   25.9060 N.3   154  TYR154     -0.1241
     62  CA        -5.0060   -8.2700   26.8910 C.3   154  TYR154      0.1605
     63  C         -3.8310   -7.4600   26.3070 C.2   154  TYR154      0.2264
     64  O         -3.3530   -6.4830   26.9080 O.2   154  TYR154     -0.2867
     65  CB        -4.4910   -9.6340   27.3940 C.3   154  TYR154      0.0534
     66  CG        -3.2600   -9.5040   28.2060 C.ar  154  TYR154     -0.0201
     67  CD1       -3.3380   -9.0860   29.5220 C.ar  154  TYR154     -0.0009
     68  CD2       -2.0040   -9.7470   27.6660 C.ar  154  TYR154     -0.0009
     69  CE1       -2.1990   -8.9020   30.2790 C.ar  154  TYR154      0.0417
     70  CE2       -0.8640   -9.5820   28.4330 C.ar  154  TYR154      0.0417
     71  CZ        -0.9900   -9.1300   29.7350 C.ar  154  TYR154      0.1957
     72  OH         0.0970   -8.9490   30.5570 O.3   154  TYR154     -0.2866
     73  N         -2.2910   -3.8010   27.3220 N.3   158  LYS158     -0.1245
     74  CA        -0.8960   -3.5070   27.6290 C.3   158  LYS158      0.1561
     75  C         -0.2510   -2.5050   26.6660 C.2   158  LYS158      0.2260
     76  O          0.5680   -1.7020   27.0890 O.2   158  LYS158     -0.2867
     77  CB        -0.0720   -4.7940   27.7330 C.3   158  LYS158      0.0271
     78  CG        -0.4750   -5.6260   28.9440 C.3   158  LYS158      0.0035
     79  CD        -0.3590   -4.8820   30.2770 C.3   158  LYS158      0.0206
     80  CE        -0.3230   -5.8110   31.4790 C.3   158  LYS158      0.1093
     81  NZ        -0.5630   -5.0820   32.7430 N.3   158  LYS158     -0.1314
     82  N          8.9070  -10.2560   31.9520 N.3   185  GLY185     -0.1210
     83  CA         8.7740  -11.2270   30.8700 C.3   185  GLY185      0.1956
     84  C          7.8610  -12.3340   31.3930 C.2   185  GLY185      0.2612
     85  O          6.6300  -12.2840   31.2300 O.2   185  GLY185     -0.2717
     86  N          8.4680  -13.3170   32.0510 N.am  186  VAL186     -0.1965
     87  CA         7.7380  -14.2660   32.9060 C.3   186  VAL186      0.1727
     88  C          8.2350  -14.1560   34.3380 C.2   186  VAL186      0.2616
     89  O          9.4560  -14.2190   34.6270 O.2   186  VAL186     -0.2715
     90  CB         7.7870  -15.7250   32.4250 C.3   186  VAL186      0.0290
     91  CG1        6.9660  -15.8860   31.1410 C.3   186  VAL186      0.0023
     92  CG2        9.2080  -16.2130   32.2520 C.3   186  VAL186      0.0023
     93  N          7.2640  -13.9960   35.2270 N.am  187  SER187     -0.1950
     94  CA         7.4720  -13.8090   36.6590 C.3   187  SER187      0.1924
     95  C          6.4050  -14.5290   37.5350 C.2   187  SER187      0.2314
     96  O          5.1950  -14.5960   37.2240 O.2   187  SER187     -0.2863
     97  CB         7.4550  -12.3540   37.0040 C.3   187  SER187      0.2116
     98  OG         7.7080  -12.1610   38.4090 O.3   187  SER187     -0.2180
     99  N          5.2390  -17.5060   38.2530 N.3   189  LEU189     -0.1231
    100  CA         4.2520  -18.3020   37.5600 C.3   189  LEU189      0.1678
    101  C          3.1620  -18.7590   38.5540 C.2   189  LEU189      0.2434
    102  O          3.4410  -18.9420   39.7570 O.2   189  LEU189     -0.2733
    103  CB         4.9270  -19.5140   36.9280 C.3   189  LEU189      0.0284
    104  CG         6.0000  -19.2010   35.8650 C.3   189  LEU189      0.0019
    105  CD1        7.1410  -20.1910   35.8900 C.3   189  LEU189      0.0001
    106  CD2        5.3740  -19.1290   34.4850 C.3   189  LEU189      0.0001
    107  N          1.9320  -18.9410   38.0740 N.am  190  PRO190     -0.2729
    108  CA         0.8850  -19.3400   39.0070 C.3   190  PRO190      0.1401
    109  C          1.2900  -20.5840   39.8270 C.2   190  PRO190      0.2269
    110  O          1.8250  -21.5350   39.2430 O.2   190  PRO190     -0.2865
    111  CB        -0.2870  -19.6530   38.0850 C.3   190  PRO190      0.0296
    112  CG        -0.0280  -18.8620   36.8460 C.3   190  PRO190      0.0237
    113  CD         1.4510  -18.9060   36.6840 C.3   190  PRO190      0.0939
    114  N         -0.1110  -23.7760   38.3230 N.3   193  MET193     -0.1245
    115  CA         0.3960  -24.2690   37.0290 C.3   193  MET193      0.1570
    116  C          1.3790  -25.4380   37.2870 C.2   193  MET193      0.2261
    117  O          2.3070  -25.3430   38.1260 O.2   193  MET193     -0.2867
    118  CB         1.0900  -23.1140   36.2500 C.3   193  MET193      0.0387
    119  CG         2.0290  -23.5850   35.1210 C.3   193  MET193      0.0595
    120  SD         2.8460  -22.2270   34.2120 S.3   193  MET193     -0.1393
    121  CE         1.4660  -21.7550   33.1400 C.3   193  MET193      0.0692
    122  N          8.2020  -22.4550   30.1210 N.3   201  TRP201     -0.1241
    123  CA         8.5160  -21.0220   30.0860 C.3   201  TRP201      0.1605
    124  C          9.9450  -20.7870   30.5410 C.2   201  TRP201      0.2264
    125  O         10.6750  -20.0030   29.9290 O.2   201  TRP201     -0.2867
    126  CB         7.5560  -20.2060   30.9580 C.3   201  TRP201      0.0550
    127  CG         6.2270  -20.0350   30.3150 C.ar  201  TRP201      0.0003
    128  CD1        5.0710  -20.6490   30.6660 C.ar  201  TRP201      0.0946
    129  CD2        5.9180  -19.2050   29.1810 C.ar  201  TRP201      0.0152
    130  NE1        4.0460  -20.2550   29.8270 N.ar  201  TRP201     -0.2442
    131  CE2        4.5410  -19.3790   28.8990 C.ar  201  TRP201      0.0810
    132  CE3        6.6730  -18.3490   28.3630 C.ar  201  TRP201      0.0012
    133  CZ2        3.8980  -18.7110   27.8550 C.ar  201  TRP201      0.0191
    134  CZ3        6.0290  -17.6830   27.3110 C.ar  201  TRP201      0.0001
    135  CH2        4.6580  -17.8710   27.0730 C.ar  201  TRP201      0.0015
@<TRIPOS>BOND
     1    59    60    1
     2    59    58    1
     3    60    54    1
     4    50    49    1
     5    50    51    1
     6    46    49    1
     7    46    45    1
     8    46    47    1
     9    57    56    2
    10    54    47   am
    11    54    55    1
    12    51    53   am
    13    51    52    2
    14    58    55    1
    15    47    48    2
    16    55    56    1
    17    40    39    2
    18    44    43    1
    19    39    38    1
    20    38    41    1
    21    38    37    1
    22    43    42    1
    23    41    42    1
    24    61    62    1
    25    63    62    1
    26    63    64    2
    27    75    76    2
    28    75    74    1
    29    62    65    1
    30   135   134   ar
    31   135   133   ar
    32   134   132   ar
    33    73    74    1
    34    65    66    1
    35    32    31    2
    36    74    77    1
    37    68    66   ar
    38    68    70   ar
    39    77    78    1
    40   133   131   ar
    41    36    34   ar
    42    66    67   ar
    43    33    34    1
    44    33    30    1
    45   132   129   ar
    46    70    71   ar
    47    31    30    1
    48    34    35   ar
    49   131   129   ar
    50   131   130   ar
    51    78    79    1
    52   129   127   ar
    53    30    29    1
    54    67    69   ar
    55    71    69   ar
    56    71    72    1
    57   130   128   ar
    58    26    28   ar
    59    26    24   ar
    60   125   124    2
    61   123   122    1
    62   123   124    1
    63   123   126    1
    64    28    27   ar
    65    79    80    1
    66   127   128   ar
    67   127   126    1
    68    24    23   ar
    69    83    84    1
    70    83    82    1
    71    91    90    1
    72    85    84    2
    73    27    25   ar
    74    84    86   am
    75    80    81    1
    76    20    19    1
    77    20    21    2
    78    23    25   ar
    79    23    22    1
    80    19    22    1
    81    19    18    1
    82    86    87    1
    83    92    90    1
    84    90    87    1
    85    87    88    1
    86   121   120    1
    87    17    16    1
    88   120   119    1
    89    88    89    2
    90    88    93   am
    91   106   104    1
    92   119   118    1
    93    16    13    1
    94    93    94    1
    95    14    13    1
    96    14    15    2
    97    13    12    1
    98   104   105    1
    99   104   103    1
   100   118   115    1
   101    94    97    1
   102    94    95    1
   103   113   112    1
   104   113   107    1
   105   112   111    1
   106   103   100    1
   107    97    98    1
   108   115   116    1
   109   115   114    1
   110    96    95    2
   111   116   117    2
   112   100    99    1
   113   100   101    1
   114   107   101   am
   115   107   108    1
   116   111   108    1
   117   101   102    2
   118    11     9    1
   119   108   109    1
   120   110   109    2
   121     9    10    1
   122     9     8    2
   123     8     7    1
   124     7     6    1
   125     5     6    1
   126     5     2    1
   127     3     2    1
   128     3     4    2
   129     2     1    1
