@<TRIPOS>MOLECULE
tmp/4cmfA00.pdb
 201 192 0 0 0
SMALL
GASTEIGER

@<TRIPOS>ATOM
      1  N        -19.9710  -51.1170  -23.2790 N.3    58  TYR58      -0.1241
      2  CA       -19.3670  -50.2560  -24.2970 C.3    58  TYR58       0.1605
      3  C        -18.1650  -49.5990  -23.6860 C.2    58  TYR58       0.2264
      4  O        -17.9310  -49.6880  -22.4770 O.2    58  TYR58      -0.2867
      5  CB       -20.3750  -49.2040  -24.7860 C.3    58  TYR58       0.0534
      6  CG       -20.6250  -48.0160  -23.8800 C.ar   58  TYR58      -0.0201
      7  CD1      -21.1970  -48.1820  -22.5850 C.ar   58  TYR58      -0.0009
      8  CD2      -20.3430  -46.6990  -24.3290 C.ar   58  TYR58      -0.0009
      9  CE1      -21.4520  -47.0770  -21.7860 C.ar   58  TYR58       0.0417
     10  CE2      -20.6090  -45.5850  -23.5190 C.ar   58  TYR58       0.0417
     11  CZ       -21.1530  -45.7900  -22.2450 C.ar   58  TYR58       0.1957
     12  OH       -21.4090  -44.6970  -21.4230 O.3    58  TYR58      -0.2866
     13  N        -15.5940  -45.7870  -24.4280 N.3    60  VAL60      -0.1245
     14  CA       -15.3530  -44.5920  -25.2530 C.3    60  VAL60       0.1561
     15  C        -13.9600  -44.0220  -24.9940 C.2    60  VAL60       0.2260
     16  O        -13.8010  -43.1280  -24.1530 O.2    60  VAL60      -0.2867
     17  CB       -16.4440  -43.5080  -25.0510 C.3    60  VAL60       0.0252
     18  CG1      -16.2150  -42.3270  -26.0220 C.3    60  VAL60       0.0019
     19  CG2      -17.8320  -44.0880  -25.3220 C.3    60  VAL60       0.0019
     20  N         -8.6490  -48.2520  -22.1630 N.3    74  HIS74      -0.1241
     21  CA       -10.0570  -48.4340  -22.5660 C.3    74  HIS74       0.1621
     22  C        -10.3430  -49.8290  -23.0880 C.2    74  HIS74       0.2264
     23  O        -11.3880  -50.4030  -22.7660 O.2    74  HIS74      -0.2867
     24  CB       -10.4270  -47.3740  -23.6120 C.3    74  HIS74       0.0745
     25  CG       -10.5850  -46.0170  -23.0020 C.ar   74  HIS74       0.0817
     26  ND1      -11.7680  -45.5930  -22.4370 N.ar   74  HIS74      -0.2268
     27  CD2       -9.7000  -45.0020  -22.8550 C.ar   74  HIS74       0.1154
     28  CE1      -11.6080  -44.3620  -21.9670 C.ar   74  HIS74       0.1986
     29  NE2      -10.3610  -43.9830  -22.2080 N.ar   74  HIS74      -0.2212
     30  N        -10.3960  -52.2260  -20.1680 N.3    77  ARG77      -0.1245
     31  CA       -11.6330  -52.0630  -19.3910 C.3    77  ARG77       0.1563
     32  C        -12.8110  -52.7140  -20.1530 C.2    77  ARG77       0.2260
     33  O        -13.6040  -53.4440  -19.5530 O.2    77  ARG77      -0.2867
     34  CB       -11.9140  -50.5850  -19.1000 C.3    77  ARG77       0.0307
     35  CG       -13.1390  -50.4260  -18.1920 C.3    77  ARG77       0.0489
     36  CD       -13.3490  -48.9800  -17.7250 C.3    77  ARG77       0.2205
     37  NE       -13.6990  -48.0790  -18.8440 N.pl3  77  ARG77      -0.0865
     38  CZ       -13.8360  -46.7690  -18.7060 C.cat  77  ARG77       0.5346
     39  NH1      -13.6530  -46.1960  -17.4980 N.pl3  77  ARG77       0.1354
     40  NH2      -14.1840  -46.0230  -19.7600 N.pl3  77  ARG77       0.1354
     41  N        -14.4330  -38.5050  -30.4250 N.3   113  PHE113     -0.1241
     42  CA       -15.0950  -39.4550  -29.5750 C.3   113  PHE113      0.1605
     43  C        -15.0360  -40.8230  -30.3390 C.2   113  PHE113      0.2264
     44  O        -15.4120  -40.8520  -31.5150 O.2   113  PHE113     -0.2867
     45  CB       -16.5010  -38.8130  -29.4870 C.3   113  PHE113      0.0534
     46  CG       -17.5220  -39.5760  -28.7120 C.ar  113  PHE113     -0.0203
     47  CD1      -18.1340  -40.7030  -29.2430 C.ar  113  PHE113     -0.0042
     48  CD2      -17.9470  -39.0880  -27.4990 C.ar  113  PHE113     -0.0042
     49  CE1      -19.1000  -41.3740  -28.5310 C.ar  113  PHE113     -0.0003
     50  CE2      -18.9380  -39.7380  -26.7890 C.ar  113  PHE113     -0.0003
     51  CZ       -19.4970  -40.8930  -27.3060 C.ar  113  PHE113     -0.0000
     52  N        -16.3560  -44.6890  -29.9860 N.3   115  GLU115     -0.1245
     53  CA       -17.1510  -45.6140  -29.1910 C.3   115  GLU115      0.1567
     54  C        -17.1030  -47.0400  -29.7350 C.2   115  GLU115      0.2260
     55  O        -17.1250  -47.2750  -30.9540 O.2   115  GLU115     -0.2867
     56  CB       -18.6000  -45.1220  -29.0740 C.3   115  GLU115      0.0388
     57  CG       -19.4460  -46.0330  -28.1800 C.3   115  GLU115      0.1160
     58  CD       -20.6940  -45.3670  -27.6120 C.2   115  GLU115      0.3649
     59  OE1      -20.6400  -44.1690  -27.2280 O.co2 115  GLU115     -0.2457
     60  OE2      -21.7380  -46.0600  -27.5170 O.co2 115  GLU115     -0.2457
     61  N        -28.3500  -43.6760   -7.3260 N.3   168  ARG168     -0.1245
     62  CA       -27.6410  -44.4860   -8.3090 C.3   168  ARG168      0.1563
     63  C        -28.0980  -45.9470   -8.2130 C.2   168  ARG168      0.2260
     64  O        -28.3060  -46.4810   -7.1190 O.2   168  ARG168     -0.2867
     65  CB       -26.1280  -44.3670   -8.0410 C.3   168  ARG168      0.0307
     66  CG       -25.2230  -44.9310   -9.1460 C.3   168  ARG168      0.0489
     67  CD       -25.1880  -44.0630  -10.4260 C.3   168  ARG168      0.2205
     68  NE       -24.3330  -44.6910  -11.4410 N.pl3 168  ARG168     -0.0865
     69  CZ       -24.7520  -45.5880  -12.3380 C.cat 168  ARG168      0.5346
     70  NH1      -26.0410  -45.9320  -12.4090 N.pl3 168  ARG168      0.1354
     71  NH2      -23.8660  -46.1520  -13.1770 N.pl3 168  ARG168      0.1354
     72  N        -19.1370  -50.5820  -17.7610 N.3   179  LYS179     -0.1245
     73  CA       -19.6790  -49.3970  -18.4320 C.3   179  LYS179      0.1561
     74  C        -20.9170  -49.8220  -19.2310 C.2   179  LYS179      0.2260
     75  O        -20.8710  -50.7710  -20.0090 O.2   179  LYS179     -0.2867
     76  CB       -18.6170  -48.7510  -19.3310 C.3   179  LYS179      0.0271
     77  CG       -18.8110  -47.2550  -19.5690 C.3   179  LYS179      0.0035
     78  CD       -17.9810  -46.8220  -20.7860 C.3   179  LYS179      0.0206
     79  CE       -18.0360  -45.3300  -21.0200 C.3   179  LYS179      0.1093
     80  NZ       -17.1270  -44.5480  -20.1340 N.3   179  LYS179     -0.1314
     81  N        -29.2470  -46.1320  -18.5870 N.3   183  TRP183     -0.1241
     82  CA       -29.1110  -44.8360  -17.9470 C.3   183  TRP183      0.1605
     83  C        -30.3640  -44.3280  -17.2630 C.2   183  TRP183      0.2264
     84  O        -30.5310  -43.1240  -17.0860 O.2   183  TRP183     -0.2867
     85  CB       -28.6600  -43.8170  -19.0110 C.3   183  TRP183      0.0550
     86  CG       -27.1570  -43.6560  -19.1250 C.ar  183  TRP183      0.0003
     87  CD1      -26.2110  -44.6410  -19.1420 C.ar  183  TRP183      0.0946
     88  CD2      -26.4530  -42.4120  -19.2670 C.ar  183  TRP183      0.0152
     89  NE1      -24.9430  -44.0830  -19.2350 N.ar  183  TRP183     -0.2442
     90  CE2      -25.0660  -42.7210  -19.3210 C.ar  183  TRP183      0.0810
     91  CE3      -26.8590  -41.0720  -19.3110 C.ar  183  TRP183      0.0012
     92  CZ2      -24.0580  -41.7150  -19.4630 C.ar  183  TRP183      0.0191
     93  CZ3      -25.8670  -40.0680  -19.4430 C.ar  183  TRP183      0.0001
     94  CH2      -24.4900  -40.4060  -19.5170 C.ar  183  TRP183      0.0015
     95  N        -29.5960  -42.0300  -14.3550 N.3   186  LEU186     -0.1245
     96  CA       -28.7960  -40.8610  -14.7720 C.3   186  LEU186      0.1561
     97  C        -29.6820  -39.8800  -15.5590 C.2   186  LEU186      0.2260
     98  O        -29.5540  -38.6450  -15.4090 O.2   186  LEU186     -0.2867
     99  CB       -27.5900  -41.3230  -15.5990 C.3   186  LEU186      0.0270
    100  CG       -26.6520  -42.2910  -14.8340 C.3   186  LEU186      0.0019
    101  CD1      -25.4760  -42.6810  -15.7290 C.3   186  LEU186      0.0001
    102  CD2      -26.1580  -41.6100  -13.5490 C.3   186  LEU186      0.0001
    103  N        -21.4810  -40.9680   -8.5310 N.3   212  GLU212     -0.1231
    104  CA       -21.0390  -40.3230   -9.7680 C.3   212  GLU212      0.1699
    105  C        -22.2440  -39.6030  -10.3610 C.2   212  GLU212      0.2592
    106  O        -23.3200  -39.5540   -9.7560 O.2   212  GLU212     -0.2718
    107  CB       -20.4830  -41.3700  -10.7770 C.3   212  GLU212      0.0402
    108  CG       -21.4770  -42.4430  -11.1610 C.3   212  GLU212      0.1161
    109  CD       -20.8550  -43.5670  -11.9760 C.2   212  GLU212      0.3649
    110  OE1      -19.6790  -43.4480  -12.4190 O.co2 212  GLU212     -0.2457
    111  OE2      -21.5330  -44.5960  -12.1550 O.co2 212  GLU212     -0.2457
    112  N        -22.0620  -39.0460  -11.5540 N.am  213  GLY213     -0.1957
    113  CA       -23.1470  -38.3570  -12.2230 C.3   213  GLY213      0.1869
    114  C        -23.3950  -38.9050  -13.5980 C.2   213  GLY213      0.2309
    115  O        -22.9110  -39.9880  -13.9500 O.2   213  GLY213     -0.2863
    116  N        -22.5330  -39.2610  -16.7470 N.3   215  GLY215     -0.1210
    117  CA       -21.4320  -39.2270  -17.7250 C.3   215  GLY215      0.1956
    118  C        -20.1140  -38.7190  -17.1600 C.2   215  GLY215      0.2612
    119  O        -19.2510  -38.2640  -17.9100 O.2   215  GLY215     -0.2717
    120  N        -19.9440  -38.8110  -15.8300 N.am  216  PHE216     -0.1962
    121  CA       -18.7090  -38.3170  -15.2160 C.3   216  PHE216      0.1771
    122  C        -18.5070  -38.8810  -13.8110 C.2   216  PHE216      0.2619
    123  O        -19.4730  -39.2140  -13.1080 O.2   216  PHE216     -0.2715
    124  CB       -18.6900  -36.7570  -15.1630 C.3   216  PHE216      0.0574
    125  CG       -19.8950  -36.1600  -14.4790 C.ar  216  PHE216     -0.0200
    126  CD1      -19.9090  -36.0250  -13.0760 C.ar  216  PHE216     -0.0042
    127  CD2      -21.0260  -35.7740  -15.2040 C.ar  216  PHE216     -0.0042
    128  CE1      -21.0320  -35.5060  -12.4280 C.ar  216  PHE216     -0.0003
    129  CE2      -22.1440  -35.2440  -14.5540 C.ar  216  PHE216     -0.0003
    130  CZ       -22.1540  -35.1220  -13.1640 C.ar  216  PHE216     -0.0000
    131  N        -17.2290  -38.9850  -13.4160 N.am  217  ASN217     -0.1972
    132  CA       -16.9140  -39.1730  -11.9930 C.3   217  ASN217      0.1688
    133  C        -16.7820  -37.8130  -11.2820 C.2   217  ASN217      0.2292
    134  O        -16.6670  -36.7710  -11.9300 O.2   217  ASN217     -0.2864
    135  CB       -15.6140  -39.9430  -11.8290 C.3   217  ASN217      0.1181
    136  CG       -15.7260  -41.3760  -12.2920 C.2   217  ASN217      0.2629
    137  OD1      -15.0860  -41.7560  -13.2760 O.2   217  ASN217     -0.2716
    138  ND2      -16.5210  -42.1820  -11.5870 N.am  217  ASN217     -0.0877
    139  N        -18.3110  -45.9810  -12.0040 N.3   234  LEU234     -0.1245
    140  CA       -17.3710  -46.4350  -13.0330 C.3   234  LEU234      0.1561
    141  C        -15.9540  -46.0780  -12.5970 C.2   234  LEU234      0.2260
    142  O        -15.7270  -44.9900  -12.0990 O.2   234  LEU234     -0.2867
    143  CB       -17.6700  -45.7320  -14.3530 C.3   234  LEU234      0.0270
    144  CG       -16.8890  -46.2760  -15.5560 C.3   234  LEU234      0.0019
    145  CD1      -17.4240  -47.6560  -15.9720 C.3   234  LEU234      0.0001
    146  CD2      -16.9700  -45.3000  -16.7390 C.3   234  LEU234      0.0001
    147  N        -13.3580  -44.6260  -13.8670 N.3   236  GLY236     -0.1210
    148  CA       -13.1050  -43.8290  -15.0890 C.3   236  GLY236      0.1956
    149  C        -11.6350  -43.8130  -15.5070 C.2   236  GLY236      0.2612
    150  O        -10.7380  -43.8720  -14.6720 O.2   236  GLY236     -0.2717
    151  N        -11.4050  -43.7620  -16.8190 N.am  237  ILE237     -0.1965
    152  CA       -10.0290  -43.5840  -17.3120 C.3   237  ILE237      0.1727
    153  C         -9.5730  -42.1520  -17.0410 C.2   237  ILE237      0.2617
    154  O         -8.3920  -41.9000  -16.8280 O.2   237  ILE237     -0.2715
    155  CB        -9.9080  -43.9690  -18.8120 C.3   237  ILE237      0.0290
    156  CG1      -10.2920  -45.4460  -19.0380 C.3   237  ILE237      0.0022
    157  CG2       -8.4800  -43.7270  -19.3230 C.3   237  ILE237      0.0023
    158  CD1       -9.7210  -46.4140  -18.0170 C.3   237  ILE237      0.0001
    159  N        -10.5090  -41.2120  -17.0410 N.am  238  THR238     -0.1937
    160  CA       -10.1500  -39.8350  -16.7030 C.3   238  THR238      0.2028
    161  C         -9.8100  -39.7850  -15.2140 C.2   238  THR238      0.2642
    162  O         -8.8120  -39.1630  -14.7830 O.2   238  THR238     -0.2714
    163  CB       -11.2860  -38.8400  -17.0090 C.3   238  THR238      0.1808
    164  OG1      -11.8130  -39.0980  -18.3140 O.3   238  THR238     -0.2208
    165  CG2      -10.7080  -37.3970  -17.0190 C.3   238  THR238      0.0379
    166  N        -10.6310  -40.4490  -14.4080 N.am  239  ARG239     -0.1977
    167  CA       -10.3660  -40.5590  -12.9800 C.3   239  ARG239      0.1597
    168  C         -8.9750  -41.1990  -12.7380 C.2   239  ARG239      0.2287
    169  O         -8.2220  -40.7440  -11.8650 O.2   239  ARG239     -0.2864
    170  CB       -11.4700  -41.3900  -12.3190 C.3   239  ARG239      0.0334
    171  CG       -11.3420  -41.3330  -10.8100 C.3   239  ARG239      0.0492
    172  CD       -12.3470  -42.2190  -10.1560 C.3   239  ARG239      0.2205
    173  NE       -11.8710  -43.5780  -10.2070 N.pl3 239  ARG239     -0.0865
    174  CZ       -12.2540  -44.5240   -9.3890 C.cat 239  ARG239      0.5346
    175  NH1      -13.1620  -44.2730   -8.4620 N.pl3 239  ARG239      0.1354
    176  NH2      -11.7360  -45.7210   -9.5340 N.pl3 239  ARG239      0.1354
    177  N        -14.9710  -35.3860  -13.9110 N.3   272  CYS272     -0.1221
    178  CA       -13.9860  -35.8720  -14.8830 C.3   272  CYS272      0.1808
    179  C        -14.5920  -36.9490  -15.7880 C.2   272  CYS272      0.2602
    180  O        -15.3860  -37.7990  -15.3500 O.2   272  CYS272     -0.2717
    181  CB       -12.6700  -36.3320  -14.2240 C.3   272  CYS272      0.0970
    182  SG       -12.8360  -37.6670  -13.0360 S.3   272  CYS272     -0.0800
    183  N        -14.2850  -36.8470  -17.0750 N.am  273  THR273     -0.1939
    184  CA       -14.8280  -37.7460  -18.0640 C.3   273  THR273      0.2028
    185  C        -14.0630  -37.6290  -19.3690 C.2   273  THR273      0.2643
    186  O        -13.4220  -36.6040  -19.6200 O.2   273  THR273     -0.2714
    187  CB       -16.2960  -37.3810  -18.3520 C.3   273  THR273      0.1808
    188  OG1      -16.8400  -38.3420  -19.2590 O.3   273  THR273     -0.2208
    189  CG2      -16.4010  -35.9550  -18.9620 C.3   273  THR273      0.0379
    190  N        -14.1170  -38.6580  -20.2110 N.am  274  THR274     -0.1936
    191  CA       -13.4800  -38.5530  -21.5070 C.3   274  THR274      0.2028
    192  C        -14.1780  -37.4960  -22.3610 C.2   274  THR274      0.2642
    193  O        -13.5310  -36.7970  -23.1470 O.2   274  THR274     -0.2714
    194  CB       -13.5040  -39.9290  -22.2110 C.3   274  THR274      0.1808
    195  OG1      -12.7610  -40.8610  -21.4130 O.3   274  THR274     -0.2208
    196  CG2      -12.8820  -39.8630  -23.5990 C.3   274  THR274      0.0379
    197  N        -15.4930  -37.3700  -22.1790 N.am  275  ALA275     -0.1977
    198  CA       -16.2770  -36.4090  -22.9340 C.3   275  ALA275      0.1597
    199  C        -16.1900  -34.9960  -22.3490 C.2   275  ALA275      0.2287
    200  O        -17.2080  -34.4110  -21.9330 O.2   275  ALA275     -0.2864
    201  CB       -17.7470  -36.8750  -22.9920 C.3   275  ALA275      0.0319
@<TRIPOS>BOND
     1    44    43    2
     2    55    54    2
     3    41    42    1
     4    43    42    1
     5    52    53    1
     6    54    53    1
     7    42    45    1
     8    45    46    1
     9    47    46   ar
    10    47    49   ar
    11    53    56    1
    12    56    57    1
    13    46    48   ar
    14    49    51   ar
    15    57    58    1
    16    58    60   ar
    17    58    59   ar
    18    48    50   ar
    19    51    50   ar
    20    18    17    1
    21    19    17    1
    22    14    17    1
    23    14    15    1
    24    14    13    1
    25    15    16    2
    26     5     2    1
    27     5     6    1
    28     8     6   ar
    29     8    10   ar
    30     2     3    1
    31     2     1    1
    32     6     7   ar
    33     3     4    2
    34    24    25    1
    35    24    21    1
    36   196   194    1
    37    10    11   ar
    38   193   192    2
    39    22    23    2
    40    22    21    1
    41    25    27   ar
    42    25    26   ar
    43   201   198    1
    44   198   199    1
    45   198   197    1
    46    27    29   ar
    47     7     9   ar
    48    21    20    1
    49    26    28   ar
    50   192   197   am
    51   192   191    1
    52   199   200    2
    53    11     9   ar
    54    11    12    1
    55   194   191    1
    56   194   195    1
    57    29    28   ar
    58   191   190    1
    59    79    78    1
    60    79    80    1
    61    78    77    1
    62   190   185   am
    63    30    31    1
    64    32    33    2
    65    32    31    1
    66    75    74    2
    67    40    38    1
    68   186   185    2
    69    77    76    1
    70    94    92   ar
    71    94    93   ar
    72    92    90   ar
    73    93    91   ar
    74    31    34    1
    75   185   184    1
    76    76    73    1
    77   157   155    1
    78    90    88   ar
    79    90    89   ar
    80    91    88   ar
    81    88    86   ar
    82   188   187    1
    83    89    87   ar
    84    74    73    1
    85    87    86   ar
    86    86    85    1
    87    34    35    1
    88   156   155    1
    89   156   158    1
    90    85    82    1
    91   189   187    1
    92    37    38    2
    93    37    36    1
    94   155   152    1
    95    38    39    1
    96    81    82    1
    97    73    72    1
    98   187   184    1
    99   164   163    1
   100    35    36    1
   101   184   183    1
   102    82    83    1
   103   119   118    2
   104   117   118    1
   105   117   116    1
   106   152   153    1
   107   152   151    1
   108    83    84    2
   109   118   120   am
   110   183   179   am
   111   153   159   am
   112   153   154    2
   113   159   160    1
   114   165   163    1
   115   163   160    1
   116   151   149   am
   117   146   144    1
   118   160   161    1
   119   145   144    1
   120   120   121    1
   121   179   180    2
   122   179   178    1
   123   101   100    1
   124    99   100    1
   125    99    96    1
   126    97    98    2
   127    97    96    1
   128   144   143    1
   129   149   148    1
   130   149   150    2
   131   121   124    1
   132   121   122    1
   133   161   162    2
   134   161   166   am
   135   127   129   ar
   136   127   125   ar
   137   124   125    1
   138   148   147    1
   139   178   181    1
   140   178   177    1
   141   100   102    1
   142    96    95    1
   143   129   130   ar
   144   125   126   ar
   145   166   167    1
   146   143   140    1
   147   181   182    1
   148   115   114    2
   149   122   131   am
   150   122   123    2
   151   114   113    1
   152   131   132    1
   153   137   136    2
   154    71    69    1
   155   130   128   ar
   156   126   128   ar
   157   140   141    1
   158   140   139    1
   159   167   168    1
   160   167   170    1
   161   168   169    2
   162   141   142    2
   163   110   109   ar
   164    70    69    1
   165    69    68    2
   166   170   171    1
   167   136   135    1
   168   136   138   am
   169   113   112    1
   170   111   109   ar
   171   132   135    1
   172   132   133    1
   173   109   108    1
   174   134   133    2
   175   112   105   am
   176    68    67    1
   177   108   107    1
   178   171   172    1
   179   107   104    1
   180    67    66    1
   181   105   104    1
   182   105   106    2
   183   173   172    1
   184   173   174    2
   185   104   103    1
   186   176   174    1
   187   174   175    1
   188    66    65    1
   189    62    63    1
   190    62    65    1
   191    62    61    1
   192    63    64    2
