@<TRIPOS>MOLECULE
tmp/4cmgC01.pdb
 157 151 0 0 0
SMALL
GASTEIGER

@<TRIPOS>ATOM
      1  N         33.3310   13.9730   32.8010 N.3    13  ARG13      -0.1245
      2  CA        31.9230   13.9890   32.4690 C.3    13  ARG13       0.1563
      3  C         31.1990   12.6920   32.9010 C.2    13  ARG13       0.2260
      4  O         31.3890   12.2420   34.0210 O.2    13  ARG13      -0.2867
      5  CB        31.7940   14.2860   30.9690 C.3    13  ARG13       0.0307
      6  CG        32.3270   15.6690   30.6220 C.3    13  ARG13       0.0489
      7  CD        32.6150   15.8600   29.1510 C.3    13  ARG13       0.2205
      8  NE        31.4310   15.6440   28.3410 N.pl3  13  ARG13      -0.0865
      9  CZ        30.4540   16.5070   28.1300 C.cat  13  ARG13       0.5346
     10  NH1       30.4670   17.7220   28.6730 N.pl3  13  ARG13       0.1354
     11  NH2       29.4180   16.1250   27.3960 N.pl3  13  ARG13       0.1354
     12  N         32.9600    7.5500   23.5790 N.3    94  SER94      -0.1217
     13  CA        32.2030    7.7830   22.3770 C.3    94  SER94       0.1889
     14  C         32.7260    8.9800   21.6560 C.2    94  SER94       0.2288
     15  O         32.8120   10.0600   22.2520 O.2    94  SER94      -0.2866
     16  CB        30.7530    8.0240   22.7810 C.3    94  SER94       0.2089
     17  OG        29.9850    8.5680   21.7460 O.3    94  SER94      -0.2183
     18  N         31.9060   11.8330   18.8710 N.3    96  PHE96      -0.1241
     19  CA        30.6870   12.5720   18.5830 C.3    96  PHE96       0.1605
     20  C         30.9460   13.8350   17.7440 C.2    96  PHE96       0.2264
     21  O         31.3780   14.8380   18.2700 O.2    96  PHE96      -0.2867
     22  CB        29.9800   13.0020   19.8950 C.3    96  PHE96       0.0534
     23  CG        28.6500   13.6950   19.6830 C.ar   96  PHE96      -0.0203
     24  CD1       27.5650   12.9930   19.1930 C.ar   96  PHE96      -0.0042
     25  CD2       28.4860   15.0560   19.9520 C.ar   96  PHE96      -0.0042
     26  CE1       26.3650   13.5940   18.9960 C.ar   96  PHE96      -0.0003
     27  CE2       27.2650   15.6700   19.7650 C.ar   96  PHE96      -0.0003
     28  CZ        26.2020   14.9410   19.2900 C.ar   96  PHE96      -0.0000
     29  N         21.6770    5.9590   23.6400 N.3   143  ASP143     -0.1239
     30  CA        21.2650    7.3060   23.2620 C.3   143  ASP143      0.1674
     31  C         19.7220    7.3020   23.1070 C.2   143  ASP143      0.2266
     32  O         19.2000    6.6400   22.2690 O.2   143  ASP143     -0.2867
     33  CB        21.9990    7.7240   21.9860 C.3   143  ASP143      0.1410
     34  CG        21.5950    9.1160   21.4920 C.2   143  ASP143      0.3668
     35  OD1       20.4120    9.4430   21.5300 O.co2 143  ASP143     -0.2456
     36  OD2       22.4270    9.9240   21.0850 O.co2 143  ASP143     -0.2456
     37  N         17.7180    9.4410   21.9420 N.3   145  MET145     -0.1245
     38  CA        17.2140   10.1440   20.7530 C.3   145  MET145      0.1570
     39  C         17.5780    9.4160   19.4460 C.2   145  MET145      0.2261
     40  O         17.5330   10.0150   18.3560 O.2   145  MET145     -0.2867
     41  CB        17.7590   11.5940   20.7260 C.3   145  MET145      0.0387
     42  CG        17.4190   12.3970   21.9880 C.3   145  MET145      0.0595
     43  SD        15.6620   12.6350   22.0680 S.3   145  MET145     -0.1393
     44  CE        15.3840   13.7180   20.7030 C.3   145  MET145      0.0692
     45  N         15.1290    9.7000   16.6720 N.3   148  GLN148     -0.1231
     46  CA        14.9010   11.0460   16.1650 C.3   148  GLN148      0.1683
     47  C         16.2600   11.7700   16.1220 C.2   148  GLN148      0.2434
     48  O         16.5350   12.6670   16.9240 O.2   148  GLN148     -0.2733
     49  CB        13.9360   11.8240   17.0500 C.3   148  GLN148      0.0380
     50  CG        12.6310   11.1210   17.3030 C.3   148  GLN148      0.0905
     51  CD        12.4640   10.7390   18.7720 C.2   148  GLN148      0.2608
     52  OE1       12.7960    9.6130   19.1810 O.2   148  GLN148     -0.2717
     53  NE2       11.9680   11.6810   19.5630 N.am  148  GLN148     -0.0878
     54  N         17.1120   11.3410   15.1940 N.am  149  PRO149     -0.2718
     55  CA        18.5000   11.7330   15.2290 C.3   149  PRO149      0.1535
     56  C         18.7300   13.2030   14.9160 C.2   149  PRO149      0.2598
     57  O         17.8800   13.8430   14.3010 O.2   149  PRO149     -0.2715
     58  CB        19.1060   10.8940   14.1290 C.3   149  PRO149      0.0310
     59  CG        18.0010   10.7570   13.1360 C.3   149  PRO149      0.0237
     60  CD        16.8080   10.5100   14.0170 C.3   149  PRO149      0.0939
     61  N         19.8860   13.7110   15.3180 N.am  150  CYS150     -0.1968
     62  CA        20.2840   15.0780   14.9350 C.3   150  CYS150      0.1712
     63  C         20.7160   15.0910   13.5000 C.2   150  CYS150      0.2296
     64  O         21.2760   14.1270   12.9940 O.2   150  CYS150     -0.2864
     65  CB        21.4220   15.5710   15.7890 C.3   150  CYS150      0.0983
     66  SG        20.9430   15.6500   17.5120 S.3   150  CYS150     -0.0798
     67  N         27.4130    8.6800   13.7580 N.3   156  TYR156     -0.1241
     68  CA        27.2250    8.5730   15.2100 C.3   156  TYR156      0.1605
     69  C         25.9760    7.7560   15.5300 C.2   156  TYR156      0.2264
     70  O         26.0020    6.8520   16.3520 O.2   156  TYR156     -0.2867
     71  CB        27.0810    9.9280   15.8460 C.3   156  TYR156      0.0534
     72  CG        26.5270    9.8750   17.2640 C.ar  156  TYR156     -0.0201
     73  CD1       27.3470    9.5570   18.3510 C.ar  156  TYR156     -0.0009
     74  CD2       25.1990   10.1860   17.5120 C.ar  156  TYR156     -0.0009
     75  CE1       26.8320    9.4960   19.6350 C.ar  156  TYR156      0.0417
     76  CE2       24.6820   10.1640   18.8050 C.ar  156  TYR156      0.0417
     77  CZ        25.5030    9.8240   19.8480 C.ar  156  TYR156      0.1957
     78  OH        24.9960    9.8040   21.1070 O.3   156  TYR156     -0.2866
     79  N         25.3520    4.1960   17.5080 N.3   160  LYS160     -0.1245
     80  CA        24.4430    4.0170   18.6330 C.3   160  LYS160      0.1561
     81  C         23.3430    2.9510   18.3710 C.2   160  LYS160      0.2260
     82  O         23.0120    2.2410   19.2460 O.2   160  LYS160     -0.2867
     83  CB        23.8630    5.3520   19.0620 C.3   160  LYS160      0.0271
     84  CG        24.8620    6.2940   19.7520 C.3   160  LYS160      0.0035
     85  CD        25.6030    5.6350   20.9140 C.3   160  LYS160      0.0206
     86  CE        26.1980    6.6460   21.8720 C.3   160  LYS160      0.1093
     87  NZ        27.3150    6.1730   22.7280 N.3   160  LYS160     -0.1314
     88  N         19.5230   11.4730   27.5610 N.3   187  GLY187     -0.1210
     89  CA        18.9940   12.4960   26.6830 C.3   187  GLY187      0.1956
     90  C         19.9860   13.5870   26.3410 C.2   187  GLY187      0.2612
     91  O         20.8360   13.4240   25.4400 O.2   187  GLY187     -0.2717
     92  N         19.8270   14.7420   26.9500 N.am  188  VAL188     -0.1965
     93  CA        20.8520   15.7700   26.8550 C.3   188  VAL188      0.1727
     94  C         21.4140   15.9350   28.2800 C.2   188  VAL188      0.2617
     95  O         20.6650   16.0070   29.2540 O.2   188  VAL188     -0.2715
     96  CB        20.2930   17.0600   26.2260 C.3   188  VAL188      0.0290
     97  CG1       19.4720   17.8470   27.2070 C.3   188  VAL188      0.0023
     98  CG2       21.4150   17.9440   25.7170 C.3   188  VAL188      0.0023
     99  N         22.7330   15.9110   28.3780 N.am  189  SER189     -0.1936
    100  CA        23.4690   15.9620   29.6250 C.3   189  SER189      0.2055
    101  C         24.7890   16.7210   29.3620 C.2   189  SER189      0.2643
    102  O         25.3930   16.5600   28.3040 O.2   189  SER189     -0.2714
    103  CB        23.7820   14.5440   30.0900 C.3   189  SER189      0.2130
    104  OG        24.4860   14.5710   31.3380 O.3   189  SER189     -0.2179
    105  N         25.2470   17.4990   30.3450 N.am  190  LEU190     -0.1963
    106  CA        26.5300   18.2120   30.2950 C.3   190  LEU190      0.1728
    107  C         26.7820   19.0150   29.0220 C.2   190  LEU190      0.2616
    108  O         27.6380   18.7280   28.1790 O.2   190  LEU190     -0.2715
    109  CB        27.6880   17.2650   30.6030 C.3   190  LEU190      0.0311
    110  CG        27.6060   16.5120   31.9190 C.3   190  LEU190      0.0022
    111  CD1       28.7510   15.5210   32.0350 C.3   190  LEU190      0.0001
    112  CD2       27.5870   17.4380   33.1190 C.3   190  LEU190      0.0001
    113  N         26.0820   20.1180   28.9400 N.am  191  LEU191     -0.1964
    114  CA        26.1890   20.9810   27.7880 C.3   191  LEU191      0.1713
    115  C         27.6420   21.5190   27.7150 C.2   191  LEU191      0.2458
    116  O         28.2700   21.7400   28.7430 O.2   191  LEU191     -0.2730
    117  CB        25.1570   22.1130   27.8670 C.3   191  LEU191      0.0310
    118  CG        23.7720   21.5640   28.2750 C.3   191  LEU191      0.0022
    119  CD1       22.7270   22.6810   28.2800 C.3   191  LEU191      0.0001
    120  CD2       23.3240   20.3760   27.4050 C.3   191  LEU191      0.0001
    121  N         28.1850   21.6770   26.5050 N.am  192  PRO192     -0.2727
    122  CA        29.5480   22.1530   26.5060 C.3   192  PRO192      0.1402
    123  C         29.5970   23.5660   27.1110 C.2   192  PRO192      0.2269
    124  O         28.6490   24.3440   26.9690 O.2   192  PRO192     -0.2865
    125  CB        29.9310   22.1550   25.0300 C.3   192  PRO192      0.0296
    126  CG        28.7050   21.7240   24.2390 C.3   192  PRO192      0.0237
    127  CD        27.5440   21.7590   25.1790 C.3   192  PRO192      0.0939
    128  N         29.2610   26.5100   24.5970 N.3   195  MET195     -0.1245
    129  CA        28.0110   26.8750   23.9740 C.3   195  MET195      0.1570
    130  C         27.4500   28.1460   24.6340 C.2   195  MET195      0.2261
    131  O         27.6210   28.3680   25.8410 O.2   195  MET195     -0.2867
    132  CB        27.0780   25.6590   24.0980 C.3   195  MET195      0.0387
    133  CG        25.7440   25.7300   23.3880 C.3   195  MET195      0.0595
    134  SD        24.7620   24.2140   23.6690 S.3   195  MET195     -0.1393
    135  CE        25.6240   22.9480   22.7280 C.3   195  MET195      0.0692
    136  N         18.0340   24.0400   24.0690 N.3   203  TRP203     -0.1241
    137  CA        18.0040   22.6060   24.4070 C.3   203  TRP203      0.1605
    138  C         17.3170   22.3280   25.7240 C.2   203  TRP203      0.2264
    139  O         16.6030   21.3240   25.8640 O.2   203  TRP203     -0.2867
    140  CB        19.4100   21.9770   24.4000 C.3   203  TRP203      0.0550
    141  CG        19.8540   21.6800   23.0160 C.ar  203  TRP203      0.0003
    142  CD1       20.4860   22.5360   22.1590 C.ar  203  TRP203      0.0946
    143  CD2       19.6240   20.4760   22.2850 C.ar  203  TRP203      0.0152
    144  NE1       20.6690   21.9350   20.9420 N.ar  203  TRP203     -0.2442
    145  CE2       20.1760   20.6600   20.9990 C.ar  203  TRP203      0.0810
    146  CE3       19.0270   19.2460   22.5970 C.ar  203  TRP203      0.0012
    147  CZ2       20.1470   19.6680   20.0300 C.ar  203  TRP203      0.0191
    148  CZ3       18.9940   18.2650   21.6330 C.ar  203  TRP203      0.0001
    149  CH2       19.5470   18.4780   20.3600 C.ar  203  TRP203      0.0015
    150  N         12.5060   13.8290   27.0960 N.3   245  LEU245     -0.1245
    151  CA        12.8790   14.5370   25.8130 C.3   245  LEU245      0.1561
    152  C         12.4860   13.7480   24.5590 C.2   245  LEU245      0.2260
    153  O         11.9250   14.2710   23.5970 O.2   245  LEU245     -0.2867
    154  CB        14.3900   14.8080   25.8100 C.3   245  LEU245      0.0270
    155  CG        14.9980   15.4320   24.5680 C.3   245  LEU245      0.0019
    156  CD1       14.4250   16.8480   24.3760 C.3   245  LEU245      0.0001
    157  CD2       16.5070   15.5000   24.6900 C.3   245  LEU245      0.0001
@<TRIPOS>BOND
     1    64    63    2
     2    59    60    1
     3    59    58    1
     4    63    62    1
     5    67    68    1
     6    60    54    1
     7    58    55    1
     8    57    56    2
     9    56    55    1
    10    56    61   am
    11    62    61    1
    12    62    65    1
    13    54    55    1
    14    54    47   am
    15    68    69    1
    16    68    71    1
    17    69    70    2
    18    65    66    1
    19    71    72    1
    20    47    46    1
    21    47    48    2
    22    46    45    1
    23    46    49    1
    24    49    50    1
    25    72    74   ar
    26    72    73   ar
    27    50    51    1
    28    79    80    1
    29    74    76   ar
    30    20    21    2
    31    20    19    1
    32    73    75   ar
    33    40    39    2
    34    81    80    1
    35    81    82    2
    36    19    18    1
    37    19    22    1
    38    80    83    1
    39    51    52    2
    40    51    53   am
    41    76    77   ar
    42    26    24   ar
    43    26    28   ar
    44    83    84    1
    45    24    23   ar
    46    28    27   ar
    47    39    38    1
    48    75    77   ar
    49    23    22    1
    50    23    25   ar
    51    84    85    1
    52    27    25   ar
    53    77    78    1
    54   147   149   ar
    55   147   145   ar
    56   149   148   ar
    57    44    43    1
    58    41    38    1
    59    41    42    1
    60    38    37    1
    61    85    86    1
    62   144   145   ar
    63   144   142   ar
    64   145   143   ar
    65    36    34   ar
    66    34    35   ar
    67    34    33    1
    68   148   146   ar
    69    14    15    2
    70    14    13    1
    71    17    16    1
    72    86    87    1
    73    33    30    1
    74    42    43    1
    75   142   141   ar
    76    32    31    2
    77   143   146   ar
    78   143   141   ar
    79    13    16    1
    80    13    12    1
    81   135   134    1
    82   141   140    1
    83    31    30    1
    84    30    29    1
    85   133   134    1
    86   133   132    1
    87   153   152    2
    88   129   132    1
    89   129   128    1
    90   129   130    1
    91   136   137    1
    92   126   125    1
    93   126   127    1
    94   156   155    1
    95   140   137    1
    96   137   138    1
    97   152   151    1
    98   155   157    1
    99   155   154    1
   100   130   131    2
   101   125   122    1
   102   127   121    1
   103    91    90    2
   104    98    96    1
   105   138   139    2
   106   154   151    1
   107   151   150    1
   108    96    93    1
   109    96    97    1
   110    90    89    1
   111    90    92   am
   112   121   122    1
   113   121   115   am
   114   122   123    1
   115    89    88    1
   116    93    92    1
   117    93    94    1
   118   124   123    2
   119    11     9    1
   120   120   118    1
   121   115   114    1
   122   115   116    2
   123   114   117    1
   124   114   113    1
   125   117   118    1
   126     9     8    2
   127     9    10    1
   128   108   107    2
   129   118   119    1
   130    94    99   am
   131    94    95    2
   132   102   101    2
   133     8     7    1
   134    99   100    1
   135   113   107   am
   136   107   106    1
   137     7     6    1
   138   101   100    1
   139   101   105   am
   140   100   103    1
   141   103   104    1
   142   106   105    1
   143   106   109    1
   144   109   110    1
   145     6     5    1
   146     5     2    1
   147   110   111    1
   148   110   112    1
   149     2     1    1
   150     2     3    1
   151     3     4    2
