@<TRIPOS>MOLECULE
tmp/4cmkB01.pdb
 149 144 0 0 0
SMALL
GASTEIGER

@<TRIPOS>ATOM
      1  N        -17.2090   15.1220   -7.7250 N.3    13  ARG13      -0.1245
      2  CA       -16.2810   15.2830   -6.5900 C.3    13  ARG13       0.1563
      3  C        -15.4700   13.9860   -6.4130 C.2    13  ARG13       0.2260
      4  O        -14.9380   13.4570   -7.4010 O.2    13  ARG13      -0.2867
      5  CB       -17.0650   15.7430   -5.3640 C.3    13  ARG13       0.0307
      6  CG       -17.7030   17.1150   -5.5890 C.3    13  ARG13       0.0489
      7  CD       -18.7280   17.5330   -4.5480 C.3    13  ARG13       0.2205
      8  NE       -18.2780   17.2610   -3.1620 N.pl3  13  ARG13      -0.0865
      9  CZ       -17.5110   18.0790   -2.4440 C.cat  13  ARG13       0.5346
     10  NH1      -17.1260   19.2580   -2.9420 N.pl3  13  ARG13       0.1354
     11  NH2      -17.1770   17.7490   -1.2080 N.pl3  13  ARG13       0.1354
     12  N        -22.8830    9.5180    0.0850 N.3    94  SER94      -0.1217
     13  CA       -23.0310    9.9390    1.4410 C.3    94  SER94       0.1889
     14  C        -23.8110   11.2340    1.5610 C.2    94  SER94       0.2288
     15  O        -23.5140   12.1880    0.8680 O.2    94  SER94      -0.2866
     16  CB       -21.6360   10.1890    2.0410 C.3    94  SER94       0.2089
     17  OG       -21.7190   11.0240    3.1890 O.3    94  SER94      -0.2183
     18  N        -24.7040   14.2750    4.2510 N.3    96  PHE96      -0.1241
     19  CA       -23.8880   14.9600    5.2220 C.3    96  PHE96       0.1605
     20  C        -24.5460   16.2740    5.5290 C.2    96  PHE96       0.2264
     21  O        -24.6160   17.0860    4.6630 O.2    96  PHE96      -0.2867
     22  CB       -22.4700   15.1830    4.6390 C.3    96  PHE96       0.0534
     23  CG       -21.5780   16.0510    5.4630 C.ar   96  PHE96      -0.0203
     24  CD1      -20.8720   15.5350    6.5710 C.ar   96  PHE96      -0.0042
     25  CD2      -21.3670   17.3810    5.0940 C.ar   96  PHE96      -0.0042
     26  CE1      -20.0390   16.3430    7.3420 C.ar   96  PHE96      -0.0003
     27  CE2      -20.5140   18.1950    5.8540 C.ar   96  PHE96      -0.0003
     28  CZ       -19.8420   17.6790    6.9740 C.ar   96  PHE96      -0.0000
     29  N        -13.8660    8.2310    7.2830 N.3   144  ASP144     -0.1239
     30  CA       -13.7350    9.5600    7.7620 C.3   144  ASP144      0.1674
     31  C        -12.5490    9.4470    8.7740 C.2   144  ASP144      0.2266
     32  O        -12.6390    8.7660    9.7380 O.2   144  ASP144     -0.2867
     33  CB       -15.1100    9.9490    8.3230 C.3   144  ASP144      0.1410
     34  CG       -15.1570   11.2610    8.9780 C.2   144  ASP144      0.3668
     35  OD1      -14.1350   11.6940    9.5450 O.co2 144  ASP144     -0.2456
     36  OD2      -16.2630   11.8520    9.0070 O.co2 144  ASP144     -0.2456
     37  N        -11.5270   11.6990   10.7430 N.3   146  MET146     -0.1245
     38  CA       -11.9070   12.4370   11.9160 C.3   146  MET146      0.1570
     39  C        -13.0280   11.7960   12.7510 C.2   146  MET146      0.2261
     40  O        -13.5540   12.4350   13.6370 O.2   146  MET146     -0.2867
     41  CB       -12.3420   13.8110   11.4690 C.3   146  MET146      0.0387
     42  CG       -11.2940   14.5260   10.6300 C.3   146  MET146      0.0595
     43  SD        -9.8400   14.7260   11.6460 S.3   146  MET146     -0.1393
     44  CE       -10.2700   16.1400   12.6240 C.3   146  MET146      0.0692
     45  N        -13.0510   12.4270   16.3930 N.3   149  GLN149     -0.1231
     46  CA       -13.0740   13.8200   16.7560 C.3   149  GLN149      0.1683
     47  C        -14.1750   14.4820   15.9030 C.2   149  GLN149      0.2434
     48  O        -13.8980   15.2740   15.0040 O.2   149  GLN149     -0.2733
     49  CB       -11.7420   14.4940   16.4720 C.3   149  GLN149      0.0380
     50  CG       -10.5800   13.9810   17.2610 C.3   149  GLN149      0.0905
     51  CD        -9.5190   13.3530   16.3810 C.2   149  GLN149      0.2608
     52  OE1       -9.6780   12.2190   15.9160 O.2   149  GLN149     -0.2717
     53  NE2       -8.4070   14.0980   16.1550 N.am  149  GLN149     -0.0878
     54  N        -15.4150   14.1650   16.2010 N.am  150  PRO150     -0.2718
     55  CA       -16.5010   14.5140   15.3130 C.3   150  PRO150      0.1535
     56  C        -16.8190   16.0010   15.2890 C.2   150  PRO150      0.2598
     57  O        -16.5580   16.7040   16.2620 O.2   150  PRO150     -0.2715
     58  CB       -17.6770   13.7550   15.8930 C.3   150  PRO150      0.0310
     59  CG       -17.3460   13.5870   17.3130 C.3   150  PRO150      0.0237
     60  CD       -15.8670   13.5120   17.4230 C.3   150  PRO150      0.0939
     61  N        -17.3820   16.4620   14.1800 N.am  151  CYS151     -0.1968
     62  CA       -17.8390   17.8680   14.0780 C.3   151  CYS151      0.1712
     63  C        -19.0190   18.0260   14.9890 C.2   151  CYS151      0.2296
     64  O        -19.8080   17.1180   15.1970 O.2   151  CYS151     -0.2864
     65  CB       -18.2100   18.2700   12.6370 C.3   151  CYS151      0.0983
     66  SG       -16.8400   18.3600   11.4220 S.3   151  CYS151     -0.0798
     67  N        -24.6750   11.6400   11.0730 N.3   157  TYR157     -0.1241
     68  CA       -23.5180   11.4620   10.1230 C.3   157  TYR157      0.1605
     69  C        -22.4040   10.6290   10.7880 C.2   157  TYR157      0.2264
     70  O        -21.9390    9.6110   10.2600 O.2   157  TYR157     -0.2867
     71  CB       -22.9460   12.8170    9.6860 C.3   157  TYR157      0.0534
     72  CG       -21.6560   12.6890    8.9010 C.ar  157  TYR157     -0.0201
     73  CD1      -21.6730   12.2450    7.5960 C.ar  157  TYR157     -0.0009
     74  CD2      -20.4040   12.9360    9.5100 C.ar  157  TYR157     -0.0009
     75  CE1      -20.4920   12.0810    6.8840 C.ar  157  TYR157      0.0417
     76  CE2      -19.2200   12.7880    8.8070 C.ar  157  TYR157      0.0417
     77  CZ       -19.2670   12.3470    7.4910 C.ar  157  TYR157      0.1957
     78  OH       -18.1470   12.1830    6.7580 O.3   157  TYR157     -0.2866
     79  N        -20.7670    6.8220    9.8680 N.3   161  LYS161     -0.1245
     80  CA       -19.3610    6.5520    9.5490 C.3   161  LYS161      0.1561
     81  C        -18.7050    5.5990   10.5180 C.2   161  LYS161      0.2260
     82  O        -17.8850    4.7870   10.1340 O.2   161  LYS161     -0.2867
     83  CB       -18.5910    7.8550    9.4970 C.3   161  LYS161      0.0271
     84  CG       -18.9710    8.7020    8.3180 C.3   161  LYS161      0.0035
     85  CD       -18.9000    8.0400    6.9390 C.3   161  LYS161      0.0206
     86  CE       -18.8270    9.0460    5.7810 C.3   161  LYS161      0.1093
     87  NZ       -18.6560    8.3010    4.5070 N.3   161  LYS161     -0.1314
     88  N         -9.5230   13.2990    5.3490 N.3   188  GLY188     -0.1210
     89  CA        -9.6570   14.2630    6.4280 C.3   188  GLY188      0.1956
     90  C        -10.4980   15.4570    5.9660 C.2   188  GLY188      0.2612
     91  O        -11.6960   15.4630    6.1780 O.2   188  GLY188     -0.2717
     92  N         -9.8770   16.4760    5.3690 N.am  189  VAL189     -0.1965
     93  CA       -10.6150   17.3590    4.4720 C.3   189  VAL189      0.1727
     94  C        -10.1020   17.2100    3.0770 C.2   189  VAL189      0.2617
     95  O         -8.9000   17.2040    2.8300 O.2   189  VAL189     -0.2715
     96  CB       -10.6270   18.8430    4.8840 C.3   189  VAL189      0.0290
     97  CG1      -11.4130   19.0070    6.1760 C.3   189  VAL189      0.0023
     98  CG2       -9.2240   19.3700    5.0920 C.3   189  VAL189      0.0023
     99  N        -11.0490   17.0940    2.1490 N.am  190  SER190     -0.1936
    100  CA       -10.7460   17.0030    0.7500 C.3   190  SER190      0.2055
    101  C        -11.5480   18.1040    0.0730 C.2   190  SER190      0.2643
    102  O        -11.7810   19.1670    0.6560 O.2   190  SER190     -0.2714
    103  CB       -11.0710   15.5910    0.2320 C.3   190  SER190      0.2130
    104  OG       -10.7590   15.4360   -1.1520 O.3   190  SER190     -0.2179
    105  N        -11.9520   17.8910   -1.1520 N.am  191  LEU191     -0.1963
    106  CA       -12.7290   18.8710   -1.8920 C.3   191  LEU191      0.1728
    107  C        -13.7220   19.5250   -0.9550 C.2   191  LEU191      0.2616
    108  O        -14.5410   18.8380   -0.3470 O.2   191  LEU191     -0.2715
    109  CB       -13.5140   18.1600   -2.9880 C.3   191  LEU191      0.0311
    110  CG       -12.7950   17.8470   -4.2880 C.3   191  LEU191      0.0022
    111  CD1      -13.8520   17.2250   -5.2020 C.3   191  LEU191      0.0001
    112  CD2      -12.1660   19.0880   -4.9240 C.3   191  LEU191      0.0001
    113  N        -13.6190   20.8260   -0.7970 N.am  192  LEU192     -0.1964
    114  CA       -14.4790   21.5300    0.1120 C.3   192  LEU192      0.1713
    115  C        -15.6520   22.0720   -0.7210 C.2   192  LEU192      0.2458
    116  O        -15.4810   22.3640   -1.8910 O.2   192  LEU192     -0.2730
    117  CB       -13.7080   22.6440    0.7950 C.3   192  LEU192      0.0310
    118  CG       -12.5080   22.2050    1.6470 C.3   192  LEU192      0.0022
    119  CD1      -11.6980   23.4050    2.1430 C.3   192  LEU192      0.0001
    120  CD2      -12.9840   21.3480    2.8170 C.3   192  LEU192      0.0001
    121  N        -16.8360   22.2200   -0.1200 N.am  193  PRO193     -0.2727
    122  CA       -17.9520   22.8350   -0.8770 C.3   193  PRO193      0.1402
    123  C        -17.5560   24.1460   -1.6000 C.2   193  PRO193      0.2269
    124  O        -17.1120   25.1090   -0.9660 O.2   193  PRO193     -0.2865
    125  CB       -19.0170   23.0720    0.2050 C.3   193  PRO193      0.0296
    126  CG       -18.6910   22.0730    1.2750 C.3   193  PRO193      0.0237
    127  CD       -17.1820   22.0150    1.2930 C.3   193  PRO193      0.0939
    128  N        -18.9040   27.2330   -0.0710 N.3   196  MET196     -0.1245
    129  CA       -18.3570   27.7170    1.1970 C.3   196  MET196      0.1570
    130  C        -17.4080   28.8890    0.9460 C.2   196  MET196      0.2261
    131  O        -16.5710   28.8550    0.0320 O.2   196  MET196     -0.2867
    132  CB       -17.6100   26.6020    1.9150 C.3   196  MET196      0.0387
    133  CG       -16.8440   27.0910    3.1530 C.3   196  MET196      0.0595
    134  SD       -16.1780   25.7340    4.1350 S.3   196  MET196     -0.1393
    135  CE       -17.7780   25.0270    4.5690 C.3   196  MET196      0.0692
    136  N        -10.0110   25.6690    7.7590 N.3   204  TRP204     -0.1241
    137  CA        -9.7540   24.2370    7.7220 C.3   204  TRP204      0.1605
    138  C         -8.4070   23.8940    7.0790 C.2   204  TRP204      0.2264
    139  O         -7.6730   23.0450    7.6060 O.2   204  TRP204     -0.2867
    140  CB       -10.8860   23.5250    6.9830 C.3   204  TRP204      0.0550
    141  CG       -12.0650   23.4180    7.7840 C.ar  204  TRP204      0.0003
    142  CD1      -13.1470   24.2220    7.7390 C.ar  204  TRP204      0.0946
    143  CD2      -12.3040   22.4650    8.8250 C.ar  204  TRP204      0.0152
    144  NE1      -14.0670   23.8370    8.6820 N.ar  204  TRP204     -0.2442
    145  CE2      -13.5770   22.7470    9.3600 C.ar  204  TRP204      0.0810
    146  CE3      -11.5910   21.3820    9.3300 C.ar  204  TRP204      0.0012
    147  CZ2      -14.1480   21.9800   10.3800 C.ar  204  TRP204      0.0191
    148  CZ3      -12.1540   20.6200   10.3570 C.ar  204  TRP204      0.0001
    149  CH2      -13.4260   20.9180   10.8640 C.ar  204  TRP204      0.0015
@<TRIPOS>BOND
     1     1     2    1
     2     4     3    2
     3     2     3    1
     4     2     5    1
     5     6     5    1
     6     6     7    1
     7   111   110    1
     8   112   110    1
     9     7     8    1
    10   110   109    1
    11     8     9    2
    12   109   106    1
    13    10     9    1
    14     9    11    1
    15   106   105    1
    16   106   107    1
    17   116   115    2
    18   123   124    2
    19   123   122    1
    20   104   103    1
    21   105   101   am
    22   107   113   am
    23   107   108    2
    24   122   121    1
    25   122   125    1
    26   113   114    1
    27   115   121   am
    28   115   114    1
    29   121   127    1
    30   128   129    1
    31   131   130    2
    32   101   102    2
    33   101   100    1
    34    12    13    1
    35   114   117    1
    36   125   126    1
    37   103   100    1
    38   100    99    1
    39   117   118    1
    40    15    14    2
    41   130   129    1
    42   129   132    1
    43   126   127    1
    44    13    14    1
    45    13    16    1
    46   118   119    1
    47   118   120    1
    48   132   133    1
    49    16    17    1
    50    99    94   am
    51    95    94    2
    52    94    93    1
    53   133   134    1
    54   134   135    1
    55    18    19    1
    56    93    96    1
    57    93    92    1
    58    87    86    1
    59    22    19    1
    60    22    23    1
    61    21    20    2
    62    96    98    1
    63    96    97    1
    64    25    23   ar
    65    25    27   ar
    66    19    20    1
    67    88    89    1
    68    92    90   am
    69    23    24   ar
    70    86    85    1
    71    27    28   ar
    72    90    91    2
    73    90    89    1
    74    24    26   ar
    75    78    77    1
    76    75    77   ar
    77    75    73   ar
    78    85    84    1
    79    28    26   ar
    80   140   137    1
    81   140   141    1
    82   138   139    2
    83   138   137    1
    84    29    30    1
    85    77    76   ar
    86    73    72   ar
    87   137   136    1
    88   142   141   ar
    89   142   144   ar
    90    30    33    1
    91    30    31    1
    92   141   143   ar
    93    84    83    1
    94    33    34    1
    95   144   145   ar
    96    31    32    2
    97    76    74   ar
    98   143   146   ar
    99   143   145   ar
   100    72    74   ar
   101    72    71    1
   102    34    36   ar
   103    34    35   ar
   104   146   148   ar
   105   145   147   ar
   106    83    80    1
   107    80    79    1
   108    80    81    1
   109    71    68    1
   110    68    69    1
   111    68    67    1
   112    82    81    2
   113    70    69    2
   114   148   149   ar
   115   147   149   ar
   116    42    41    1
   117    42    43    1
   118    37    38    1
   119    66    65    1
   120    41    38    1
   121    43    44    1
   122    38    39    1
   123    65    62    1
   124    39    40    2
   125    62    61    1
   126    62    63    1
   127    61    56   am
   128    63    64    2
   129    48    47    2
   130    56    55    1
   131    56    57    2
   132    55    58    1
   133    55    54    1
   134    58    59    1
   135    47    54   am
   136    47    46    1
   137    52    51    2
   138    53    51   am
   139    54    60    1
   140    51    50    1
   141    45    46    1
   142    49    46    1
   143    49    50    1
   144    59    60    1
