@<TRIPOS>MOLECULE
tmp/4cmlA00.pdb
 180 172 0 0 0
SMALL
GASTEIGER

@<TRIPOS>ATOM
      1  N         17.2070   26.0480  -47.5460 N.3    46  GLU46      -0.1245
      2  CA        18.4180   26.3310  -48.3060 C.3    46  GLU46       0.1567
      3  C         18.1650   27.1580  -49.5700 C.2    46  GLU46       0.2260
      4  O         18.7740   26.9300  -50.6260 O.2    46  GLU46      -0.2867
      5  CB        19.1820   25.0310  -48.6100 C.3    46  GLU46       0.0388
      6  CG        19.6300   24.2870  -47.3390 C.3    46  GLU46       0.1160
      7  CD        20.6300   23.1590  -47.5920 C.2    46  GLU46       0.3649
      8  OE1       21.2870   23.1410  -48.6500 O.co2  46  GLU46      -0.2457
      9  OE2       20.7510   22.2690  -46.7210 O.co2  46  GLU46      -0.2457
     10  N         22.5850   29.8190  -49.7430 N.3    49  LEU49      -0.1231
     11  CA        23.6230   29.3200  -48.8400 C.3    49  LEU49       0.1693
     12  C         24.7850   30.3030  -48.6850 C.2    49  LEU49       0.2593
     13  O         25.7990   29.9700  -48.0720 O.2    49  LEU49      -0.2718
     14  CB        24.1290   27.9420  -49.3170 C.3    49  LEU49       0.0284
     15  CG        23.0860   26.8090  -49.2120 C.3    49  LEU49       0.0019
     16  CD1       23.5160   25.5510  -49.9850 C.3    49  LEU49       0.0001
     17  CD2       22.8020   26.4640  -47.7450 C.3    49  LEU49       0.0001
     18  N         24.6330   31.5180  -49.2160 N.am   50  SER50      -0.1938
     19  CA        25.7080   32.5050  -49.1660 C.3    50  SER50       0.2055
     20  C         25.9470   33.0510  -47.7460 C.2    50  SER50       0.2642
     21  O         25.0710   32.9970  -46.8660 O.2    50  SER50      -0.2714
     22  CB        25.4240   33.6630  -50.1250 C.3    50  SER50       0.2130
     23  OG        24.2970   34.4250  -49.7050 O.3    50  SER50      -0.2179
     24  N         27.1530   33.5660  -47.5360 N.am   51  LYS51      -0.1977
     25  CA        27.5020   34.2330  -46.3040 C.3    51  LYS51       0.1596
     26  C         26.6500   35.5000  -46.1260 C.2    51  LYS51       0.2287
     27  O         26.2630   35.8290  -45.0180 O.2    51  LYS51      -0.2864
     28  CB        28.9920   34.5610  -46.2640 C.3    51  LYS51       0.0298
     29  CG        29.4950   35.4900  -47.3580 C.3    51  LYS51       0.0038
     30  CD        31.0060   35.3790  -47.5230 C.3    51  LYS51       0.0206
     31  CE        31.5330   36.1970  -48.7100 C.3    51  LYS51       0.1093
     32  NZ        30.8030   35.9070  -49.9870 N.3    51  LYS51      -0.1314
     33  N         23.3220   34.4650  -44.8550 N.3    54  PHE54      -0.1227
     34  CA        23.5780   34.0200  -43.4790 C.3    54  PHE54       0.1736
     35  C         23.5960   35.2030  -42.5000 C.2    54  PHE54       0.2595
     36  O         23.0690   35.0890  -41.3960 O.2    54  PHE54      -0.2718
     37  CB        24.8960   33.2400  -43.4260 C.3    54  PHE54       0.0547
     38  CG        25.2680   32.7530  -42.0580 C.ar   54  PHE54      -0.0202
     39  CD1       24.7050   31.5940  -41.5450 C.ar   54  PHE54      -0.0042
     40  CD2       26.2060   33.4460  -41.2960 C.ar   54  PHE54      -0.0042
     41  CE1       25.0510   31.1470  -40.2780 C.ar   54  PHE54      -0.0003
     42  CE2       26.5650   33.0100  -40.0430 C.ar   54  PHE54      -0.0003
     43  CZ        25.9920   31.8590  -39.5200 C.ar   54  PHE54      -0.0000
     44  N         24.1650   36.3340  -42.9110 N.am   55  PHE55      -0.1976
     45  CA        24.1530   37.5520  -42.0750 C.3    55  PHE55       0.1639
     46  C         22.9450   38.4750  -42.3590 C.2    55  PHE55       0.2290
     47  O         22.9890   39.6840  -42.1150 O.2    55  PHE55      -0.2864
     48  CB        25.4850   38.2960  -42.1820 C.3    55  PHE55       0.0560
     49  CG        26.6370   37.5440  -41.5680 C.ar   55  PHE55      -0.0200
     50  CD1       26.7240   37.3900  -40.1910 C.ar   55  PHE55      -0.0042
     51  CD2       27.6110   36.9630  -42.3610 C.ar   55  PHE55      -0.0042
     52  CE1       27.7670   36.6850  -39.6230 C.ar   55  PHE55      -0.0003
     53  CE2       28.6570   36.2670  -41.8050 C.ar   55  PHE55      -0.0003
     54  CZ        28.7380   36.1240  -40.4370 C.ar   55  PHE55      -0.0000
     55  N         23.7000   28.3180  -35.6630 N.3   116  ILE116     -0.1231
     56  CA        24.9720   28.6210  -35.0110 C.3   116  ILE116      0.1692
     57  C         24.7240   29.3640  -33.6950 C.2   116  ILE116      0.2591
     58  O         23.9170   30.2950  -33.6370 O.2   116  ILE116     -0.2718
     59  CB        25.9410   29.4210  -35.9250 C.3   116  ILE116      0.0266
     60  CG1       26.3850   28.5690  -37.1260 C.3   116  ILE116      0.0019
     61  CG2       27.1730   29.8920  -35.1400 C.3   116  ILE116      0.0020
     62  CD1       27.2340   27.3510  -36.7610 C.3   116  ILE116      0.0001
     63  N         25.3970   28.8980  -32.6440 N.am  117  MET117     -0.1979
     64  CA        25.2430   29.4040  -31.2830 C.3   117  MET117      0.1605
     65  C         23.8070   29.3710  -30.7770 C.2   117  MET117      0.2287
     66  O         23.4310   30.1390  -29.8990 O.2   117  MET117     -0.2864
     67  CB        25.8250   30.8120  -31.1670 C.3   117  MET117      0.0413
     68  CG        27.2980   30.8680  -31.5260 C.3   117  MET117      0.0598
     69  SD        28.0510   32.4100  -31.0040 S.3   117  MET117     -0.1393
     70  CE        29.7120   32.2000  -31.6620 C.3   117  MET117      0.0692
     71  N         21.3880   31.5550  -34.7890 N.3   120  MET120     -0.1245
     72  CA        21.4930   31.9850  -36.1800 C.3   120  MET120      0.1570
     73  C         20.5150   31.2110  -37.0650 C.2   120  MET120      0.2261
     74  O         19.8790   30.2570  -36.6130 O.2   120  MET120     -0.2867
     75  CB        22.9370   31.9050  -36.6680 C.3   120  MET120      0.0387
     76  CG        23.8810   32.8110  -35.8790 C.3   120  MET120      0.0595
     77  SD        23.6670   34.5980  -36.1370 S.3   120  MET120     -0.1393
     78  CE        24.3930   34.7600  -37.7790 C.3   120  MET120      0.0692
     79  N         20.8580   29.5430  -40.0730 N.3   122  ASN122     -0.1225
     80  CA        21.2380   28.3960  -40.9110 C.3   122  ASN122      0.1785
     81  C         20.3430   27.1770  -40.6680 C.2   122  ASN122      0.2597
     82  O         20.2160   26.3000  -41.5300 O.2   122  ASN122     -0.2718
     83  CB        22.7070   28.0290  -40.7110 C.3   122  ASN122      0.1169
     84  CG        23.0620   27.7500  -39.2620 C.2   122  ASN122      0.2627
     85  OD1       23.0190   28.6500  -38.4140 O.2   122  ASN122     -0.2716
     86  ND2       23.4350   26.5000  -38.9710 N.am  122  ASN122     -0.0877
     87  N         19.7450   27.1230  -39.4820 N.am  123  LYS123     -0.1980
     88  CA        18.7030   26.1590  -39.1530 C.3   123  LYS123      0.1596
     89  C         17.6990   26.8860  -38.2770 C.2   123  LYS123      0.2287
     90  O         18.0170   27.9270  -37.7040 O.2   123  LYS123     -0.2864
     91  CB        19.2610   24.9570  -38.3800 C.3   123  LYS123      0.0298
     92  CG        20.3080   24.1290  -39.1240 C.3   123  LYS123      0.0038
     93  CD        19.6850   23.3210  -40.2580 C.3   123  LYS123      0.0206
     94  CE        20.7580   22.6180  -41.0840 C.3   123  LYS123      0.1093
     95  NZ        21.4000   23.5520  -42.0390 N.3   123  LYS123     -0.1314
     96  N         13.8540   23.7400  -40.6790 N.3   143  HIS143     -0.1241
     97  CA        15.0360   23.0320  -41.1270 C.3   143  HIS143      0.1621
     98  C         15.8440   22.7140  -39.8850 C.2   143  HIS143      0.2264
     99  O         16.4250   23.6160  -39.2740 O.2   143  HIS143     -0.2867
    100  CB        15.8220   23.9090  -42.0930 C.3   143  HIS143      0.0745
    101  CG        16.9270   23.1950  -42.8030 C.ar  143  HIS143      0.0817
    102  ND1       17.8870   23.8620  -43.5340 N.ar  143  HIS143     -0.2268
    103  CD2       17.2210   21.8770  -42.9050 C.ar  143  HIS143      0.1154
    104  CE1       18.7240   22.9830  -44.0570 C.ar  143  HIS143      0.1986
    105  NE2       18.3470   21.7720  -43.6850 N.ar  143  HIS143     -0.2212
    106  N         21.5050   18.8280  -39.1010 N.3   146  ALA146     -0.1231
    107  CA        21.9810   17.7620  -39.9800 C.3   146  ALA146      0.1694
    108  C         22.6840   16.6030  -39.2560 C.2   146  ALA146      0.2592
    109  O         23.1260   16.7420  -38.1160 O.2   146  ALA146     -0.2718
    110  CB        22.9260   18.3490  -41.0280 C.3   146  ALA146      0.0304
    111  N         22.7800   15.4780  -39.9680 N.am  147  HIS147     -0.1976
    112  CA        23.6440   14.3280  -39.6550 C.3   147  HIS147      0.1656
    113  C         22.9740   13.3190  -38.7520 C.2   147  HIS147      0.2291
    114  O         22.3000   13.6860  -37.7940 O.2   147  HIS147     -0.2864
    115  CB        24.9980   14.7300  -39.0560 C.3   147  HIS147      0.0771
    116  CG        25.7530   15.7150  -39.8870 C.ar  147  HIS147      0.0820
    117  ND1       25.9490   15.5420  -41.2380 N.ar  147  HIS147     -0.2267
    118  CD2       26.3650   16.8790  -39.5610 C.ar  147  HIS147      0.1154
    119  CE1       26.6470   16.5600  -41.7110 C.ar  147  HIS147      0.1986
    120  NE2       26.9080   17.3880  -40.7140 N.ar  147  HIS147     -0.2212
    121  N         15.2460   16.4170  -41.3020 N.3   192  ASN192     -0.1240
    122  CA        16.6220   15.9220  -41.3120 C.3   192  ASN192      0.1653
    123  C         16.8840   14.6590  -40.4860 C.2   192  ASN192      0.2266
    124  O         18.0380   14.3400  -40.1780 O.2   192  ASN192     -0.2867
    125  CB        17.5850   17.0480  -40.8970 C.3   192  ASN192      0.1155
    126  CG        18.6650   17.3080  -41.9380 C.2   192  ASN192      0.2627
    127  OD1       18.9970   16.4310  -42.7560 O.2   192  ASN192     -0.2716
    128  ND2       19.2100   18.5190  -41.9240 N.am  192  ASN192     -0.0877
    129  N         17.2030   10.6740  -39.9900 N.3   194  ARG194     -0.1245
    130  CA        17.8450    9.6640  -40.8290 C.3   194  ARG194      0.1563
    131  C         17.4690    8.2490  -40.3930 C.2   194  ARG194      0.2260
    132  O         16.6970    8.0630  -39.4450 O.2   194  ARG194     -0.2867
    133  CB        19.3650    9.8290  -40.7410 C.3   194  ARG194      0.0307
    134  CG        19.8690   11.2540  -40.9230 C.3   194  ARG194      0.0489
    135  CD        19.3730   11.9130  -42.2040 C.3   194  ARG194      0.2205
    136  NE        19.8680   13.2820  -42.3030 N.pl3 194  ARG194     -0.0865
    137  CZ        21.0730   13.6280  -42.7590 C.cat 194  ARG194      0.5346
    138  NH1       21.9440   12.7140  -43.1930 N.pl3 194  ARG194      0.1354
    139  NH2       21.4180   14.9010  -42.7760 N.pl3 194  ARG194      0.1354
    140  N         16.4070   12.2290  -50.1040 N.3   245  TYR245     -0.1227
    141  CA        17.7940   12.6780  -49.9750 C.3   245  TYR245      0.1736
    142  C         18.6310   11.3940  -49.9290 C.2   245  TYR245      0.2595
    143  O         18.1350   10.3970  -49.4010 O.2   245  TYR245     -0.2718
    144  CB        17.9190   13.4970  -48.6800 C.3   245  TYR245      0.0548
    145  CG        19.3030   13.7270  -48.0920 C.ar  245  TYR245     -0.0200
    146  CD1       19.8710   12.7990  -47.2310 C.ar  245  TYR245     -0.0009
    147  CD2       20.0130   14.9060  -48.3410 C.ar  245  TYR245     -0.0009
    148  CE1       21.1240   13.0150  -46.6570 C.ar  245  TYR245      0.0417
    149  CE2       21.2660   15.1310  -47.7650 C.ar  245  TYR245      0.0417
    150  CZ        21.8090   14.1830  -46.9210 C.ar  245  TYR245      0.1957
    151  OH        23.0560   14.3680  -46.3420 O.3   245  TYR245     -0.2866
    152  N         19.8510   11.3520  -50.4790 N.am  246  LYS246     -0.1980
    153  CA        20.5330   12.4500  -51.1620 C.3   246  LYS246      0.1596
    154  C         20.8650   12.0230  -52.5910 C.2   246  LYS246      0.2287
    155  O         21.4490   10.9630  -52.7990 O.2   246  LYS246     -0.2864
    156  CB        21.8390   12.7830  -50.4300 C.3   246  LYS246      0.0298
    157  CG        22.6500   13.9340  -51.0300 C.3   246  LYS246      0.0038
    158  CD        23.9590   14.1270  -50.2600 C.3   246  LYS246      0.0206
    159  CE        24.9210   15.1290  -50.9280 C.3   246  LYS246      0.1093
    160  NZ        24.6380   16.5340  -50.5690 N.3   246  LYS246     -0.1314
    161  N         31.6950   11.1650  -49.9390 N.3   259  LYS259     -0.1245
    162  CA        30.8740   11.0440  -48.7270 C.3   259  LYS259      0.1561
    163  C         29.8400    9.9180  -48.8020 C.2   259  LYS259      0.2260
    164  O         29.4770    9.3470  -47.7720 O.2   259  LYS259     -0.2867
    165  CB        30.1470   12.3600  -48.4420 C.3   259  LYS259      0.0271
    166  CG        31.0520   13.5310  -48.0430 C.3   259  LYS259      0.0035
    167  CD        30.2110   14.8090  -47.9110 C.3   259  LYS259      0.0206
    168  CE        31.0510   16.0420  -47.5500 C.3   259  LYS259      0.1093
    169  NZ        30.2040   17.2850  -47.5850 N.3   259  LYS259     -0.1314
    170  N         26.5150    9.5080  -49.0850 N.3   261  ARG261     -0.1245
    171  CA        25.5270    9.6380  -48.0170 C.3   261  ARG261      0.1563
    172  C         24.4260    8.5850  -48.1160 C.2   261  ARG261      0.2260
    173  O         23.9380    8.2890  -49.2040 O.2   261  ARG261     -0.2867
    174  CB        24.8770   11.0320  -48.0220 C.3   261  ARG261      0.0307
    175  CG        25.8120   12.2040  -47.6730 C.3   261  ARG261      0.0489
    176  CD        26.3000   12.1560  -46.2190 C.3   261  ARG261      0.2205
    177  NE        26.9650   13.4050  -45.8270 N.pl3 261  ARG261     -0.0865
    178  CZ        27.9300   13.5150  -44.9070 C.cat 261  ARG261      0.5346
    179  NH1       28.3870   12.4490  -44.2480 N.pl3 261  ARG261      0.1354
    180  NH2       28.4590   14.7130  -44.6450 N.pl3 261  ARG261      0.1354
@<TRIPOS>BOND
     1   155   154    2
     2   154   153    1
     3   153   152    1
     4   153   156    1
     5   157   156    1
     6   157   158    1
     7   159   160    1
     8   159   158    1
     9     4     3    2
    10   152   142   am
    11    22    23    1
    12    22    19    1
    13   140   141    1
    14    32    31    1
    15    16    15    1
    16   141   142    1
    17   141   144    1
    18   161   162    1
    19   142   143    2
    20    10    11    1
    21     3     2    1
    22    14    15    1
    23    14    11    1
    24    18    19    1
    25    18    12   am
    26    15    17    1
    27   173   172    2
    28    19    20    1
    29   170   171    1
    30    11    12    1
    31   163   162    1
    32   163   164    2
    33   162   165    1
    34    31    30    1
    35    12    13    2
    36   144   145    1
    37     8     7   ar
    38     5     2    1
    39     5     6    1
    40   165   166    1
    41   147   145   ar
    42   147   149   ar
    43     2     1    1
    44   172   171    1
    45   145   146   ar
    46   166   167    1
    47   174   171    1
    48   174   175    1
    49   167   168    1
    50   149   150   ar
    51    20    24   am
    52    20    21    2
    53   175   176    1
    54     7     6    1
    55     7     9   ar
    56   169   168    1
    57    24    25    1
    58    30    29    1
    59    29    28    1
    60   146   148   ar
    61   150   148   ar
    62   150   151    1
    63    25    28    1
    64    25    26    1
    65   176   177    1
    66    26    27    2
    67   177   178    2
    68   178   180    1
    69   178   179    1
    70    33    34    1
    71   104   105   ar
    72   104   102   ar
    73   105   103   ar
    74   102   101   ar
    75    34    37    1
    76    34    35    1
    77    37    38    1
    78   138   137    1
    79    44    35   am
    80    44    45    1
    81   103   101   ar
    82   101   100    1
    83   139   137    1
    84   137   136    2
    85   127   126    2
    86    35    36    2
    87    51    53   ar
    88    51    49   ar
    89    46    47    2
    90    46    45    1
    91   136   135    1
    92   135   134    1
    93    48    45    1
    94    48    49    1
    95   100    97    1
    96    38    39   ar
    97    38    40   ar
    98    95    94    1
    99   126   128   am
   100   126   125    1
   101    53    54   ar
   102   119   117   ar
   103   119   120   ar
   104    49    50   ar
   105    39    41   ar
   106    82    81    2
   107   122   121    1
   108   122   125    1
   109   122   123    1
   110    40    42   ar
   111   117   116   ar
   112    97    96    1
   113    97    98    1
   114    94    93    1
   115   110   107    1
   116   134   133    1
   117    80    83    1
   118    80    81    1
   119    80    79    1
   120   130   133    1
   121   130   131    1
   122   130   129    1
   123   120   118   ar
   124    83    84    1
   125    81    87   am
   126   123   124    2
   127    54    52   ar
   128   131   132    2
   129    41    43   ar
   130    93    92    1
   131    50    52   ar
   132    42    43   ar
   133   107   108    1
   134   107   106    1
   135   111   112    1
   136   111   108   am
   137   116   118   ar
   138   116   115    1
   139    98    99    2
   140   112   115    1
   141   112   113    1
   142    87    88    1
   143    84    86   am
   144    84    85    2
   145   108   109    2
   146    88    91    1
   147    88    89    1
   148    92    91    1
   149   113   114    2
   150    89    90    2
   151    78    77    1
   152    60    62    1
   153    60    59    1
   154    73    74    2
   155    73    72    1
   156    75    72    1
   157    75    76    1
   158    72    71    1
   159    77    76    1
   160    59    61    1
   161    59    56    1
   162    55    56    1
   163    56    57    1
   164    57    58    2
   165    57    63   am
   166    63    64    1
   167    70    69    1
   168    68    67    1
   169    68    69    1
   170    64    67    1
   171    64    65    1
   172    65    66    2
