@<TRIPOS>MOLECULE
tmp/4cmoA00.pdb
 148 138 0 0 0
SMALL
GASTEIGER

@<TRIPOS>ATOM
      1  N         28.3270   46.4330    0.7710 N.3    30  LEU30      -0.1231
      2  CA        28.7110   47.3600    1.8260 C.3    30  LEU30       0.1693
      3  C         30.1680   47.7680    1.6470 C.2    30  LEU30       0.2593
      4  O         30.5610   48.8810    1.9950 O.2    30  LEU30      -0.2718
      5  CB        28.5190   46.7100    3.1990 C.3    30  LEU30       0.0284
      6  CG        27.0800   46.3990    3.6100 C.3    30  LEU30       0.0019
      7  CD1       27.0740   45.6360    4.9240 C.3    30  LEU30       0.0001
      8  CD2       26.2970   47.6940    3.7400 C.3    30  LEU30       0.0001
      9  N         30.9670   46.8580    1.1000 N.am   31  GLY31      -0.1942
     10  CA        32.3600   47.1660    0.8460 C.3    31  GLY31       0.2014
     11  C         33.1510   45.9600    0.3850 C.2    31  GLY31       0.2638
     12  O         32.7250   44.8210    0.5670 O.2    31  GLY31      -0.2714
     13  N         34.3020   46.2150   -0.2300 N.am   32  HIS32      -0.1973
     14  CA        35.2550   45.1610   -0.5480 C.3    32  HIS32       0.1656
     15  C         36.6370   45.5200   -0.0130 C.2    32  HIS32       0.2291
     16  O         37.0070   45.1070    1.0870 O.2    32  HIS32      -0.2864
     17  CB        35.3130   44.9220   -2.0640 C.3    32  HIS32       0.0771
     18  CG        35.2460   46.1730   -2.8850 C.ar   32  HIS32       0.0820
     19  ND1       34.0680   46.8520   -3.1130 N.ar   32  HIS32      -0.2267
     20  CD2       36.2080   46.8550   -3.5510 C.ar   32  HIS32       0.1154
     21  CE1       34.3070   47.8970   -3.8850 C.ar   32  HIS32       0.1986
     22  NE2       35.5980   47.9220   -4.1650 N.ar   32  HIS32      -0.2212
     23  N         31.7690   42.4400    1.3540 N.3    38  VAL38      -0.1245
     24  CA        30.7660   42.3080    2.3970 C.3    38  VAL38       0.1561
     25  C         29.4390   42.8510    1.8860 C.2    38  VAL38       0.2260
     26  O         29.3930   43.9070    1.2510 O.2    38  VAL38      -0.2867
     27  CB        31.1770   43.0800    3.6680 C.3    38  VAL38       0.0252
     28  CG1       30.1010   42.9470    4.7290 C.3    38  VAL38       0.0019
     29  CG2       32.5050   42.5450    4.1900 C.3    38  VAL38       0.0019
     30  N         25.0210   43.4060    2.6840 N.3    40  GLU40      -0.1245
     31  CA        23.8720   43.3390    3.5740 C.3    40  GLU40       0.1567
     32  C         22.9950   42.1820    3.1070 C.2    40  GLU40       0.2260
     33  O         22.8370   41.9680    1.9060 O.2    40  GLU40      -0.2867
     34  CB        23.0760   44.6480    3.5260 C.3    40  GLU40       0.0388
     35  CG        21.8570   44.6480    4.4390 C.3    40  GLU40       0.1160
     36  CD        20.9730   45.8650    4.2500 C.2    40  GLU40       0.3649
     37  OE1       21.4960   46.9330    3.8710 O.co2  40  GLU40      -0.2457
     38  OE2       19.7520   45.7520    4.4850 O.co2  40  GLU40      -0.2457
     39  N         25.0840   41.0540    8.0500 N.3    48  ALA48      -0.1245
     40  CA        26.1740   41.4130    7.1570 C.3    48  ALA48       0.1562
     41  C         26.8510   40.1250    6.7180 C.2    48  ALA48       0.2260
     42  O         27.1580   39.2650    7.5450 O.2    48  ALA48      -0.2867
     43  CB        27.1710   42.3080    7.8700 C.3    48  ALA48       0.0290
     44  N         29.9630   38.3620    5.0440 N.3    50  LYS50      -0.1245
     45  CA        31.3470   38.3930    4.6080 C.3    50  LYS50       0.1561
     46  C         31.5830   37.2060    3.6840 C.2    50  LYS50       0.2260
     47  O         31.2460   36.0740    4.0170 O.2    50  LYS50      -0.2867
     48  CB        32.2800   38.3240    5.8220 C.3    50  LYS50       0.0271
     49  CG        33.7140   38.7030    5.5190 C.3    50  LYS50       0.0035
     50  CD        34.4550   39.0930    6.7890 C.3    50  LYS50       0.0206
     51  CE        35.8190   39.6890    6.4690 C.3    50  LYS50       0.1093
     52  NZ        35.7150   40.8660    5.5570 N.3    50  LYS50      -0.1314
     53  N         30.7470   41.8890   17.9800 N.3    80  VAL80      -0.1245
     54  CA        29.7400   41.5620   16.9730 C.3    80  VAL80       0.1561
     55  C         29.3970   40.0750   17.0180 C.2    80  VAL80       0.2260
     56  O         30.2840   39.2220   17.1110 O.2    80  VAL80      -0.2867
     57  CB        30.2250   41.9480   15.5510 C.3    80  VAL80       0.0252
     58  CG1       31.4920   41.1820   15.1930 C.3    80  VAL80       0.0019
     59  CG2       29.1320   41.6810   14.5360 C.3    80  VAL80       0.0019
     60  N         27.2560   37.8260    9.9380 N.3    96  LEU96      -0.1231
     61  CA        27.4300   38.6260   11.1530 C.3    96  LEU96       0.1693
     62  C         26.2250   39.4990   11.4880 C.2    96  LEU96       0.2592
     63  O         25.4550   39.8820   10.6050 O.2    96  LEU96      -0.2718
     64  CB        28.6550   39.5330   11.0200 C.3    96  LEU96       0.0284
     65  CG        29.9900   38.8830   10.6700 C.3    96  LEU96       0.0019
     66  CD1       31.0630   39.9630   10.5310 C.3    96  LEU96       0.0001
     67  CD2       30.3690   37.8940   11.7660 C.3    96  LEU96       0.0001
     68  N         26.0900   39.8220   12.7710 N.am   97  GLU97      -0.1966
     69  CA        25.1690   40.8600   13.2340 C.3    97  GLU97       0.1733
     70  C         25.3290   42.1010   12.3420 C.2    97  GLU97       0.2616
     71  O         26.4350   42.6160   12.1830 O.2    97  GLU97      -0.2715
     72  CB        25.5090   41.1990   14.6910 C.3    97  GLU97       0.0429
     73  CG        24.7200   42.3260   15.3230 C.3    97  GLU97       0.1163
     74  CD        25.1440   42.5810   16.7620 C.2    97  GLU97       0.3649
     75  OE1       26.1430   41.9750   17.2070 O.co2  97  GLU97      -0.2457
     76  OE2       24.4810   43.3850   17.4520 O.co2  97  GLU97      -0.2457
     77  N         24.2290   42.5670   11.7530 N.am   98  LEU98      -0.1963
     78  CA        24.2710   43.7580   10.9040 C.3    98  LEU98       0.1728
     79  C         24.3390   45.0190   11.7560 C.2    98  LEU98       0.2616
     80  O         23.4060   45.3320   12.4890 O.2    98  LEU98      -0.2715
     81  CB        23.0310   43.8250   10.0070 C.3    98  LEU98       0.0311
     82  CG        22.9730   45.0510    9.0890 C.3    98  LEU98       0.0022
     83  CD1       24.1420   45.0100    8.1200 C.3    98  LEU98       0.0001
     84  CD2       21.6430   45.0790    8.3370 C.3    98  LEU98       0.0001
     85  N         25.4480   45.7430   11.6520 N.am   99  MET99      -0.1963
     86  CA        25.6330   46.9510   12.4380 C.3    99  MET99       0.1736
     87  C         25.3330   48.1690   11.5810 C.2    99  MET99       0.2616
     88  O         26.1910   48.6570   10.8420 O.2    99  MET99      -0.2715
     89  CB        27.0650   46.9990   12.9810 C.3    99  MET99       0.0427
     90  CG        27.4030   45.8080   13.8700 C.3    99  MET99       0.0599
     91  SD        26.5730   45.8490   15.4860 S.3    99  MET99      -0.1393
     92  CE        24.8410   45.5990   15.0620 C.3    99  MET99       0.0692
     93  N         24.1020   48.6520   11.6940 N.am  100  ALA100     -0.1977
     94  CA        23.5530   49.6110   10.7450 C.3   100  ALA100      0.1597
     95  C         24.2780   50.9500   10.7750 C.2   100  ALA100      0.2287
     96  O         24.2020   51.7280    9.8200 O.2   100  ALA100     -0.2864
     97  CB        22.0680   49.8120   11.0210 C.3   100  ALA100      0.0319
     98  N         27.4190   51.2780   10.7240 N.3   102  GLY102     -0.1210
     99  CA        28.6780   51.1720   10.0120 C.3   102  GLY102      0.1956
    100  C         29.8780   51.2630   10.9410 C.2   102  GLY102      0.2611
    101  O         29.7410   51.1110   12.1560 O.2   102  GLY102     -0.2717
    102  N         31.0570   51.5070   10.3740 N.am  103  ASP103     -0.1973
    103  CA        32.2860   51.5190   11.1650 C.3   103  ASP103      0.1709
    104  C         32.4790   52.8480   11.8890 C.2   103  ASP103      0.2293
    105  O         31.9950   53.8900   11.4450 O.2   103  ASP103     -0.2864
    106  CB        33.5030   51.2370   10.2800 C.3   103  ASP103      0.1436
    107  CG        33.8920   52.4240    9.4260 C.2   103  ASP103      0.3671
    108  OD1       33.2750   52.6080    8.3560 O.co2 103  ASP103     -0.2456
    109  OD2       34.8140   53.1730    9.8250 O.co2 103  ASP103     -0.2456
    110  N         38.7160   51.8370   12.8940 N.3   153  ARG153     -0.1231
    111  CA        38.3130   51.1670   11.6600 C.3   153  ARG153      0.1694
    112  C         37.7630   49.7630   11.9240 C.2   153  ARG153      0.2592
    113  O         37.0710   49.1950   11.0820 O.2   153  ARG153     -0.2718
    114  CB        39.5040   51.0680   10.6970 C.3   153  ARG153      0.0321
    115  CG        40.5800   50.1120   11.1870 C.3   153  ARG153      0.0489
    116  CD        41.7770   50.0080   10.2550 C.3   153  ARG153      0.2205
    117  NE        42.9410   49.5220   10.9930 N.pl3 153  ARG153     -0.0865
    118  CZ        43.7690   50.3170   11.6660 C.cat 153  ARG153      0.5346
    119  NH1       43.5610   51.6280   11.6750 N.pl3 153  ARG153      0.1354
    120  NH2       44.7770   49.8080   12.3620 N.pl3 153  ARG153      0.1354
    121  N         38.0790   49.2060   13.0930 N.am  154  ASN154     -0.1974
    122  CA        37.6890   47.8390   13.4220 C.3   154  ASN154      0.1688
    123  C         36.5080   47.7750   14.3850 C.2   154  ASN154      0.2292
    124  O         36.1580   46.7010   14.8740 O.2   154  ASN154     -0.2864
    125  CB        38.8860   47.0810   14.0120 C.3   154  ASN154      0.1181
    126  CG        39.9610   46.8270   12.9820 C.2   154  ASN154      0.2629
    127  OD1       39.6590   46.6260   11.8070 O.2   154  ASN154     -0.2716
    128  ND2       41.2230   46.8430   13.4090 N.am  154  ASN154     -0.0877
    129  N         32.3510   48.8870   15.1390 N.3   156  LEU156     -0.1245
    130  CA        31.0910   49.1130   14.4350 C.3   156  LEU156      0.1561
    131  C         30.0550   49.7040   15.3790 C.2   156  LEU156      0.2260
    132  O         30.1840   49.5960   16.5990 O.2   156  LEU156     -0.2867
    133  CB        30.5590   47.7910   13.8700 C.3   156  LEU156      0.0270
    134  CG        31.4220   47.1020   12.8080 C.3   156  LEU156      0.0019
    135  CD1       30.9050   45.6810   12.5800 C.3   156  LEU156      0.0001
    136  CD2       31.3920   47.9100   11.5040 C.3   156  LEU156      0.0001
    137  N         34.4210   44.6830   15.7410 N.3   169  GLY169     -0.1210
    138  CA        33.7910   43.9800   14.6370 C.3   169  GLY169      0.1956
    139  C         34.7110   43.2210   13.7030 C.2   169  GLY169      0.2611
    140  O         34.2390   42.4760   12.8400 O.2   169  GLY169     -0.2717
    141  N         36.0170   43.4120   13.8560 N.am  170  ASP170     -0.1973
    142  CA        36.9890   42.7280   13.0060 C.3   170  ASP170      0.1709
    143  C         38.0880   42.1140   13.8630 C.2   170  ASP170      0.2293
    144  O         38.5560   42.7350   14.8150 O.2   170  ASP170     -0.2864
    145  CB        37.6190   43.7110   12.0140 C.3   170  ASP170      0.1436
    146  CG        38.6430   43.0460   11.1020 C.2   170  ASP170      0.3671
    147  OD1       39.8040   42.8460   11.5280 O.co2 170  ASP170     -0.2456
    148  OD2       38.2850   42.7230    9.9530 O.co2 170  ASP170     -0.2456
@<TRIPOS>BOND
     1    22    21   ar
     2    22    20   ar
     3    21    19   ar
     4    20    18   ar
     5    19    18   ar
     6    18    17    1
     7    17    14    1
     8    14    13    1
     9    14    15    1
    10    13    11   am
    11    15    16    2
    12    11    12    2
    13    11    10    1
    14     1     2    1
    15    10     9    1
    16     9     3   am
    17    26    25    2
    18    23    24    1
    19     3     2    1
    20     3     4    2
    21     2     5    1
    22    25    24    1
    23    33    32    2
    24    24    27    1
    25    30    31    1
    26    32    31    1
    27     5     6    1
    28    34    31    1
    29    34    35    1
    30     6     8    1
    31     6     7    1
    32    27    29    1
    33    27    28    1
    34    46    47    2
    35    46    45    1
    36    37    36   ar
    37    36    35    1
    38    36    38   ar
    39    45    44    1
    40    45    48    1
    41    49    48    1
    42    49    50    1
    43    52    51    1
    44    51    50    1
    45    41    40    1
    46    41    42    2
    47    40    43    1
    48    40    39    1
    49    83    82    1
    50    84    82    1
    51   108   107   ar
    52    82    81    1
    53   107   109   ar
    54   107   106    1
    55    96    95    2
    56    60    61    1
    57   148   146   ar
    58    81    78    1
    59    99    98    1
    60    99   100    1
    61   116   117    1
    62   116   115    1
    63   106   103    1
    64   102   100   am
    65   102   103    1
    66    66    65    1
    67    63    62    2
    68    65    64    1
    69    65    67    1
    70   114   115    1
    71   114   111    1
    72    94    95    1
    73    94    97    1
    74    94    93    1
    75    88    87    2
    76    78    77    1
    77    78    79    1
    78   100   101    2
    79   117   118    2
    80    64    61    1
    81   113   112    2
    82   146   147   ar
    83   146   145    1
    84    61    62    1
    85   103   104    1
    86   105   104    2
    87    62    68   am
    88   136   134    1
    89    87    93   am
    90    87    86    1
    91    85    79   am
    92    85    86    1
    93   111   112    1
    94   111   110    1
    95   118   119    1
    96   118   120    1
    97    77    70   am
    98    79    80    2
    99   127   126    2
   100   112   121   am
   101   145   142    1
   102    71    70    2
   103    70    69    1
   104    86    89    1
   105   135   134    1
   106    68    69    1
   107   134   133    1
   108   140   139    2
   109    89    90    1
   110   126   128   am
   111   126   125    1
   112   142   141    1
   113   142   143    1
   114   121   122    1
   115    69    72    1
   116   122   125    1
   117   122   123    1
   118   139   141   am
   119   139   138    1
   120   143   144    2
   121    90    91    1
   122   133   130    1
   123   123   124    2
   124   130   129    1
   125   130   131    1
   126    59    57    1
   127   138   137    1
   128    72    73    1
   129    92    91    1
   130    58    57    1
   131    73    74    1
   132   131   132    2
   133    57    54    1
   134    74    75   ar
   135    74    76   ar
   136    54    55    1
   137    54    53    1
   138    55    56    2
