@<TRIPOS>MOLECULE
tmp/4cmtA00.pdb
 169 158 0 0 0
SMALL
GASTEIGER

@<TRIPOS>ATOM
      1  N         22.6500   44.1930   -0.7000 N.3    28  ARG28      -0.1245
      2  CA        23.5140   45.1960   -1.3100 C.3    28  ARG28       0.1563
      3  C         24.9210   45.1140   -0.7350 C.2    28  ARG28       0.2260
      4  O         25.1430   44.4870    0.3040 O.2    28  ARG28      -0.2867
      5  CB        22.9480   46.5960   -1.0690 C.3    28  ARG28       0.0307
      6  CG        22.8680   46.9800    0.3950 C.3    28  ARG28       0.0489
      7  CD        22.3030   48.3770    0.5700 C.3    28  ARG28       0.2205
      8  NE        22.2900   48.7800    1.9730 N.pl3  28  ARG28      -0.0865
      9  CZ        23.3150   49.3550    2.5930 C.cat  28  ARG28       0.5346
     10  NH1       24.4390   49.5960    1.9300 N.pl3  28  ARG28       0.1354
     11  NH2       23.2190   49.6860    3.8740 N.pl3  28  ARG28       0.1354
     12  N         28.3950   46.5330    1.0570 N.3    30  LEU30      -0.1231
     13  CA        28.7020   47.4280    2.1650 C.3    30  LEU30       0.1693
     14  C         30.1490   47.8840    2.0510 C.2    30  LEU30       0.2593
     15  O         30.6470   48.6320    2.8910 O.2    30  LEU30      -0.2718
     16  CB        28.4890   46.7110    3.4990 C.3    30  LEU30       0.0284
     17  CG        27.0660   46.2320    3.7820 C.3    30  LEU30       0.0019
     18  CD1       27.0250   45.5250    5.1280 C.3    30  LEU30       0.0001
     19  CD2       26.1160   47.4180    3.7710 C.3    30  LEU30       0.0001
     20  N         30.8150   47.4240    0.9980 N.am   31  GLY31      -0.1942
     21  CA        32.2310   47.6920    0.8390 C.3    31  GLY31       0.2014
     22  C         33.0360   46.4500    1.1560 C.2    31  GLY31       0.2638
     23  O         32.4700   45.4050    1.4770 O.2    31  GLY31      -0.2714
     24  N         34.3580   46.5550    1.0640 N.am   32  HIS32      -0.1973
     25  CA        35.2270   45.4340    1.3980 C.3    32  HIS32       0.1656
     26  C         36.5000   45.9160    2.0810 C.2    32  HIS32       0.2291
     27  O         36.8680   47.0860    1.9740 O.2    32  HIS32      -0.2864
     28  CB        35.5860   44.6440    0.1360 C.3    32  HIS32       0.0771
     29  CG        36.6570   45.2790   -0.6950 C.ar   32  HIS32       0.0820
     30  ND1       36.3880   46.2230   -1.6620 N.ar   32  HIS32      -0.2267
     31  CD2       37.9980   45.0960   -0.7100 C.ar   32  HIS32       0.1154
     32  CE1       37.5170   46.5950   -2.2360 C.ar   32  HIS32       0.1986
     33  NE2       38.5100   45.9270   -1.6770 N.ar   32  HIS32      -0.2212
     34  N         31.7970   42.5100    1.4030 N.3    35  VAL35      -0.1245
     35  CA        30.8160   42.3430    2.4620 C.3    35  VAL35       0.1561
     36  C         29.4750   42.8770    1.9850 C.2    35  VAL35       0.2260
     37  O         29.4070   43.9320    1.3500 O.2    35  VAL35      -0.2867
     38  CB        31.2400   43.0950    3.7400 C.3    35  VAL35       0.0252
     39  CG1       30.2280   42.8570    4.8490 C.3    35  VAL35       0.0019
     40  CG2       32.6180   42.6320    4.1720 C.3    35  VAL35       0.0019
     41  N         25.1160   43.4520    2.8800 N.3    37  GLU37      -0.1245
     42  CA        23.9550   43.3740    3.7510 C.3    37  GLU37       0.1567
     43  C         23.0900   42.2190    3.2590 C.2    37  GLU37       0.2260
     44  O         22.8700   42.0710    2.0570 O.2    37  GLU37      -0.2867
     45  CB        23.1510   44.6760    3.6980 C.3    37  GLU37       0.0388
     46  CG        21.9170   44.6580    4.5890 C.3    37  GLU37       0.1160
     47  CD        20.9990   45.8430    4.3590 C.2    37  GLU37       0.3649
     48  OE1       21.4110   46.7890    3.6550 O.co2  37  GLU37      -0.2457
     49  OE2       19.8650   45.8290    4.8840 O.co2  37  GLU37      -0.2457
     50  N         25.2390   41.0750    8.1600 N.3    46  ALA46      -0.1245
     51  CA        26.3530   41.4220    7.2950 C.3    46  ALA46       0.1562
     52  C         27.0070   40.1270    6.8390 C.2    46  ALA46       0.2260
     53  O         27.3150   39.2590    7.6540 O.2    46  ALA46      -0.2867
     54  CB        27.3530   42.2750    8.0430 C.3    46  ALA46       0.0290
     55  N         30.0840   38.3480    5.1380 N.3    48  LYS48      -0.1245
     56  CA        31.4570   38.3720    4.6720 C.3    48  LYS48       0.1561
     57  C         31.7000   37.1900    3.7440 C.2    48  LYS48       0.2260
     58  O         31.3590   36.0520    4.0680 O.2    48  LYS48      -0.2867
     59  CB        32.4150   38.3180    5.8610 C.3    48  LYS48       0.0271
     60  CG        33.8360   38.6600    5.5030 C.3    48  LYS48       0.0035
     61  CD        34.6250   39.0260    6.7420 C.3    48  LYS48       0.0206
     62  CE        36.0130   39.5030    6.3770 C.3    48  LYS48       0.1093
     63  NZ        36.8670   39.6160    7.5820 N.3    48  LYS48      -0.1314
     64  N         30.9450   41.8790   18.1120 N.3    78  VAL78      -0.1245
     65  CA        29.9430   41.5750   17.0950 C.3    78  VAL78       0.1561
     66  C         29.5820   40.0900   17.1470 C.2    78  VAL78       0.2260
     67  O         30.4620   39.2350   17.2860 O.2    78  VAL78      -0.2867
     68  CB        30.4730   41.9480   15.6830 C.3    78  VAL78       0.0252
     69  CG1       31.6720   41.0800   15.3200 C.3    78  VAL78       0.0019
     70  CG2       29.3710   41.8160   14.6520 C.3    78  VAL78       0.0019
     71  N         27.4440   37.8500   10.0110 N.3    94  LEU94      -0.1231
     72  CA        27.6000   38.6560   11.2190 C.3    94  LEU94       0.1693
     73  C         26.3690   39.5010   11.5480 C.2    94  LEU94       0.2592
     74  O         25.5870   39.8570   10.6660 O.2    94  LEU94      -0.2718
     75  CB        28.8090   39.5900   11.0810 C.3    94  LEU94       0.0284
     76  CG        30.1640   38.9520   10.7720 C.3    94  LEU94       0.0019
     77  CD1       31.2270   40.0400   10.6440 C.3    94  LEU94       0.0001
     78  CD2       30.5300   37.9800   11.8850 C.3    94  LEU94       0.0001
     79  N         26.2150   39.8120   12.8310 N.am   95  GLU95      -0.1966
     80  CA        25.3010   40.8500   13.3010 C.3    95  GLU95       0.1733
     81  C         25.4550   42.0820   12.3970 C.2    95  GLU95       0.2616
     82  O         26.5620   42.5860   12.2180 O.2    95  GLU95      -0.2715
     83  CB        25.6740   41.2070   14.7450 C.3    95  GLU95       0.0429
     84  CG        24.8380   42.2850   15.4090 C.3    95  GLU95       0.1163
     85  CD        25.2850   42.5400   16.8400 C.2    95  GLU95       0.3649
     86  OE1       26.3310   41.9890   17.2470 O.co2  95  GLU95      -0.2457
     87  OE2       24.5990   43.2920   17.5610 O.co2  95  GLU95      -0.2457
     88  N         24.3520   42.5560   11.8230 N.am   96  LEU96      -0.1963
     89  CA        24.3960   43.7490   10.9820 C.3    96  LEU96       0.1728
     90  C         24.4440   44.9970   11.8510 C.2    96  LEU96       0.2616
     91  O         23.4950   45.3000   12.5710 O.2    96  LEU96      -0.2715
     92  CB        23.1660   43.8110   10.0680 C.3    96  LEU96       0.0311
     93  CG        23.0620   45.0730    9.2050 C.3    96  LEU96       0.0022
     94  CD1       24.2250   45.1240    8.2290 C.3    96  LEU96       0.0001
     95  CD2       21.7320   45.0810    8.4550 C.3    96  LEU96       0.0001
     96  N         25.5560   45.7190   11.7790 N.am   97  MET97      -0.1963
     97  CA        25.7320   46.9160   12.5840 C.3    97  MET97       0.1736
     98  C         25.3840   48.1280   11.7310 C.2    97  MET97       0.2616
     99  O         26.2060   48.6140   10.9560 O.2    97  MET97      -0.2715
    100  CB        27.1780   46.9960   13.0820 C.3    97  MET97       0.0427
    101  CG        27.5740   45.7930   13.9340 C.3    97  MET97       0.0599
    102  SD        26.7350   45.8060   15.5360 S.3    97  MET97      -0.1393
    103  CE        27.7380   47.0710   16.3970 C.3    97  MET97       0.0692
    104  N         24.1530   48.6010   11.8820 N.am   98  ALA98      -0.1963
    105  CA        23.5820   49.5730   10.9580 C.3    98  ALA98       0.1728
    106  C         24.2700   50.9270   11.0520 C.2    98  ALA98       0.2617
    107  O         24.0840   51.7880   10.1880 O.2    98  ALA98      -0.2715
    108  CB        22.0900   49.7220   11.2200 C.3    98  ALA98       0.0334
    109  N         25.0630   51.1140   12.1030 N.am   99  GLY99      -0.1940
    110  CA        25.7830   52.3620   12.2730 C.3    99  GLY99       0.2014
    111  C         27.0860   52.4070   11.5000 C.2    99  GLY99       0.2639
    112  O         27.7140   53.4630   11.3860 O.2    99  GLY99      -0.2714
    113  N         27.4990   51.2570   10.9700 N.am  100  GLY100     -0.1939
    114  CA        28.7220   51.1970   10.1920 C.3   100  GLY100      0.2014
    115  C         29.9780   51.2380   11.0430 C.2   100  GLY100      0.2638
    116  O         29.9080   51.1300   12.2670 O.2   100  GLY100     -0.2714
    117  N         31.1300   51.3900   10.3980 N.am  101  ASP101     -0.1971
    118  CA        32.3970   51.3860   11.1180 C.3   101  ASP101      0.1709
    119  C         32.6060   52.7110   11.8460 C.2   101  ASP101      0.2293
    120  O         32.1240   53.7600   11.4150 O.2   101  ASP101     -0.2864
    121  CB        33.5630   51.1200   10.1560 C.3   101  ASP101      0.1436
    122  CG        33.7820   52.2510    9.1700 C.2   101  ASP101      0.3671
    123  OD1       32.9650   52.3900    8.2330 O.co2 101  ASP101     -0.2456
    124  OD2       34.7710   52.9990    9.3360 O.co2 101  ASP101     -0.2456
    125  N         34.5350   55.8960   10.0510 N.3   104  SER104     -0.1217
    126  CA        33.7380   56.6440    9.0850 C.3   104  SER104      0.1889
    127  C         32.6010   57.3830    9.7780 C.2   104  SER104      0.2288
    128  O         32.2370   58.4850    9.3730 O.2   104  SER104     -0.2866
    129  CB        33.1740   55.7120    8.0070 C.3   104  SER104      0.2089
    130  OG        32.1270   54.9130    8.5220 O.3   104  SER104     -0.2183
    131  N         38.9190   51.7230   12.9100 N.3   149  ARG149     -0.1231
    132  CA        38.5210   51.0460   11.6830 C.3   149  ARG149      0.1694
    133  C         37.9960   49.6360   11.9390 C.2   149  ARG149      0.2592
    134  O         37.3220   49.0540   11.0870 O.2   149  ARG149     -0.2718
    135  CB        39.7020   50.9840   10.7100 C.3   149  ARG149      0.0321
    136  CG        40.8640   50.1310   11.1910 C.3   149  ARG149      0.0489
    137  CD        42.0830   50.3170   10.3030 C.3   149  ARG149      0.2205
    138  NE        42.9340   49.1310   10.2870 N.pl3 149  ARG149     -0.0865
    139  CZ        43.9620   48.9170   11.1010 C.cat 149  ARG149      0.5346
    140  NH1       44.2970   49.8120   12.0280 N.pl3 149  ARG149      0.1354
    141  NH2       44.6680   47.8000   10.9800 N.pl3 149  ARG149      0.1354
    142  N         38.3050   49.0880   13.1100 N.am  150  ASN150     -0.1974
    143  CA        37.9000   47.7290   13.4390 C.3   150  ASN150      0.1688
    144  C         36.7240   47.6950   14.4150 C.2   150  ASN150      0.2292
    145  O         36.3960   46.6420   14.9660 O.2   150  ASN150     -0.2864
    146  CB        39.1020   46.9590   14.0040 C.3   150  ASN150      0.1181
    147  CG        40.1710   46.7080   12.9520 C.2   150  ASN150      0.2629
    148  OD1       39.8630   46.5680   11.7690 O.2   150  ASN150     -0.2716
    149  ND2       41.4310   46.6660   13.3730 N.am  150  ASN150     -0.0877
    150  N         32.5280   48.7920   15.1760 N.3   152  LEU152     -0.1245
    151  CA        31.2390   49.0040   14.5170 C.3   152  LEU152      0.1561
    152  C         30.2330   49.6120   15.4870 C.2   152  LEU152      0.2260
    153  O         30.3870   49.5060   16.7040 O.2   152  LEU152     -0.2867
    154  CB        30.6910   47.6650   14.0040 C.3   152  LEU152      0.0270
    155  CG        31.5260   46.9510   12.9400 C.3   152  LEU152      0.0019
    156  CD1       30.9930   45.5230   12.7590 C.3   152  LEU152      0.0001
    157  CD2       31.4620   47.7190   11.6170 C.3   152  LEU152      0.0001
    158  N         34.5930   44.6300   15.8420 N.3   165  GLY165     -0.1210
    159  CA        33.9710   43.9160   14.7420 C.3   165  GLY165      0.1956
    160  C         34.8950   43.1880   13.7840 C.2   165  GLY165      0.2611
    161  O         34.4180   42.4940   12.8840 O.2   165  GLY165     -0.2717
    162  N         36.2060   43.3460   13.9550 N.am  166  ASP166     -0.1973
    163  CA        37.1860   42.6610   13.1050 C.3   166  ASP166      0.1709
    164  C         38.2900   42.0290   13.9480 C.2   166  ASP166      0.2293
    165  O         38.7610   42.6310   14.9130 O.2   166  ASP166     -0.2864
    166  CB        37.8190   43.6450   12.1130 C.3   166  ASP166      0.1436
    167  CG        38.8060   42.9700   11.1610 C.2   166  ASP166      0.3671
    168  OD1       39.9680   42.7190   11.5500 O.co2 166  ASP166     -0.2456
    169  OD2       38.4180   42.6910   10.0110 O.co2 166  ASP166     -0.2456
@<TRIPOS>BOND
     1    32    33   ar
     2    32    30   ar
     3    33    31   ar
     4    30    29   ar
     5     2     5    1
     6     2     3    1
     7     2     1    1
     8     5     6    1
     9     3     4    2
    10    31    29   ar
    11    29    28    1
    12    28    25    1
    13     6     7    1
    14     7     8    1
    15    21    20    1
    16    21    22    1
    17    20    14   am
    18    12    13    1
    19    24    22   am
    20    24    25    1
    21    22    23    2
    22    37    36    2
    23    25    26    1
    24    34    35    1
    25    10     9    1
    26     8     9    2
    27    27    26    2
    28    36    35    1
    29    14    13    1
    30    14    15    2
    31    44    43    2
    32    13    16    1
    33    35    38    1
    34     9    11    1
    35    41    42    1
    36    43    42    1
    37    16    17    1
    38    48    47   ar
    39    45    42    1
    40    45    46    1
    41    38    40    1
    42    38    39    1
    43    57    58    2
    44    57    56    1
    45    19    17    1
    46    17    18    1
    47    47    46    1
    48    47    49   ar
    49    56    55    1
    50    56    59    1
    51    60    59    1
    52    60    61    1
    53    62    61    1
    54    62    63    1
    55    52    51    1
    56    52    53    2
    57    51    54    1
    58    51    50    1
    59   129   130    1
    60   129   126    1
    61    94    93    1
    62   123   122   ar
    63    95    93    1
    64   126   127    1
    65   126   125    1
    66   122   124   ar
    67   122   121    1
    68    93    92    1
    69   128   127    2
    70   169   167   ar
    71    71    72    1
    72    92    89    1
    73   121   118    1
    74   107   106    2
    75   114   113    1
    76   114   115    1
    77   138   137    1
    78   138   139    2
    79   137   136    1
    80   117   115   am
    81   117   118    1
    82    77    76    1
    83    74    73    2
    84   135   136    1
    85   135   132    1
    86    76    75    1
    87    76    78    1
    88    99    98    2
    89   105   106    1
    90   105   108    1
    91   105   104    1
    92   113   111   am
    93   141   139    1
    94    89    88    1
    95    89    90    1
    96   115   116    2
    97   106   109   am
    98    75    72    1
    99   134   133    2
   100   139   140    1
   101   118   119    1
   102   167   168   ar
   103   167   166    1
   104    72    73    1
   105   112   111    2
   106   120   119    2
   107   111   110    1
   108    73    79   am
   109   157   155    1
   110   132   133    1
   111   132   131    1
   112    98   104   am
   113    98    97    1
   114   148   147    2
   115    96    90   am
   116    96    97    1
   117    88    81   am
   118    90    91    2
   119   133   142   am
   120   109   110    1
   121   166   163    1
   122    82    81    2
   123    81    80    1
   124    97   100    1
   125   156   155    1
   126    79    80    1
   127   161   160    2
   128   155   154    1
   129   147   149   am
   130   147   146    1
   131   100   101    1
   132   163   164    1
   133   163   162    1
   134   142   143    1
   135    80    83    1
   136   143   146    1
   137   143   144    1
   138   160   162   am
   139   160   159    1
   140   101   102    1
   141   164   165    2
   142   154   151    1
   143   144   145    2
   144   151   150    1
   145   151   152    1
   146    70    68    1
   147   159   158    1
   148    83    84    1
   149    69    68    1
   150    84    85    1
   151   152   153    2
   152   102   103    1
   153    68    65    1
   154    85    86   ar
   155    85    87   ar
   156    65    66    1
   157    65    64    1
   158    66    67    2
