@<TRIPOS>MOLECULE
tmp/4cmwA00.pdb
 103 100 0 0 0
SMALL
GASTEIGER

@<TRIPOS>ATOM
      1  N         15.3220   20.9210   17.0530 N.3    33  ASP33      -0.1225
      2  CA        15.4060   22.3250   17.3790 C.3    33  ASP33       0.1805
      3  C         16.8140   22.6500   17.8660 C.2    33  ASP33       0.2598
      4  O         17.5800   21.7460   18.2430 O.2    33  ASP33      -0.2718
      5  CB        14.3630   22.6300   18.4490 C.3    33  ASP33       0.1424
      6  CG        13.8720   24.0490   18.3950 C.2    33  ASP33       0.3668
      7  OD1       14.5480   24.8910   17.7630 O.co2  33  ASP33      -0.2456
      8  OD2       12.8070   24.3160   18.9940 O.co2  33  ASP33      -0.2456
      9  N         17.1550   23.9370   17.8560 N.am   34  GLY34      -0.1957
     10  CA        18.4790   24.3750   18.2580 C.3    34  GLY34       0.1869
     11  C         19.5410   23.9560   17.2580 C.2    34  GLY34       0.2309
     12  O         20.6980   23.7550   17.6150 O.2    34  GLY34      -0.2863
     13  N         22.6580   26.4240   16.4980 N.3    37  ARG37      -0.1245
     14  CA        23.6100   26.3630   17.5950 C.3    37  ARG37       0.1563
     15  C         24.4170   25.0720   17.5160 C.2    37  ARG37       0.2260
     16  O         25.6620   25.0850   17.5680 O.2    37  ARG37      -0.2867
     17  CB        22.8670   26.4350   18.9270 C.3    37  ARG37       0.0307
     18  CG        23.7610   26.6220   20.1320 C.3    37  ARG37       0.0489
     19  CD        22.9460   26.6470   21.4010 C.3    37  ARG37       0.2205
     20  NE        21.9270   27.6900   21.3320 N.pl3  37  ARG37      -0.0865
     21  CZ        20.9430   27.8390   22.2130 C.cat  37  ARG37       0.5346
     22  NH1       20.8590   27.0320   23.2610 N.pl3  37  ARG37       0.1354
     23  NH2       20.0570   28.8100   22.0570 N.pl3  37  ARG37       0.1354
     24  N          6.2270   30.0150   14.7500 N.3    82  LEU82      -0.1245
     25  CA         7.4610   29.9500   15.5100 C.3    82  LEU82       0.1561
     26  C          8.6340   30.4560   14.6700 C.2    82  LEU82       0.2260
     27  O          8.4920   30.7110   13.4700 O.2    82  LEU82      -0.2867
     28  CB         7.7020   28.5060   15.9480 C.3    82  LEU82       0.0270
     29  CG         8.9870   28.1730   16.6980 C.3    82  LEU82       0.0019
     30  CD1        9.0440   28.8730   18.0520 C.3    82  LEU82       0.0001
     31  CD2        9.0980   26.6710   16.8530 C.3    82  LEU82       0.0001
     32  N         13.0640   21.6090   23.3160 N.3   199  PHE199     -0.1227
     33  CA        14.4290   22.0560   23.5610 C.3   199  PHE199      0.1736
     34  C         14.3710   23.4700   24.0910 C.2   199  PHE199      0.2596
     35  O         13.6120   24.2730   23.5870 O.2   199  PHE199     -0.2718
     36  CB        15.2430   22.0280   22.2520 C.3   199  PHE199      0.0547
     37  CG        16.3410   23.0650   22.1990 C.ar  199  PHE199     -0.0202
     38  CD1       17.4960   22.9080   22.9380 C.ar  199  PHE199     -0.0042
     39  CD2       16.1940   24.2210   21.4380 C.ar  199  PHE199     -0.0042
     40  CE1       18.5030   23.8730   22.9090 C.ar  199  PHE199     -0.0003
     41  CE2       17.1930   25.1930   21.4040 C.ar  199  PHE199     -0.0003
     42  CZ        18.3510   25.0140   22.1360 C.ar  199  PHE199     -0.0000
     43  N         15.1880   23.7880   25.0890 N.am  200  GLY200     -0.1942
     44  CA        15.2840   25.1640   25.5670 C.3   200  GLY200      0.2014
     45  C         14.0270   25.7310   26.2180 C.2   200  GLY200      0.2638
     46  O         13.4840   25.1540   27.1560 O.2   200  GLY200     -0.2714
     47  N         13.5830   26.8780   25.7200 N.am  201  ARG201     -0.1977
     48  CA        12.3750   27.5500   26.2050 C.3   201  ARG201      0.1597
     49  C         11.2020   26.5750   26.1970 C.2   201  ARG201      0.2287
     50  O         11.0210   25.8350   25.2260 O.2   201  ARG201     -0.2864
     51  CB        12.0540   28.7540   25.3260 C.3   201  ARG201      0.0334
     52  CG        13.0400   29.9080   25.4720 C.3   201  ARG201      0.0492
     53  CD        12.8580   30.9710   24.3760 C.3   201  ARG201      0.2205
     54  NE        13.1190   30.4150   23.0530 N.pl3 201  ARG201     -0.0865
     55  CZ        12.8900   31.0400   21.9020 C.cat 201  ARG201      0.5346
     56  NH1       12.3920   32.2680   21.8880 N.pl3 201  ARG201      0.1354
     57  NH2       13.1630   30.4280   20.7570 N.pl3 201  ARG201      0.1354
     58  N          7.9600   25.2870   25.4350 N.3   203  SER203     -0.1217
     59  CA         6.8560   25.5880   24.5380 C.3   203  SER203      0.1889
     60  C          6.6520   24.3600   23.6920 C.2   203  SER203      0.2288
     61  O          7.5930   23.5990   23.4970 O.2   203  SER203     -0.2866
     62  CB         7.1850   26.7760   23.6290 C.3   203  SER203      0.2089
     63  OG         8.2020   26.4290   22.7060 O.3   203  SER203     -0.2183
     64  N         18.0500   20.5220   27.6580 N.3   221  VAL221     -0.1245
     65  CA        18.8730   21.7100   27.7510 C.3   221  VAL221      0.1561
     66  C         19.6620   21.8850   26.4610 C.2   221  VAL221      0.2260
     67  O         19.7360   22.9920   25.8930 O.2   221  VAL221     -0.2867
     68  CB        19.8390   21.6520   28.9360 C.3   221  VAL221      0.0252
     69  CG1       20.8290   22.7910   28.8420 C.3   221  VAL221      0.0019
     70  CG2       19.0660   21.7630   30.2390 C.3   221  VAL221      0.0019
     71  N         21.4600   33.8720   24.9970 N.3   283  ILE283     -0.1231
     72  CA        20.9560   32.5140   25.0770 C.3   283  ILE283      0.1692
     73  C         20.1620   32.3210   26.3550 C.2   283  ILE283      0.2592
     74  O         20.6620   32.5360   27.4560 O.2   283  ILE283     -0.2718
     75  CB        22.0620   31.4600   25.0320 C.3   283  ILE283      0.0266
     76  CG1       22.9570   31.6570   23.8090 C.3   283  ILE283      0.0019
     77  CG2       21.4340   30.0620   25.0400 C.3   283  ILE283      0.0020
     78  CD1       24.1140   30.6920   23.7600 C.3   283  ILE283      0.0001
     79  N         18.9150   31.9150   26.1820 N.am  284  TRP284     -0.1962
     80  CA        18.0260   31.5850   27.2830 C.3   284  TRP284      0.1771
     81  C         18.3110   30.1660   27.7710 C.2   284  TRP284      0.2619
     82  O         18.4650   29.2520   26.9760 O.2   284  TRP284     -0.2715
     83  CB        16.5850   31.6690   26.7890 C.3   284  TRP284      0.0590
     84  CG        15.5170   31.4720   27.8150 C.ar  284  TRP284      0.0006
     85  CD1       14.7960   32.4460   28.4400 C.ar  284  TRP284      0.0946
     86  CD2       15.0300   30.2230   28.3230 C.ar  284  TRP284      0.0152
     87  NE1       13.8860   31.8830   29.3020 N.ar  284  TRP284     -0.2442
     88  CE2       14.0070   30.5160   29.2440 C.ar  284  TRP284      0.0810
     89  CE3       15.3530   28.8790   28.0800 C.ar  284  TRP284      0.0012
     90  CZ2       13.3080   29.5220   29.9280 C.ar  284  TRP284      0.0191
     91  CZ3       14.6630   27.8910   28.7610 C.ar  284  TRP284      0.0001
     92  CH2       13.6500   28.2160   29.6730 C.ar  284  TRP284      0.0015
     93  N         18.3810   30.0030   29.0830 N.am  285  PHE285     -0.1974
     94  CA        18.5490   28.7070   29.7420 C.3   285  PHE285      0.1639
     95  C         17.5360   28.6080   30.8800 C.2   285  PHE285      0.2290
     96  O         17.4080   29.5570   31.6580 O.2   285  PHE285     -0.2864
     97  CB        19.9400   28.5970   30.3740 C.3   285  PHE285      0.0560
     98  CG        21.0520   28.3630   29.3940 C.ar  285  PHE285     -0.0200
     99  CD1       21.4380   27.0750   29.0530 C.ar  285  PHE285     -0.0042
    100  CD2       21.7330   29.4270   28.8360 C.ar  285  PHE285     -0.0042
    101  CE1       22.4680   26.8550   28.1570 C.ar  285  PHE285     -0.0003
    102  CE2       22.7600   29.2090   27.9420 C.ar  285  PHE285     -0.0003
    103  CZ        23.1310   27.9260   27.6050 C.ar  285  PHE285     -0.0000
@<TRIPOS>BOND
     1    27    26    2
     2    26    25    1
     3    24    25    1
     4    25    28    1
     5    28    29    1
     6    13    14    1
     7    29    31    1
     8    29    30    1
     9     1     2    1
    10    11    12    2
    11    11    10    1
    12     2     3    1
    13     2     5    1
    14    15    16    2
    15    15    14    1
    16    14    17    1
    17     7     6   ar
    18     9     3   am
    19     9    10    1
    20     3     4    2
    21     6     5    1
    22     6     8   ar
    23    17    18    1
    24    18    19    1
    25    57    55    1
    26    20    19    1
    27    20    21    2
    28    41    39   ar
    29    41    42   ar
    30    39    37   ar
    31    56    55    1
    32    55    54    2
    33    23    21    1
    34    42    40   ar
    35    37    36    1
    36    37    38   ar
    37    21    22    1
    38    36    33    1
    39    63    62    1
    40    40    38   ar
    41    54    53    1
    42    32    33    1
    43    61    60    2
    44    33    34    1
    45    35    34    2
    46    62    59    1
    47    60    59    1
    48    78    76    1
    49    76    75    1
    50    34    43   am
    51    53    52    1
    52    59    58    1
    53    71    72    1
    54    75    77    1
    55    75    72    1
    56    72    73    1
    57    43    44    1
    58    50    49    2
    59    51    52    1
    60    51    48    1
    61    44    45    1
    62    47    48    1
    63    47    45   am
    64    67    66    2
    65    79    73   am
    66    79    80    1
    67    49    48    1
    68    45    46    2
    69    73    74    2
    70    66    65    1
    71    83    80    1
    72    83    84    1
    73    82    81    2
    74    80    81    1
    75   103   102   ar
    76   103   101   ar
    77    64    65    1
    78    65    68    1
    79    81    93   am
    80    84    86   ar
    81    84    85   ar
    82   102   100   ar
    83    89    86   ar
    84    89    91   ar
    85   101    99   ar
    86    86    88   ar
    87    85    87   ar
    88    91    92   ar
    89   100    98   ar
    90    69    68    1
    91    68    70    1
    92    99    98   ar
    93    93    94    1
    94    88    87   ar
    95    88    90   ar
    96    98    97    1
    97    92    90   ar
    98    94    97    1
    99    94    95    1
   100    95    96    2
