@<TRIPOS>MOLECULE
tmp/4cmxA00.pdb
 87 80 0 0 0
SMALL
GASTEIGER

@<TRIPOS>ATOM
      1  N         12.6700   10.4160  -18.3530 N.3    32  GLY32      -0.1225
      2  CA        12.8250   11.1290  -17.1000 C.3    32  GLY32       0.1811
      3  C         14.2720   11.3030  -16.6870 C.2    32  GLY32       0.2280
      4  O         14.5640   11.6120  -15.5250 O.2    32  GLY32      -0.2866
      5  N         16.3830   13.6040  -17.2280 N.3    34  ARG34      -0.1231
      6  CA        16.7410   14.9360  -16.7280 C.3    34  ARG34       0.1694
      7  C         16.3180   15.1030  -15.2680 C.2    34  ARG34       0.2591
      8  O         17.0300   15.7240  -14.4680 O.2    34  ARG34      -0.2718
      9  CB        16.2080   16.0560  -17.6290 C.3    34  ARG34       0.0321
     10  CG        16.9530   16.1220  -18.9620 C.3    34  ARG34       0.0489
     11  CD        16.3450   17.1560  -19.9090 C.3    34  ARG34       0.2205
     12  NE        15.0700   16.7120  -20.4700 N.pl3  34  ARG34      -0.0865
     13  CZ        14.1060   17.5370  -20.8620 C.cat  34  ARG34       0.5346
     14  NH1       14.2630   18.8500  -20.7550 N.pl3  34  ARG34       0.1354
     15  NH2       12.9840   17.0520  -21.3640 N.pl3  34  ARG34       0.1354
     16  N         15.1760   14.5100  -14.9230 N.am   35  ARG35      -0.1980
     17  CA        14.7590   14.4100  -13.5280 C.3    35  ARG35       0.1597
     18  C         15.8040   13.6510  -12.7060 C.2    35  ARG35       0.2287
     19  O         16.3000   14.1430  -11.6720 O.2    35  ARG35      -0.2864
     20  CB        13.4340   13.6720  -13.4360 C.3    35  ARG35       0.0334
     21  CG        12.2830   14.5510  -13.1300 C.3    35  ARG35       0.0492
     22  CD        11.2060   14.3940  -14.1720 C.3    35  ARG35       0.2205
     23  NE        10.1140   13.5700  -13.6970 N.pl3  35  ARG35      -0.0865
     24  CZ         8.8410   13.7870  -13.9890 C.cat  35  ARG35       0.5346
     25  NH1        8.4880   14.8280  -14.7360 N.pl3  35  ARG35       0.1354
     26  NH2        7.9190   12.9630  -13.5190 N.pl3  35  ARG35       0.1354
     27  N          7.8510   11.4210  -27.9350 N.3    80  LEU80      -0.1245
     28  CA         8.5790   10.7430  -26.8570 C.3    80  LEU80       0.1561
     29  C          8.1560   11.3690  -25.5220 C.2    80  LEU80       0.2260
     30  O          8.1010   12.5810  -25.3980 O.2    80  LEU80      -0.2867
     31  CB        10.0830   10.9230  -27.0780 C.3    80  LEU80       0.0270
     32  CG        11.1760    9.9790  -26.5530 C.3    80  LEU80       0.0019
     33  CD1       10.7780    9.2120  -25.2790 C.3    80  LEU80       0.0001
     34  CD2       11.6780    9.0360  -27.6410 C.3    80  LEU80       0.0001
     35  N          8.7320   12.4530  -21.6610 N.3    82  ASP82      -0.1225
     36  CA         9.8360   12.7470  -20.7490 C.3    82  ASP82       0.1805
     37  C         11.2050   12.5440  -21.4260 C.2    82  ASP82       0.2597
     38  O         12.0980   11.8800  -20.8860 O.2    82  ASP82      -0.2718
     39  CB         9.7160   11.8900  -19.4890 C.3    82  ASP82       0.1424
     40  CG         8.3240   11.9300  -18.8940 C.2    82  ASP82       0.3668
     41  OD1        7.9250   12.9920  -18.3770 O.co2  82  ASP82      -0.2456
     42  OD2        7.6210   10.9040  -18.9360 O.co2  82  ASP82      -0.2456
     43  N         11.3440   13.1200  -22.6170 N.am   83  ARG83      -0.1979
     44  CA        12.5350   12.9690  -23.4590 C.3    83  ARG83       0.1597
     45  C         13.8320   13.4390  -22.7850 C.2    83  ARG83       0.2287
     46  O         13.8080   14.2140  -21.8280 O.2    83  ARG83      -0.2864
     47  CB        12.3290   13.7200  -24.7820 C.3    83  ARG83       0.0334
     48  CG        12.1770   15.2470  -24.6390 C.3    83  ARG83       0.0492
     49  CD        11.7230   15.8740  -25.9700 C.3    83  ARG83       0.2205
     50  NE        11.5730   17.3300  -25.9370 N.pl3  83  ARG83      -0.0865
     51  CZ        10.4720   17.9650  -25.5430 C.cat  83  ARG83       0.5346
     52  NH1        9.4160   17.2690  -25.1370 N.pl3  83  ARG83       0.1354
     53  NH2       10.4170   19.2920  -25.5560 N.pl3  83  ARG83       0.1354
     54  N         15.3820   18.5930  -24.4600 N.3    86  ARG86      -0.1245
     55  CA        14.3730   19.4760  -25.0060 C.3    86  ARG86       0.1563
     56  C         14.7080   19.9390  -26.4340 C.2    86  ARG86       0.2260
     57  O         13.8280   19.9550  -27.3020 O.2    86  ARG86      -0.2867
     58  CB        14.1610   20.6840  -24.0780 C.3    86  ARG86       0.0307
     59  CG        13.2840   21.7450  -24.6690 C.3    86  ARG86       0.0489
     60  CD        12.8370   22.7330  -23.6270 C.3    86  ARG86       0.2205
     61  NE        12.0000   23.7640  -24.2230 N.pl3  86  ARG86      -0.0865
     62  CZ        10.6760   23.6970  -24.3100 C.cat  86  ARG86       0.5346
     63  NH1       10.0230   22.6440  -23.8320 N.pl3  86  ARG86       0.1354
     64  NH2       10.0040   24.6850  -24.8830 N.pl3  86  ARG86       0.1354
     65  N          3.5420    8.6530  -16.5380 N.3   206  ARG206     -0.1245
     66  CA         2.2650    8.5890  -17.2340 C.3   206  ARG206      0.1563
     67  C          2.1810    7.3390  -18.0900 C.2   206  ARG206      0.2260
     68  O          3.1380    6.9960  -18.7780 O.2   206  ARG206     -0.2867
     69  CB         2.0820    9.8500  -18.0920 C.3   206  ARG206      0.0307
     70  CG         1.8880   11.1250  -17.2550 C.3   206  ARG206      0.0489
     71  CD         2.0770   12.4020  -18.0550 C.3   206  ARG206      0.2205
     72  NE         3.4730   12.6310  -18.4200 N.pl3 206  ARG206     -0.0865
     73  CZ         3.8910   13.5940  -19.2430 C.cat 206  ARG206      0.5346
     74  NH1        3.0180   14.4240  -19.8040 N.pl3 206  ARG206      0.1354
     75  NH2        5.1830   13.7250  -19.5150 N.pl3 206  ARG206      0.1354
     76  N          3.7360   20.2000   -9.9290 N.3   287  GLY287     -0.1210
     77  CA         3.7800   20.0950  -11.3760 C.3   287  GLY287      0.1956
     78  C          4.1930   18.7350  -11.9170 C.2   287  GLY287      0.2611
     79  O          4.3680   18.5880  -13.1240 O.2   287  GLY287     -0.2717
     80  N          4.3540   17.7430  -11.0420 N.am  288  ILE288     -0.1979
     81  CA         4.7770   16.4000  -11.4730 C.3   288  ILE288      0.1595
     82  C          3.6750   15.3690  -11.2360 C.2   288  ILE288      0.2287
     83  O          3.1430   15.2560  -10.1220 O.2   288  ILE288     -0.2864
     84  CB         6.0820   15.9590  -10.7690 C.3   288  ILE288      0.0276
     85  CG1        7.2460   16.8630  -11.2040 C.3   288  ILE288      0.0022
     86  CG2        6.4060   14.5260  -11.0990 C.3   288  ILE288      0.0022
     87  CD1        8.5510   16.6520  -10.4490 C.3   288  ILE288      0.0001
@<TRIPOS>BOND
     1    27    28    1
     2    34    32    1
     3    57    56    2
     4    31    28    1
     5    31    32    1
     6    28    29    1
     7    32    33    1
     8    56    55    1
     9    49    50    1
    10    49    48    1
    11    50    51    2
    12    53    51    1
    13    51    52    1
    14    29    30    2
    15    55    54    1
    16    55    58    1
    17    64    62    1
    18    47    48    1
    19    47    44    1
    20    59    58    1
    21    59    60    1
    22    62    61    2
    23    62    63    1
    24    61    60    1
    25    44    45    1
    26    44    43    1
    27    45    46    2
    28    43    37   am
    29    35    36    1
    30    37    38    2
    31    37    36    1
    32    15    13    1
    33    13    14    1
    34    13    12    2
    35    36    39    1
    36    12    11    1
    37    11    10    1
    38    74    73    1
    39    75    73    1
    40    39    40    1
    41    73    72    2
    42    10     9    1
    43    42    40   ar
    44    40    41   ar
    45    68    67    2
    46    72    71    1
    47     1     2    1
    48    69    70    1
    49    69    66    1
    50    67    66    1
    51    71    70    1
    52     9     6    1
    53    66    65    1
    54     5     6    1
    55     2     3    1
    56     6     7    1
    57     3     4    2
    58     7    16   am
    59     7     8    2
    60    16    17    1
    61    25    24    1
    62    22    23    1
    63    22    21    1
    64    24    23    2
    65    24    26    1
    66    17    20    1
    67    17    18    1
    68    20    21    1
    69    79    78    2
    70    18    19    2
    71    78    77    1
    72    78    80   am
    73    81    82    1
    74    81    80    1
    75    81    84    1
    76    77    76    1
    77    82    83    2
    78    85    84    1
    79    85    87    1
    80    86    84    1
