@<TRIPOS>MOLECULE
tmp/4cn1A00.pdb
 189 178 0 0 0
SMALL
GASTEIGER

@<TRIPOS>ATOM
      1  N         22.5270  -21.6020   46.4730 N.3   250  LYS250     -0.1245
      2  CA        21.4660  -22.5840   46.4210 C.3   250  LYS250      0.1561
      3  C         21.6580  -23.7180   47.4110 C.2   250  LYS250      0.2260
      4  O         22.7790  -24.0680   47.7720 O.2   250  LYS250     -0.2867
      5  CB        21.3470  -23.1140   44.9950 C.3   250  LYS250      0.0271
      6  CG        20.6370  -22.1420   44.0900 C.3   250  LYS250      0.0035
      7  CD        20.6070  -22.6190   42.6550 C.3   250  LYS250      0.0206
      8  CE        19.4430  -21.9880   41.8970 C.3   250  LYS250      0.1093
      9  NZ        19.5160  -22.3050   40.4360 N.3   250  LYS250     -0.1314
     10  N         18.3720  -28.0950   44.3930 N.3   254  ASN254     -0.1240
     11  CA        18.0990  -26.8280   43.7540 C.3   254  ASN254      0.1653
     12  C         17.0720  -25.9560   44.4800 C.2   254  ASN254      0.2266
     13  O         16.2530  -25.3230   43.8430 O.2   254  ASN254     -0.2867
     14  CB        17.6450  -27.0920   42.3260 C.3   254  ASN254      0.1155
     15  CG        17.8320  -25.8950   41.4220 C.2   254  ASN254      0.2627
     16  OD1       18.6970  -25.0590   41.6500 O.2   254  ASN254     -0.2716
     17  ND2       17.0470  -25.8300   40.3750 N.am  254  ASN254     -0.0877
     18  N         26.7470  -24.4540   44.7140 N.3   265  VAL265     -0.1245
     19  CA        27.0210  -24.9660   43.3980 C.3   265  VAL265      0.1561
     20  C         28.3710  -24.4400   42.8930 C.2   265  VAL265      0.2260
     21  O         28.6210  -23.2210   42.9050 O.2   265  VAL265     -0.2867
     22  CB        25.9230  -24.5260   42.4360 C.3   265  VAL265      0.0252
     23  CG1       26.1070  -25.1970   41.0930 C.3   265  VAL265      0.0019
     24  CG2       24.5560  -24.8860   43.0040 C.3   265  VAL265      0.0019
     25  N         29.4920  -23.8080   40.2200 N.3   267  TRP267     -0.1227
     26  CA        29.3620  -22.8660   39.1100 C.3   267  TRP267      0.1737
     27  C         29.0300  -21.4340   39.5670 C.2   267  TRP267      0.2595
     28  O         29.0920  -20.5080   38.7560 O.2   267  TRP267     -0.2718
     29  CB        28.3820  -23.4150   38.0450 C.3   267  TRP267      0.0564
     30  CG        29.0160  -24.5070   37.1870 C.ar  267  TRP267      0.0003
     31  CD1       29.7570  -24.3180   36.0640 C.ar  267  TRP267      0.0946
     32  CD2       28.9990  -25.9330   37.4080 C.ar  267  TRP267      0.0152
     33  NE1       30.1730  -25.5200   35.5580 N.ar  267  TRP267     -0.2442
     34  CE2       29.7280  -26.5250   36.3710 C.ar  267  TRP267      0.0810
     35  CE3       28.4140  -26.7580   38.3690 C.ar  267  TRP267      0.0012
     36  CZ2       29.9110  -27.9000   36.2730 C.ar  267  TRP267      0.0191
     37  CZ3       28.5880  -28.1330   38.2680 C.ar  267  TRP267      0.0001
     38  CH2       29.3420  -28.6900   37.2300 C.ar  267  TRP267      0.0015
     39  N         28.7400  -21.2420   40.8520 N.am  268  ALA268     -0.1980
     40  CA        28.5200  -19.9080   41.3880 C.3   268  ALA268      0.1597
     41  C         29.8410  -19.3450   41.8620 C.2   268  ALA268      0.2287
     42  O         30.0960  -19.1880   43.0540 O.2   268  ALA268     -0.2864
     43  CB        27.4950  -19.9210   42.5260 C.3   268  ALA268      0.0319
     44  N         31.1830  -16.3520   34.0900 N.3   310  GLN310     -0.1245
     45  CA        30.0030  -15.9100   34.8420 C.3   310  GLN310      0.1566
     46  C         30.4750  -15.7690   36.3050 C.2   310  GLN310      0.2260
     47  O         31.5960  -16.1630   36.6250 O.2   310  GLN310     -0.2867
     48  CB        28.8720  -16.9260   34.7470 C.3   310  GLN310      0.0367
     49  CG        29.1700  -18.1920   35.5420 C.3   310  GLN310      0.0905
     50  CD        28.3140  -19.3720   35.1530 C.2   310  GLN310      0.2608
     51  OE1       27.7380  -19.4040   34.0840 O.2   310  GLN310     -0.2717
     52  NE2       28.2510  -20.3700   36.0200 N.am  310  GLN310     -0.0878
     53  N         17.9190  -19.8380   31.7300 N.3   338  ASN338     -0.1240
     54  CA        18.0070  -20.7360   30.5580 C.3   338  ASN338      0.1653
     55  C         16.6080  -21.3490   30.4220 C.2   338  ASN338      0.2266
     56  O         16.4410  -22.5720   30.5770 O.2   338  ASN338     -0.2867
     57  CB        19.1190  -21.7970   30.8100 C.3   338  ASN338      0.1155
     58  CG        19.1060  -22.9720   29.8160 C.2   338  ASN338      0.2627
     59  OD1       18.3870  -22.9490   28.8180 O.2   338  ASN338     -0.2716
     60  ND2       19.9200  -24.0180   30.1070 N.am  338  ASN338     -0.0877
     61  N         14.3440  -22.5730   33.3550 N.3   341  LYS341     -0.1245
     62  CA        15.3230  -22.6050   34.4530 C.3   341  LYS341      0.1561
     63  C         15.9050  -21.2440   34.8170 C.2   341  LYS341      0.2260
     64  O         16.2180  -20.4200   33.9450 O.2   341  LYS341     -0.2867
     65  CB        16.4600  -23.5580   34.1070 C.3   341  LYS341      0.0271
     66  CG        15.9950  -25.0030   34.1280 C.3   341  LYS341      0.0035
     67  CD        16.5790  -25.8080   33.0060 C.3   341  LYS341      0.0206
     68  CE        18.0160  -26.1560   33.2690 C.3   341  LYS341      0.1093
     69  NZ        18.1820  -27.6040   33.0040 N.3   341  LYS341     -0.1314
     70  N         18.9000  -19.3730   37.3140 N.3   343  TYR343     -0.1241
     71  CA        20.1520  -19.5140   38.0300 C.3   343  TYR343      0.1605
     72  C         20.3510  -18.3050   38.9450 C.2   343  TYR343      0.2264
     73  O         21.2140  -17.4440   38.7000 O.2   343  TYR343     -0.2867
     74  CB        21.2880  -19.6020   37.0320 C.3   343  TYR343      0.0534
     75  CG        21.1370  -20.6930   35.9780 C.ar  343  TYR343     -0.0201
     76  CD1       20.5010  -21.9150   36.2590 C.ar  343  TYR343     -0.0009
     77  CD2       21.6930  -20.5240   34.7090 C.ar  343  TYR343     -0.0009
     78  CE1       20.3910  -22.9010   35.2950 C.ar  343  TYR343      0.0417
     79  CE2       21.5950  -21.5120   33.7460 C.ar  343  TYR343      0.0417
     80  CZ        20.9410  -22.6970   34.0380 C.ar  343  TYR343      0.1957
     81  OH        20.8500  -23.6590   33.0530 O.3   343  TYR343     -0.2866
     82  N         21.7730  -17.8390   41.6550 N.3   345  ASP345     -0.1225
     83  CA        23.0750  -17.7300   42.3150 C.3   345  ASP345      0.1805
     84  C         24.1600  -17.0770   41.4490 C.2   345  ASP345      0.2597
     85  O         25.2860  -16.9250   41.9100 O.2   345  ASP345     -0.2718
     86  CB        23.5610  -19.1210   42.8320 C.3   345  ASP345      0.1424
     87  CG        23.4290  -20.2400   41.7990 C.2   345  ASP345      0.3668
     88  OD1       22.7030  -20.0200   40.8160 O.co2 345  ASP345     -0.2456
     89  OD2       24.0020  -21.3430   41.9870 O.co2 345  ASP345     -0.2456
     90  N         23.8520  -16.7340   40.1940 N.am  346  ILE346     -0.1980
     91  CA        24.8660  -16.1530   39.3250 C.3   346  ILE346      0.1595
     92  C         24.4260  -14.9680   38.4860 C.2   346  ILE346      0.2287
     93  O         23.2630  -14.8050   38.1740 O.2   346  ILE346     -0.2864
     94  CB        25.4770  -17.1840   38.3500 C.3   346  ILE346      0.0276
     95  CG1       24.3940  -17.9910   37.6420 C.3   346  ILE346      0.0022
     96  CG2       26.4290  -18.1070   39.0980 C.3   346  ILE346      0.0022
     97  CD1       24.8910  -18.6730   36.3790 C.3   346  ILE346      0.0001
     98  N         37.0530  -27.3290   29.6140 N.3   378  ARG378     -0.1245
     99  CA        35.6810  -27.5760   29.2660 C.3   378  ARG378      0.1563
    100  C         34.9980  -26.2490   29.5040 C.2   378  ARG378      0.2260
    101  O         34.8660  -25.8300   30.6290 O.2   378  ARG378     -0.2867
    102  CB        35.1580  -28.6960   30.1700 C.3   378  ARG378      0.0307
    103  CG        33.7440  -29.1620   29.9130 C.3   378  ARG378      0.0489
    104  CD        32.7260  -28.2660   30.5600 C.3   378  ARG378      0.2205
    105  NE        31.4600  -28.9780   30.7530 N.pl3 378  ARG378     -0.0865
    106  CZ        30.4080  -28.4440   31.3580 C.cat 378  ARG378      0.5346
    107  NH1       30.4560  -27.2020   31.8420 N.pl3 378  ARG378      0.1354
    108  NH2       29.3020  -29.1510   31.4760 N.pl3 378  ARG378      0.1354
    109  N         31.9460  -23.8360   29.7080 N.3   380  ALA380     -0.1231
    110  CA        30.5210  -23.9240   30.0170 C.3   380  ALA380      0.1694
    111  C         29.7580  -22.9140   29.2100 C.2   380  ALA380      0.2592
    112  O         30.1870  -21.7780   29.0680 O.2   380  ALA380     -0.2718
    113  CB        30.2840  -23.6790   31.4850 C.3   380  ALA380      0.0304
    114  N         28.6330  -23.3590   28.6520 N.am  381  ASN381     -0.1974
    115  CA        27.6740  -22.4860   27.9630 C.3   381  ASN381      0.1688
    116  C         28.2760  -21.5240   27.0040 C.2   381  ASN381      0.2292
    117  O         27.8880  -20.3710   26.9850 O.2   381  ASN381     -0.2864
    118  CB        26.9410  -21.6540   29.0050 C.3   381  ASN381      0.1181
    119  CG        25.8970  -22.4310   29.6910 C.2   381  ASN381      0.2629
    120  OD1       25.2280  -23.2560   29.0600 O.2   381  ASN381     -0.2716
    121  ND2       25.7390  -22.2020   30.9850 N.am  381  ASN381     -0.0877
    122  N         27.7310  -20.7120   24.2510 N.3   383  HIS383     -0.1241
    123  CA        26.7250  -20.0900   23.4370 C.3   383  HIS383      0.1621
    124  C         25.9630  -18.9540   24.0770 C.2   383  HIS383      0.2264
    125  O         25.1070  -18.3800   23.3960 O.2   383  HIS383     -0.2867
    126  CB        25.7140  -21.1260   22.9290 C.3   383  HIS383      0.0745
    127  CG        24.9410  -21.7930   24.0090 C.ar  383  HIS383      0.0817
    128  ND1       25.4990  -22.7290   24.8510 N.ar  383  HIS383     -0.2268
    129  CD2       23.6460  -21.6690   24.3920 C.ar  383  HIS383      0.1154
    130  CE1       24.5870  -23.1460   25.7120 C.ar  383  HIS383      0.1986
    131  NE2       23.4500  -22.5290   25.4490 N.ar  383  HIS383     -0.2212
    132  N         30.6050  -26.8830   25.7620 N.3   409  GLU409     -0.1245
    133  CA        29.3430  -27.4000   26.3170 C.3   409  GLU409      0.1567
    134  C         28.1680  -26.5710   25.8520 C.2   409  GLU409      0.2260
    135  O         27.5980  -25.8040   26.5970 O.2   409  GLU409     -0.2867
    136  CB        29.3840  -27.4530   27.8440 C.3   409  GLU409      0.0388
    137  CG        28.1250  -28.0070   28.5120 C.3   409  GLU409      0.1160
    138  CD        27.3320  -26.9860   29.3330 C.2   409  GLU409      0.3649
    139  OE1       27.9250  -25.9890   29.7730 O.co2 409  GLU409     -0.2457
    140  OE2       26.1100  -27.1920   29.5520 O.co2 409  GLU409     -0.2457
    141  N         24.6780  -27.1140   24.4110 N.3   411  PHE411     -0.1241
    142  CA        23.5000  -27.8780   24.0590 C.3   411  PHE411      0.1605
    143  C         22.4480  -26.8860   23.5630 C.2   411  PHE411      0.2264
    144  O         21.7470  -26.2690   24.3520 O.2   411  PHE411     -0.2867
    145  CB        22.9920  -28.6550   25.2580 C.3   411  PHE411      0.0534
    146  CG        23.9510  -29.6980   25.7800 C.ar  411  PHE411     -0.0203
    147  CD1       24.2170  -30.8490   25.0500 C.ar  411  PHE411     -0.0042
    148  CD2       24.5130  -29.5570   27.0300 C.ar  411  PHE411     -0.0042
    149  CE1       25.0370  -31.8450   25.5670 C.ar  411  PHE411     -0.0003
    150  CE2       25.3220  -30.5220   27.5520 C.ar  411  PHE411     -0.0003
    151  CZ        25.5790  -31.6850   26.8230 C.ar  411  PHE411     -0.0000
    152  N         23.7640  -32.8820   34.6120 N.3   466  ASP466     -0.1239
    153  CA        22.4830  -32.2430   34.2490 C.3   466  ASP466      0.1674
    154  C         21.6650  -33.0780   33.3220 C.2   466  ASP466      0.2266
    155  O         20.5770  -32.6800   32.9350 O.2   466  ASP466     -0.2867
    156  CB        22.7170  -30.8960   33.5530 C.3   466  ASP466      0.1410
    157  CG        23.8930  -30.1970   34.1080 C.2   466  ASP466      0.3668
    158  OD1       23.7310  -29.6190   35.1900 O.co2 466  ASP466     -0.2456
    159  OD2       25.0090  -30.2920   33.4990 O.co2 466  ASP466     -0.2456
    160  N         17.1500  -34.1050   35.6560 N.3   514  GLU514     -0.1245
    161  CA        18.0050  -33.9070   36.8190 C.3   514  GLU514      0.1567
    162  C         18.0640  -35.1800   37.6800 C.2   514  GLU514      0.2260
    163  O         17.0870  -35.9170   37.7710 O.2   514  GLU514     -0.2867
    164  CB        17.4890  -32.7280   37.6700 C.3   514  GLU514      0.0388
    165  CG        17.5200  -31.3610   37.0030 C.3   514  GLU514      0.1160
    166  CD        18.9240  -30.7820   36.9110 C.2   514  GLU514      0.3649
    167  OE1       19.5900  -30.6460   37.9620 O.co2 514  GLU514     -0.2457
    168  OE2       19.3690  -30.4810   35.7740 O.co2 514  GLU514     -0.2457
    169  N         25.4770  -31.4200   42.4690 N.3   520  LYS520     -0.1231
    170  CA        25.7190  -30.0020   42.2240 C.3   520  LYS520      0.1693
    171  C         25.4160  -29.1290   43.4410 C.2   520  LYS520      0.2592
    172  O         25.9010  -27.9970   43.5190 O.2   520  LYS520     -0.2718
    173  CB        24.8850  -29.5040   41.0520 C.3   520  LYS520      0.0285
    174  CG        25.2690  -30.0790   39.7140 C.3   520  LYS520      0.0035
    175  CD        24.4090  -29.5320   38.5870 C.3   520  LYS520      0.0206
    176  CE        23.0290  -30.1710   38.6070 C.3   520  LYS520      0.1093
    177  NZ        22.2290  -29.6290   37.4760 N.3   520  LYS520     -0.1314
    178  N         24.5980  -29.6400   44.3550 N.am  521  TYR521     -0.1976
    179  CA        24.1170  -28.8660   45.5040 C.3   521  TYR521      0.1639
    180  C         24.5110  -29.4840   46.8470 C.2   521  TYR521      0.2290
    181  O         24.2030  -28.9360   47.8980 O.2   521  TYR521     -0.2864
    182  CB        22.5850  -28.7640   45.4420 C.3   521  TYR521      0.0560
    183  CG        22.0570  -28.3810   44.0630 C.ar  521  TYR521     -0.0198
    184  CD1       21.9680  -27.0610   43.6710 C.ar  521  TYR521     -0.0009
    185  CD2       21.6310  -29.3580   43.1780 C.ar  521  TYR521     -0.0009
    186  CE1       21.4940  -26.7170   42.4200 C.ar  521  TYR521      0.0417
    187  CE2       21.1390  -29.0330   41.9260 C.ar  521  TYR521      0.0417
    188  CZ        21.0960  -27.7050   41.5400 C.ar  521  TYR521      0.1957
    189  OH        20.6490  -27.3730   40.2790 O.3   521  TYR521     -0.2866
@<TRIPOS>BOND
     1   126   123    1
     2   126   127    1
     3   125   124    2
     4   123   124    1
     5   123   122    1
     6   143   142    1
     7   143   144    2
     8   127   129   ar
     9   127   128   ar
    10   142   141    1
    11   142   145    1
    12   129   131   ar
    13   128   130   ar
    14   147   149   ar
    15   147   146   ar
    16   145   146    1
    17   131   130   ar
    18   149   151   ar
    19   132   133    1
    20   146   148   ar
    21   134   133    1
    22   134   135    2
    23   133   136    1
    24   151   150   ar
    25   117   116    2
    26   116   115    1
    27   148   150   ar
    28   136   137    1
    29   115   114    1
    30   115   118    1
    31   137   138    1
    32   114   111   am
    33    59    58    2
    34   118   119    1
    35   120   119    2
    36   112   111    2
    37   111   110    1
    38    99   100    1
    39    99    98    1
    40    99   102    1
    41   138   140   ar
    42   138   139   ar
    43   100   101    2
    44   119   121   am
    45   109   110    1
    46    58    60   am
    47    58    57    1
    48   103   102    1
    49   103   104    1
    50   110   113    1
    51    55    54    1
    52    55    56    2
    53    54    57    1
    54    54    53    1
    55   104   105    1
    56   105   106    2
    57   106   108    1
    58   106   107    1
    59   155   154    2
    60    69    68    1
    61    67    68    1
    62    67    66    1
    63    81    80    1
    64   154   153    1
    65    61    62    1
    66   159   157   ar
    67   156   157    1
    68   156   153    1
    69    79    80   ar
    70    79    77   ar
    71    64    63    2
    72    80    78   ar
    73    51    50    2
    74    44    45    1
    75    65    66    1
    76    65    62    1
    77   157   158   ar
    78   153   152    1
    79    62    63    1
    80    77    75   ar
    81    48    45    1
    82    48    49    1
    83    45    46    1
    84    50    49    1
    85    50    52   am
    86    78    76   ar
    87    33    31   ar
    88    33    34   ar
    89   160   161    1
    90   168   166   ar
    91    75    76   ar
    92    75    74    1
    93    31    30   ar
    94    36    34   ar
    95    36    38   ar
    96    46    47    2
    97    34    32   ar
    98    97    95    1
    99   161   164    1
   100   161   162    1
   101   166   165    1
   102   166   167   ar
   103   165   164    1
   104    74    71    1
   105    30    32   ar
   106    30    29    1
   107    38    37   ar
   108    70    71    1
   109    32    35   ar
   110   177   176    1
   111    95    94    1
   112   162   163    2
   113    71    72    1
   114    29    26    1
   115    93    92    2
   116    37    35   ar
   117    94    96    1
   118    94    91    1
   119    92    91    1
   120   175   176    1
   121   175   174    1
   122    73    72    2
   123    28    27    2
   124    26    27    1
   125    26    25    1
   126    91    90    1
   127    27    39   am
   128   174   173    1
   129    90    84   am
   130   189   188    1
   131    17    15   am
   132     9     8    1
   133    88    87   ar
   134    39    40    1
   135   173   170    1
   136    23    22    1
   137    40    41    1
   138    40    43    1
   139    15    16    2
   140    15    14    1
   141    84    85    2
   142    84    83    1
   143   188   187   ar
   144   188   186   ar
   145    82    83    1
   146    87    89   ar
   147    87    86    1
   148    41    42    2
   149     8     7    1
   150   187   185   ar
   151   170   169    1
   152   170   171    1
   153    83    86    1
   154    14    11    1
   155   186   184   ar
   156    22    24    1
   157    22    19    1
   158     7     6    1
   159    20    21    2
   160    20    19    1
   161   185   183   ar
   162    19    18    1
   163   171   172    2
   164   171   178   am
   165   184   183   ar
   166    11    10    1
   167    11    12    1
   168    13    12    2
   169   183   182    1
   170     6     5    1
   171   178   179    1
   172     5     2    1
   173   182   179    1
   174   179   180    1
   175     2     1    1
   176     2     3    1
   177   180   181    2
   178     3     4    2
