@<TRIPOS>MOLECULE
tmp/4cn2C00.pdb
 93 91 0 0 0
SMALL
GASTEIGER

@<TRIPOS>ATOM
      1  N         11.5140   42.5330   42.4950 N.3    34  THR34      -0.1203
      2  CA        12.4040   43.6880   42.4790 C.3    34  THR34       0.1994
      3  C         11.6150   45.0000   42.4720 C.2    34  THR34       0.2617
      4  O         11.9160   45.9100   43.2380 O.2    34  THR34      -0.2717
      5  CB        13.3500   43.6470   41.2680 C.3    34  THR34       0.1784
      6  OG1       14.1620   42.4690   41.3470 O.3    34  THR34      -0.2211
      7  CG2       14.2500   44.8640   41.2470 C.3    34  THR34       0.0376
      8  N         10.6070   45.0970   41.6120 N.am   35  VAL35      -0.1979
      9  CA         9.8380   46.3340   41.5010 C.3    35  VAL35       0.1595
     10  C          8.9780   46.5700   42.7460 C.2    35  VAL35       0.2287
     11  O          8.9520   47.6670   43.2850 O.2    35  VAL35      -0.2864
     12  CB         8.9800   46.3660   40.2170 C.3    35  VAL35       0.0276
     13  CG1        8.0360   47.5860   40.2110 C.3    35  VAL35       0.0022
     14  CG2        9.8870   46.3540   38.9770 C.3    35  VAL35       0.0022
     15  N         11.0500   47.4510   45.6330 N.3    38  ASP38      -0.1225
     16  CA        11.9460   48.5350   45.2590 C.3    38  ASP38       0.1805
     17  C         13.3820   48.2020   45.6550 C.2    38  ASP38       0.2598
     18  O         14.0580   49.0040   46.3020 O.2    38  ASP38      -0.2718
     19  CB        11.5130   49.8390   45.9350 C.3    38  ASP38       0.1424
     20  CG        11.8690   51.0670   45.1160 C.2    38  ASP38       0.3668
     21  OD1       11.8410   50.9740   43.8720 O.co2  38  ASP38      -0.2456
     22  OD2       12.1730   52.1250   45.7110 O.co2  38  ASP38      -0.2456
     23  N         13.8400   47.0150   45.2700 N.am   39  LEU39      -0.1966
     24  CA        15.1690   46.5590   45.6420 C.3    39  LEU39       0.1728
     25  C         16.2470   47.1680   44.7550 C.2    39  LEU39       0.2617
     26  O         16.0210   47.4310   43.5740 O.2    39  LEU39      -0.2715
     27  CB        15.2490   45.0310   45.5810 C.3    39  LEU39       0.0311
     28  CG        14.2650   44.2740   46.4800 C.3    39  LEU39       0.0022
     29  CD1       14.4460   42.7420   46.3810 C.3    39  LEU39       0.0001
     30  CD2       14.3980   44.7510   47.9330 C.3    39  LEU39       0.0001
     31  N         17.4160   47.3840   45.3490 N.am   40  THR40      -0.1937
     32  CA        18.6250   47.7920   44.6430 C.3    40  THR40       0.2028
     33  C         19.6550   46.6750   44.7550 C.2    40  THR40       0.2642
     34  O         19.8030   46.0650   45.8110 O.2    40  THR40      -0.2714
     35  CB        19.2330   49.0630   45.2770 C.3    40  THR40       0.1808
     36  OG1       18.3580   50.1680   45.0540 O.3    40  THR40      -0.2208
     37  CG2       20.5960   49.3720   44.6740 C.3    40  THR40       0.0379
     38  N         20.3710   46.4060   43.6700 N.am   41  TYR41      -0.1973
     39  CA        21.3310   45.3110   43.6520 C.3    41  TYR41       0.1639
     40  C         22.6950   45.8660   43.3150 C.2    41  TYR41       0.2290
     41  O         22.7970   47.0050   42.8610 O.2    41  TYR41      -0.2864
     42  CB        20.9450   44.2910   42.5740 C.3    41  TYR41       0.0560
     43  CG        19.5940   43.6550   42.7640 C.ar   41  TYR41      -0.0198
     44  CD1       19.2820   42.9620   43.9360 C.ar   41  TYR41      -0.0009
     45  CD2       18.6320   43.7220   41.7630 C.ar   41  TYR41      -0.0009
     46  CE1       18.0280   42.3610   44.1060 C.ar   41  TYR41       0.0417
     47  CE2       17.3870   43.1180   41.9130 C.ar   41  TYR41       0.0417
     48  CZ        17.0870   42.4390   43.0830 C.ar   41  TYR41       0.1957
     49  OH        15.8470   41.8480   43.2230 O.3    41  TYR41      -0.2866
     50  N         21.9480   42.1400   40.0260 N.3    61  TYR61      -0.1241
     51  CA        22.1230   43.3940   39.2980 C.3    61  TYR61       0.1605
     52  C         22.0600   43.1840   37.7900 C.2    61  TYR61       0.2264
     53  O         21.2910   43.8480   37.1050 O.2    61  TYR61      -0.2867
     54  CB        23.4430   44.0780   39.6760 C.3    61  TYR61       0.0534
     55  CG        23.6370   45.4070   38.9790 C.ar   61  TYR61      -0.0201
     56  CD1       24.2480   45.4770   37.7330 C.ar   61  TYR61      -0.0009
     57  CD2       23.1890   46.5900   39.5600 C.ar   61  TYR61      -0.0009
     58  CE1       24.4340   46.6960   37.0850 C.ar   61  TYR61       0.0417
     59  CE2       23.3480   47.8020   38.9180 C.ar   61  TYR61       0.0417
     60  CZ        23.9770   47.8470   37.6800 C.ar   61  TYR61       0.1957
     61  OH        24.1490   49.0530   37.0480 O.3    61  TYR61      -0.2866
     62  N         18.6770   42.0100   36.4060 N.3    64  TYR64      -0.1227
     63  CA        17.7230   43.1020   36.3610 C.3    64  TYR64       0.1736
     64  C         17.9830   44.0670   35.1880 C.2    64  TYR64       0.2595
     65  O         17.0390   44.5130   34.5400 O.2    64  TYR64      -0.2718
     66  CB        17.6660   43.8640   37.6820 C.3    64  TYR64       0.0548
     67  CG        16.5230   44.8630   37.6920 C.ar   64  TYR64      -0.0200
     68  CD1       15.2160   44.4470   37.9110 C.ar   64  TYR64      -0.0009
     69  CD2       16.7450   46.2090   37.4420 C.ar   64  TYR64      -0.0009
     70  CE1       14.1620   45.3530   37.9050 C.ar   64  TYR64       0.0417
     71  CE2       15.6940   47.1260   37.4370 C.ar   64  TYR64       0.0417
     72  CZ        14.4080   46.6880   37.6660 C.ar   64  TYR64       0.1957
     73  OH        13.3550   47.5850   37.6570 O.3    64  TYR64      -0.2866
     74  N         19.2450   44.3960   34.9250 N.am   65  GLN65      -0.1979
     75  CA        19.5540   45.2720   33.8050 C.3    65  GLN65       0.1601
     76  C         19.1020   44.5950   32.5190 C.2    65  GLN65       0.2287
     77  O         18.6380   45.2550   31.5950 O.2    65  GLN65      -0.2864
     78  CB        21.0540   45.5890   33.6960 C.3    65  GLN65       0.0394
     79  CG        21.6880   46.2530   34.9180 C.3    65  GLN65       0.0908
     80  CD        20.7970   47.3070   35.5470 C.2    65  GLN65       0.2608
     81  OE1       20.4100   48.2770   34.8970 O.2    65  GLN65      -0.2717
     82  NE2       20.4570   47.1120   36.8200 N.am   65  GLN65      -0.0878
     83  N          8.3730   48.4150   34.2870 N.3    74  ARG74      -0.1245
     84  CA         8.0300   48.4260   35.7060 C.3    74  ARG74       0.1563
     85  C          6.5790   48.8750   35.9260 C.2    74  ARG74       0.2260
     86  O          5.9060   48.3850   36.8230 O.2    74  ARG74      -0.2867
     87  CB         9.0030   49.2880   36.5270 C.3    74  ARG74       0.0307
     88  CG         9.0300   50.7470   36.1190 C.3    74  ARG74       0.0489
     89  CD         9.8600   51.5860   37.0900 C.3    74  ARG74       0.2205
     90  NE         9.1970   51.7680   38.3810 N.pl3  74  ARG74      -0.0865
     91  CZ         9.6950   51.3610   39.5450 C.cat  74  ARG74       0.5346
     92  NH1       10.8760   50.7480   39.5930 N.pl3  74  ARG74       0.1354
     93  NH2        9.0140   51.5760   40.6640 N.pl3  74  ARG74       0.1354
@<TRIPOS>BOND
     1    77    76    2
     2    76    75    1
     3    78    75    1
     4    78    79    1
     5    75    74    1
     6    83    84    1
     7    65    64    2
     8    81    80    2
     9    79    80    1
    10    74    64   am
    11    64    63    1
    12    80    82   am
    13    84    85    1
    14    84    87    1
    15    85    86    2
    16    88    87    1
    17    88    89    1
    18    63    62    1
    19    63    66    1
    20    61    60    1
    21    58    60   ar
    22    58    56   ar
    23    89    90    1
    24    53    52    2
    25    71    69   ar
    26    71    72   ar
    27    69    67   ar
    28    73    72    1
    29    72    70   ar
    30    60    59   ar
    31    66    67    1
    32    67    68   ar
    33    56    55   ar
    34    52    51    1
    35    70    68   ar
    36    90    91    2
    37    59    57   ar
    38    14    12    1
    39    55    57   ar
    40    55    54    1
    41    51    54    1
    42    51    50    1
    43    91    92    1
    44    91    93    1
    45    13    12    1
    46    12     9    1
    47     7     5    1
    48     5     6    1
    49     5     2    1
    50     9     8    1
    51     9    10    1
    52     8     3   am
    53    45    47   ar
    54    45    43   ar
    55    47    48   ar
    56     3     2    1
    57     3     4    2
    58     2     1    1
    59    42    43    1
    60    42    39    1
    61    10    11    2
    62    43    44   ar
    63    41    40    2
    64    48    49    1
    65    48    46   ar
    66    40    39    1
    67    26    25    2
    68    39    38    1
    69    38    33   am
    70    21    20   ar
    71    44    46   ar
    72    32    33    1
    73    32    35    1
    74    32    31    1
    75    37    35    1
    76    33    34    2
    77    25    31   am
    78    25    24    1
    79    36    35    1
    80    20    22   ar
    81    20    19    1
    82    16    15    1
    83    16    17    1
    84    16    19    1
    85    23    24    1
    86    23    17   am
    87    27    24    1
    88    27    28    1
    89    17    18    2
    90    29    28    1
    91    28    30    1
