@<TRIPOS>MOLECULE
tmp/4cn4B00.pdb
 154 146 0 0 0
SMALL
GASTEIGER

@<TRIPOS>ATOM
      1  N         28.3540  -34.3780  -46.4780 N.3   250  LYS250     -0.1245
      2  CA        27.4030  -35.4570  -46.2120 C.3   250  LYS250      0.1561
      3  C         26.1960  -35.3360  -47.1250 C.2   250  LYS250      0.2260
      4  O         25.8370  -34.2370  -47.5150 O.2   250  LYS250     -0.2867
      5  CB        26.9870  -35.4580  -44.7400 C.3   250  LYS250      0.0271
      6  CG        28.0520  -36.0790  -43.8300 C.3   250  LYS250      0.0035
      7  CD        27.5990  -36.0230  -42.3700 C.3   250  LYS250      0.0206
      8  CE        28.3710  -36.9740  -41.4680 C.3   250  LYS250      0.1093
      9  NZ        27.8860  -36.9110  -40.0590 N.3   250  LYS250     -0.1314
     10  N         22.1070  -38.2990  -43.5100 N.3   254  ASN254     -0.1240
     11  CA        23.4000  -38.4710  -42.8700 C.3   254  ASN254      0.1653
     12  C         24.2230  -39.5640  -43.5350 C.2   254  ASN254      0.2266
     13  O         24.7950  -40.4200  -42.8630 O.2   254  ASN254     -0.2867
     14  CB        23.1840  -38.7690  -41.3780 C.3   254  ASN254      0.1155
     15  CG        24.4220  -38.5410  -40.5570 C.2   254  ASN254      0.2627
     16  OD1       25.3040  -37.7530  -40.9230 O.2   254  ASN254     -0.2716
     17  ND2       24.5100  -39.2390  -39.4430 N.am  254  ASN254     -0.0877
     18  N         25.4890  -29.9900  -44.8660 N.3   265  VAL265     -0.1245
     19  CA        25.0960  -29.6260  -43.5210 C.3   265  VAL265      0.1561
     20  C         25.6060  -28.2340  -43.1680 C.2   265  VAL265      0.2260
     21  O         26.7880  -27.9840  -43.2240 O.2   265  VAL265     -0.2867
     22  CB        25.6270  -30.6410  -42.5030 C.3   265  VAL265      0.0252
     23  CG1       25.1140  -30.2930  -41.0970 C.3   265  VAL265      0.0019
     24  CG2       25.2130  -32.0460  -42.8840 C.3   265  VAL265      0.0019
     25  N         26.3750  -26.8230  -40.5250 N.3   267  TRP267     -0.1227
     26  CA        27.4280  -26.8530  -39.5070 C.3   267  TRP267      0.1737
     27  C         28.8220  -27.2040  -40.0530 C.2   267  TRP267      0.2595
     28  O         29.8320  -27.0390  -39.3400 O.2   267  TRP267     -0.2718
     29  CB        27.0400  -27.7660  -38.3370 C.3   267  TRP267      0.0564
     30  CG        25.9990  -27.1340  -37.5050 C.ar  267  TRP267      0.0003
     31  CD1       26.1940  -26.2890  -36.4480 C.ar  267  TRP267      0.0946
     32  CD2       24.5740  -27.2580  -37.6580 C.ar  267  TRP267      0.0152
     33  NE1       24.9790  -25.8870  -35.9300 N.ar  267  TRP267     -0.2442
     34  CE2       23.9740  -26.4600  -36.6550 C.ar  267  TRP267      0.0810
     35  CE3       23.7520  -27.9630  -38.5300 C.ar  267  TRP267      0.0012
     36  CZ2       22.6040  -26.3600  -36.5040 C.ar  267  TRP267      0.0191
     37  CZ3       22.3790  -27.8640  -38.3750 C.ar  267  TRP267      0.0001
     38  CH2       21.8170  -27.0630  -37.3690 C.ar  267  TRP267      0.0015
     39  N         28.8890  -27.6430  -41.3030 N.am  268  ALA268     -0.1980
     40  CA        30.1730  -27.9180  -41.9330 C.3   268  ALA268      0.1597
     41  C         30.7110  -26.6390  -42.5860 C.2   268  ALA268      0.2287
     42  O         30.7450  -26.4930  -43.8120 O.2   268  ALA268     -0.2864
     43  CB        30.0340  -29.0410  -42.9530 C.3   268  ALA268      0.0319
     44  N         34.1920  -24.7560  -35.3430 N.3   310  GLN310     -0.1245
     45  CA        34.6100  -25.9680  -36.0320 C.3   310  GLN310      0.1566
     46  C         34.6540  -25.6080  -37.5440 C.2   310  GLN310      0.2260
     47  O         34.1870  -24.5350  -37.9240 O.2   310  GLN310     -0.2867
     48  CB        33.6260  -27.1020  -35.7550 C.3   310  GLN310      0.0367
     49  CG        32.2460  -26.7890  -36.2760 C.3   310  GLN310      0.0905
     50  CD        31.1660  -27.6790  -35.7030 C.2   310  GLN310      0.2608
     51  OE1       31.2930  -28.2420  -34.6020 O.2   310  GLN310     -0.2717
     52  NE2       30.0880  -27.8230  -36.4570 N.am  310  GLN310     -0.0878
     53  N         29.2690  -39.5120  -35.2680 N.3   342  LYS342     -0.1231
     54  CA        30.4820  -39.1780  -36.0090 C.3   342  LYS342      0.1693
     55  C         30.1790  -37.9920  -36.9310 C.2   342  LYS342      0.2592
     56  O         29.0860  -37.8920  -37.4990 O.2   342  LYS342     -0.2718
     57  CB        30.9590  -40.3680  -36.8310 C.3   342  LYS342      0.0285
     58  CG        31.5980  -41.5110  -36.0470 C.3   342  LYS342      0.0035
     59  CD        32.2860  -42.4730  -37.0190 C.3   342  LYS342      0.0206
     60  CE        32.1410  -43.9420  -36.6510 C.3   342  LYS342      0.1093
     61  NZ        32.8970  -44.2730  -35.4110 N.3   342  LYS342     -0.1314
     62  N         31.1470  -37.0830  -37.0460 N.am  343  TYR343     -0.1976
     63  CA        31.0130  -35.8820  -37.8570 C.3   343  TYR343      0.1639
     64  C         32.1200  -35.8470  -38.9360 C.2   343  TYR343      0.2290
     65  O         33.0090  -34.9840  -38.9170 O.2   343  TYR343     -0.2864
     66  CB        31.0870  -34.6180  -36.9810 C.3   343  TYR343      0.0560
     67  CG        30.1280  -34.5190  -35.7890 C.ar  343  TYR343     -0.0198
     68  CD1       28.7920  -34.8910  -35.8910 C.ar  343  TYR343     -0.0009
     69  CD2       30.5660  -33.9930  -34.5680 C.ar  343  TYR343     -0.0009
     70  CE1       27.9260  -34.7720  -34.8060 C.ar  343  TYR343      0.0417
     71  CE2       29.7150  -33.8630  -33.4830 C.ar  343  TYR343      0.0417
     72  CZ        28.3910  -34.2530  -33.5960 C.ar  343  TYR343      0.1957
     73  OH        27.5470  -34.1030  -32.4980 O.3   343  TYR343     -0.2866
     74  N         32.3430  -34.7510  -41.7790 N.3   345  ASP345     -0.1225
     75  CA        32.4140  -33.5280  -42.5880 C.3   345  ASP345      0.1805
     76  C         33.0830  -32.3550  -41.8980 C.2   345  ASP345      0.2597
     77  O         33.2340  -31.2990  -42.5170 O.2   345  ASP345     -0.2718
     78  CB        31.0150  -33.0870  -43.0830 C.3   345  ASP345      0.1424
     79  CG        29.9410  -33.1170  -41.9930 C.2   345  ASP345      0.3668
     80  OD1       30.1890  -33.6610  -40.8930 O.co2 345  ASP345     -0.2456
     81  OD2       28.8110  -32.6630  -42.2900 O.co2 345  ASP345     -0.2456
     82  N         33.4720  -32.5060  -40.6320 N.am  346  ILE346     -0.1980
     83  CA        34.1560  -31.4080  -39.9610 C.3   346  ILE346      0.1595
     84  C         35.4050  -31.7770  -39.1770 C.2   346  ILE346      0.2287
     85  O         35.6040  -32.9290  -38.7880 O.2   346  ILE346     -0.2864
     86  CB        33.2270  -30.6190  -39.0320 C.3   346  ILE346      0.0276
     87  CG1       32.4580  -31.5510  -38.1090 C.3   346  ILE346      0.0022
     88  CG2       32.3030  -29.7570  -39.8640 C.3   346  ILE346      0.0022
     89  CD1       31.8560  -30.8400  -36.9050 C.3   346  ILE346      0.0001
     90  N         23.7210  -18.6200  -30.3750 N.3   378  ARG378     -0.1245
     91  CA        23.5000  -19.9710  -29.9080 C.3   378  ARG378      0.1563
     92  C         24.7930  -20.6950  -30.1570 C.2   378  ARG378      0.2260
     93  O         25.1360  -20.9110  -31.3050 O.2   378  ARG378     -0.2867
     94  CB        22.3680  -20.5880  -30.7160 C.3   378  ARG378      0.0307
     95  CG        21.9000  -21.9580  -30.2530 C.3   378  ARG378      0.0489
     96  CD        22.5960  -23.0330  -31.0310 C.3   378  ARG378      0.2205
     97  NE        22.0470  -24.3620  -30.8360 N.pl3 378  ARG378     -0.0865
     98  CZ        22.6670  -25.4520  -31.2870 C.cat 378  ARG378      0.5346
     99  NH1       23.8290  -25.3510  -31.9280 N.pl3 378  ARG378      0.1354
    100  NH2       22.1500  -26.6540  -31.0880 N.pl3 378  ARG378      0.1354
    101  N         27.1930  -23.6920  -30.4060 N.3   380  ASP380     -0.1225
    102  CA        27.0230  -25.1170  -30.6510 C.3   380  ASP380      0.1805
    103  C         28.0790  -25.8590  -29.8430 C.2   380  ASP380      0.2597
    104  O         29.2670  -25.5130  -29.8830 O.2   380  ASP380     -0.2718
    105  CB        27.2010  -25.3550  -32.1240 C.3   380  ASP380      0.1424
    106  CG        27.0450  -26.8310  -32.3940 C.2   380  ASP380      0.3668
    107  OD1       25.8390  -27.1750  -32.8490 O.co2 380  ASP380     -0.2456
    108  OD2       27.8930  -27.6490  -32.1170 O.co2 380  ASP380     -0.2456
    109  N         27.6320  -26.8670  -29.1090 N.am  381  ASN381     -0.1974
    110  CA        28.5030  -27.7600  -28.3360 C.3   381  ASN381      0.1688
    111  C         29.6750  -27.0730  -27.6400 C.2   381  ASN381      0.2292
    112  O         30.8420  -27.3960  -27.8760 O.2   381  ASN381     -0.2864
    113  CB        29.0210  -28.8730  -29.2510 C.3   381  ASN381      0.1181
    114  CG        27.9380  -29.8310  -29.6610 C.2   381  ASN381      0.2629
    115  OD1       26.8690  -29.8560  -29.0820 O.2   381  ASN381     -0.2716
    116  ND2       28.2000  -30.6030  -30.6860 N.am  381  ASN381     -0.0877
    117  N         18.1020  -32.2350  -33.8970 N.3   466  ASP466     -0.1239
    118  CA        18.7650  -33.4510  -33.4360 C.3   466  ASP466      0.1674
    119  C         17.9350  -34.3070  -32.4910 C.2   466  ASP466      0.2266
    120  O         18.3870  -35.3740  -32.1180 O.2   466  ASP466     -0.2867
    121  CB        20.0840  -33.0740  -32.7490 C.3   466  ASP466      0.1410
    122  CG        20.8990  -32.1130  -33.5880 C.2   466  ASP466      0.3668
    123  OD1       21.3940  -32.5600  -34.6600 O.co2 466  ASP466     -0.2456
    124  OD2       20.9580  -30.8960  -33.2360 O.co2 466  ASP466     -0.2456
    125  N         16.6740  -39.1030  -34.2840 N.3   514  GLU514     -0.1245
    126  CA        16.8290  -38.3670  -35.5380 C.3   514  GLU514      0.1567
    127  C         15.5160  -38.4260  -36.3330 C.2   514  GLU514      0.2260
    128  O         14.8280  -39.4390  -36.3280 O.2   514  GLU514     -0.2867
    129  CB        17.9590  -38.9830  -36.4030 C.3   514  GLU514      0.0388
    130  CG        19.3860  -38.8580  -35.8600 C.3   514  GLU514      0.1160
    131  CD        19.9320  -37.4520  -35.9920 C.2   514  GLU514      0.3649
    132  OE1       19.8730  -36.8460  -37.0990 O.co2 514  GLU514     -0.2457
    133  OE2       20.3990  -36.9070  -34.9650 O.co2 514  GLU514     -0.2457
    134  N         18.8230  -31.1480  -41.8490 N.3   520  LYS520     -0.1231
    135  CA        20.2310  -30.8400  -41.7350 C.3   520  LYS520      0.1693
    136  C         21.0040  -31.1940  -43.0100 C.2   520  LYS520      0.2592
    137  O         22.0260  -30.5620  -43.2990 O.2   520  LYS520     -0.2718
    138  CB        20.8360  -31.5910  -40.5510 C.3   520  LYS520      0.0285
    139  CG        20.2580  -31.1930  -39.1930 C.3   520  LYS520      0.0035
    140  CD        20.9000  -31.9430  -38.0320 C.3   520  LYS520      0.0206
    141  CE        20.5690  -33.4260  -38.0600 C.3   520  LYS520      0.1093
    142  NZ        21.0440  -34.1370  -36.8500 N.3   520  LYS520     -0.1314
    143  N         20.5090  -32.1900  -43.7550 N.am  521  TYR521     -0.1976
    144  CA        21.1700  -32.7330  -44.9430 C.3   521  TYR521      0.1639
    145  C         20.4240  -32.4650  -46.2500 C.2   521  TYR521      0.2290
    146  O         20.8910  -32.8610  -47.3230 O.2   521  TYR521     -0.2864
    147  CB        21.3190  -34.2620  -44.8060 C.3   521  TYR521      0.0560
    148  CG        21.7650  -34.6810  -43.4330 C.ar  521  TYR521     -0.0198
    149  CD1       23.1240  -34.6980  -43.1010 C.ar  521  TYR521     -0.0009
    150  CD2       20.8380  -35.0310  -42.4510 C.ar  521  TYR521     -0.0009
    151  CE1       23.5430  -35.0620  -41.8410 C.ar  521  TYR521      0.0417
    152  CE2       21.2490  -35.3820  -41.1620 C.ar  521  TYR521      0.0417
    153  CZ        22.6040  -35.4070  -40.8640 C.ar  521  TYR521      0.1957
    154  OH        23.0390  -35.7910  -39.6170 O.3   521  TYR521     -0.2866
@<TRIPOS>BOND
     1     4     3    2
     2   146   145    2
     3     3     2    1
     4     1     2    1
     5   145   144    1
     6     2     5    1
     7   144   147    1
     8   144   143    1
     9    18    19    1
    10   147   148    1
    11     5     6    1
    12     6     7    1
    13    42    41    2
    14   143   136   am
    15    12    11    1
    16    12    13    2
    17    19    20    1
    18    19    22    1
    19    10    11    1
    20   148   149   ar
    21   148   150   ar
    22   137   136    2
    23    21    20    2
    24   149   151   ar
    25    78    75    1
    26    78    79    1
    27   136   135    1
    28    43    40    1
    29    24    22    1
    30    11    14    1
    31    75    76    1
    32    75    74    1
    33    41    40    1
    34    77    76    2
    35    22    23    1
    36   150   152   ar
    37     7     8    1
    38    81    79   ar
    39    79    80   ar
    40    40    39    1
    41    76    82   am
    42   134   135    1
    43   151   153   ar
    44   135   138    1
    45     8     9    1
    46    14    15    1
    47    39    27   am
    48   152   153   ar
    49    16    15    2
    50   153   154    1
    51    82    83    1
    52    15    17   am
    53   138   139    1
    54    25    26    1
    55    27    26    1
    56    27    28    2
    57    83    84    1
    58    83    86    1
    59    88    86    1
    60    26    29    1
    61   139   140    1
    62    84    85    2
    63    86    87    1
    64    64    65    2
    65    64    63    1
    66    35    37   ar
    67    35    32   ar
    68    37    38   ar
    69    29    30    1
    70    87    89    1
    71   141   140    1
    72   141   142    1
    73    47    46    2
    74    63    62    1
    75    63    66    1
    76    32    30   ar
    77    32    34   ar
    78    46    45    1
    79    30    31   ar
    80    56    55    2
    81    38    36   ar
    82   132   131   ar
    83    62    55   am
    84    59    60    1
    85    59    58    1
    86    66    67    1
    87    55    54    1
    88    57    58    1
    89    57    54    1
    90    34    36   ar
    91    34    33   ar
    92    60    61    1
    93    52    50   am
    94    31    33   ar
    95   129   130    1
    96   129   126    1
    97   127   128    2
    98   127   126    1
    99    49    48    1
   100    49    50    1
   101    45    48    1
   102    45    44    1
   103    54    53    1
   104   131   130    1
   105   131   133   ar
   106    68    67   ar
   107    68    70   ar
   108    67    69   ar
   109    50    51    2
   110   126   125    1
   111    70    72   ar
   112   123   122   ar
   113    69    71   ar
   114   117   118    1
   115    72    71   ar
   116    72    73    1
   117   122   124   ar
   118   122   121    1
   119   118   121    1
   120   118   119    1
   121   107   106   ar
   122   119   120    2
   123   106   105    1
   124   106   108   ar
   125   105   102    1
   126    99    98    1
   127    93    92    2
   128    98   100    1
   129    98    97    2
   130    96    97    1
   131    96    95    1
   132    94    95    1
   133    94    91    1
   134   116   114   am
   135   102   101    1
   136   102   103    1
   137    90    91    1
   138    92    91    1
   139   104   103    2
   140   103   109   am
   141   114   113    1
   142   114   115    2
   143   113   110    1
   144   109   110    1
   145   110   111    1
   146   112   111    2
