@<TRIPOS>MOLECULE
tmp/4cnfA00.pdb
 99 95 0 0 0
SMALL
GASTEIGER

@<TRIPOS>ATOM
      1  N        -40.9970  -23.9420  142.8850 N.3    77  THR77      -0.1203
      2  CA       -41.8590  -25.0420  143.2500 C.3    77  THR77       0.1994
      3  C        -43.0150  -24.5530  144.1500 C.2    77  THR77       0.2619
      4  O        -42.8960  -23.5460  144.8560 O.2    77  THR77      -0.2717
      5  CB       -41.0720  -26.0810  143.9940 C.3    77  THR77       0.1784
      6  OG1      -40.3510  -25.3860  145.0850 O.3    77  THR77      -0.2211
      7  CG2      -40.1100  -26.8250  143.0610 C.3    77  THR77       0.0376
      8  N        -44.1420  -25.2380  144.0680 N.am   78  SER78      -0.1937
      9  CA       -45.3040  -24.9690  144.8890 C.3    78  SER78       0.2055
     10  C        -46.1260  -26.2200  145.0690 C.2    78  SER78       0.2644
     11  O        -46.2520  -26.9750  144.1660 O.2    78  SER78      -0.2714
     12  CB       -46.1680  -23.8740  144.2420 C.3    78  SER78       0.2130
     13  OG       -47.4040  -23.6560  144.9500 O.3    78  SER78      -0.2179
     14  N        -46.7670  -26.3450  146.2220 N.am   79  SER79      -0.1935
     15  CA       -47.7330  -27.3940  146.5100 C.3    79  SER79       0.2055
     16  C        -49.1480  -27.0810  146.0400 C.2    79  SER79       0.2642
     17  O        -50.0570  -27.8850  146.2460 O.2    79  SER79      -0.2714
     18  CB       -47.7820  -27.6450  148.0180 C.3    79  SER79       0.2130
     19  OG       -48.2160  -26.4960  148.7270 O.3    79  SER79      -0.2179
     20  N        -49.3590  -25.9020  145.4670 N.am   80  ILE80      -0.1977
     21  CA       -50.6680  -25.5210  144.9800 C.3    80  ILE80       0.1596
     22  C        -50.6710  -25.6850  143.4800 C.2    80  ILE80       0.2287
     23  O        -49.8620  -25.0650  142.7730 O.2    80  ILE80      -0.2864
     24  CB       -51.0080  -24.0610  145.3350 C.3    80  ILE80       0.0276
     25  CG1      -51.0900  -23.9070  146.8700 C.3    80  ILE80       0.0022
     26  CG2      -52.3450  -23.6830  144.7290 C.3    80  ILE80       0.0022
     27  CD1      -50.9420  -22.4760  147.3650 C.3    80  ILE80       0.0001
     28  N        -39.4190  -23.0870  148.7440 N.3   109  GLY109     -0.1210
     29  CA       -39.8550  -22.0810  149.7140 C.3   109  GLY109      0.1956
     30  C        -39.8990  -22.5530  151.1710 C.2   109  GLY109      0.2612
     31  O        -39.4830  -23.6280  151.5420 O.2   109  GLY109     -0.2717
     32  N        -40.4350  -21.6570  151.9600 N.am  110  ARG110     -0.1965
     33  CA       -40.4700  -21.7380  153.3930 C.3   110  ARG110      0.1729
     34  C        -41.4620  -22.7840  153.8240 C.2   110  ARG110      0.2616
     35  O        -42.5780  -22.9210  153.2670 O.2   110  ARG110     -0.2715
     36  CB       -40.8940  -20.3610  153.9170 C.3   110  ARG110      0.0348
     37  CG       -40.0650  -19.2270  153.4240 C.3   110  ARG110      0.0492
     38  CD       -40.7900  -17.8760  153.5790 C.3   110  ARG110      0.2205
     39  NE       -39.9840  -16.7660  153.0590 N.pl3 110  ARG110     -0.0865
     40  CZ       -39.9540  -16.3890  151.7850 C.cat 110  ARG110      0.5346
     41  NH1      -40.6250  -17.0680  150.8700 N.pl3 110  ARG110      0.1354
     42  NH2      -39.1870  -15.3650  151.4120 N.pl3 110  ARG110      0.1354
     43  N        -41.1120  -23.5230  154.8700 N.am  111  GLU111     -0.1963
     44  CA       -42.0680  -24.4920  155.3780 C.3   111  GLU111      0.1733
     45  C        -43.4110  -23.8500  155.7530 C.2   111  GLU111      0.2617
     46  O        -44.4710  -24.4220  155.4500 O.2   111  GLU111     -0.2715
     47  CB       -41.5000  -25.2520  156.6090 C.3   111  GLU111      0.0429
     48  CG       -40.2280  -26.0530  156.3200 C.3   111  GLU111      0.1163
     49  CD       -38.9380  -25.3110  156.6890 C.2   111  GLU111      0.3649
     50  OE1      -38.8120  -24.0850  156.3480 O.co2 111  GLU111     -0.2457
     51  OE2      -38.0550  -26.0120  157.3000 O.co2 111  GLU111     -0.2457
     52  N        -43.3760  -22.6680  156.3490 N.am  112  SER112     -0.1936
     53  CA       -44.6170  -22.0060  156.8390 C.3   112  SER112      0.2055
     54  C        -45.5550  -21.5760  155.7070 C.2   112  SER112      0.2643
     55  O        -46.7740  -21.8770  155.7390 O.2   112  SER112     -0.2714
     56  CB       -44.2590  -20.8290  157.7360 C.3   112  SER112      0.2130
     57  OG       -43.4680  -19.8760  157.0510 O.3   112  SER112     -0.2179
     58  N        -45.0020  -20.8780  154.7160 N.am  113  VAL113     -0.1963
     59  CA       -45.8200  -20.1350  153.7330 C.3   113  VAL113      0.1727
     60  C        -45.3720  -20.3360  152.2940 C.2   113  VAL113      0.2617
     61  O        -45.9370  -19.7590  151.4100 O.2   113  VAL113     -0.2715
     62  CB       -45.8530  -18.6240  154.0270 C.3   113  VAL113      0.0290
     63  CG1      -46.5270  -18.3900  155.3790 C.3   113  VAL113      0.0023
     64  CG2      -44.4740  -18.0080  154.0050 C.3   113  VAL113      0.0023
     65  N        -44.3400  -21.1240  152.0450 N.am  114  GLY114     -0.1940
     66  CA       -43.9390  -21.3260  150.6670 C.3   114  GLY114      0.2014
     67  C        -43.1270  -20.1590  150.0980 C.2   114  GLY114      0.2638
     68  O        -42.4730  -19.4380  150.8300 O.2   114  GLY114     -0.2714
     69  N        -43.1180  -20.0320  148.7880 N.am  115  LEU115     -0.1977
     70  CA       -42.6200  -18.8800  148.0970 C.3   115  LEU115      0.1596
     71  C        -43.6610  -17.7870  147.9690 C.2   115  LEU115      0.2287
     72  O        -44.8740  -18.0540  147.8880 O.2   115  LEU115     -0.2864
     73  CB       -42.1370  -19.2970  146.7030 C.3   115  LEU115      0.0297
     74  CG       -40.9760  -20.2810  146.6650 C.3   115  LEU115      0.0022
     75  CD1      -40.7830  -20.8000  145.2610 C.3   115  LEU115      0.0001
     76  CD2      -39.7280  -19.6410  147.1500 C.3   115  LEU115      0.0001
     77  N        -42.2200  -16.1540  142.8770 N.3   120  ILE120     -0.1245
     78  CA       -42.7070  -16.9460  141.7080 C.3   120  ILE120      0.1561
     79  C        -42.7050  -16.1170  140.4290 C.2   120  ILE120      0.2260
     80  O        -42.2790  -16.6080  139.3790 O.2   120  ILE120     -0.2867
     81  CB       -44.0610  -17.5550  141.9990 C.3   120  ILE120      0.0252
     82  CG1      -43.8920  -18.5830  143.1270 C.3   120  ILE120      0.0019
     83  CG2      -44.6390  -18.2090  140.7590 C.3   120  ILE120      0.0019
     84  CD1      -45.1850  -19.1000  143.6610 C.3   120  ILE120      0.0001
     85  N        -49.3500  -31.4050  149.9850 N.3   137  VAL137     -0.1231
     86  CA       -48.3090  -30.6020  150.5510 C.3   137  VAL137      0.1692
     87  C        -47.2620  -31.4790  151.1920 C.2   137  VAL137      0.2591
     88  O        -47.5080  -32.1160  152.2500 O.2   137  VAL137     -0.2718
     89  CB       -48.8570  -29.6330  151.6010 C.3   137  VAL137      0.0266
     90  CG1      -47.7960  -28.6620  151.9890 C.3   137  VAL137      0.0020
     91  CG2      -50.0970  -28.8960  151.1030 C.3   137  VAL137      0.0020
     92  N        -46.0960  -31.5190  150.5630 N.am  138  LEU138     -0.1980
     93  CA       -44.9860  -32.3010  151.0620 C.3   138  LEU138      0.1596
     94  C        -44.1030  -31.4860  151.9980 C.2   138  LEU138      0.2287
     95  O        -43.9610  -30.2610  151.8520 O.2   138  LEU138     -0.2864
     96  CB       -44.1010  -32.7340  149.8770 C.3   138  LEU138      0.0297
     97  CG       -44.7570  -33.4860  148.7250 C.3   138  LEU138      0.0022
     98  CD1      -43.8620  -33.5790  147.5380 C.3   138  LEU138      0.0001
     99  CD2      -45.1480  -34.8730  149.1910 C.3   138  LEU138      0.0001
@<TRIPOS>BOND
     1    80    79    2
     2    79    78    1
     3    83    81    1
     4    78    81    1
     5    78    77    1
     6    81    82    1
     7    23    22    2
     8     1     2    1
     9     7     5    1
    10    82    84    1
    11     2     5    1
    12     2     3    1
    13    22    21    1
    14     5     6    1
    15     8     3   am
    16     8     9    1
    17     3     4    2
    18    11    10    2
    19    12     9    1
    20    12    13    1
    21    26    24    1
    22     9    10    1
    23    21    24    1
    24    21    20    1
    25    10    14   am
    26    75    74    1
    27    24    25    1
    28    20    16   am
    29    16    17    2
    30    16    15    1
    31    14    15    1
    32    15    18    1
    33    74    73    1
    34    74    76    1
    35    73    70    1
    36    25    27    1
    37    98    97    1
    38    72    71    2
    39    71    70    1
    40    18    19    1
    41    70    69    1
    42    97    99    1
    43    97    96    1
    44    28    29    1
    45    69    67   am
    46    29    30    1
    47    96    93    1
    48    85    86    1
    49    67    66    1
    50    67    68    2
    51    86    87    1
    52    86    89    1
    53    92    93    1
    54    92    87   am
    55    66    65    1
    56    41    40    1
    57    93    94    1
    58    91    89    1
    59    30    31    2
    60    30    32   am
    61    87    88    2
    62    61    60    2
    63    42    40    1
    64    89    90    1
    65    40    39    2
    66    95    94    2
    67    32    33    1
    68    65    60   am
    69    60    59    1
    70    39    38    1
    71    35    34    2
    72    33    34    1
    73    33    36    1
    74    37    38    1
    75    37    36    1
    76    59    62    1
    77    59    58    1
    78    34    43   am
    79    64    62    1
    80    62    63    1
    81    58    54   am
    82    43    44    1
    83    44    45    1
    84    44    47    1
    85    46    45    2
    86    54    55    2
    87    54    53    1
    88    45    52   am
    89    48    47    1
    90    48    49    1
    91    50    49   ar
    92    52    53    1
    93    49    51   ar
    94    53    56    1
    95    57    56    1
