@<TRIPOS>MOLECULE
tmp/4cnfA01.pdb
 141 137 0 0 0
SMALL
GASTEIGER

@<TRIPOS>ATOM
      1  N        -40.9970  -23.9420  142.8850 N.3    77  THR77      -0.1203
      2  CA       -41.8590  -25.0420  143.2500 C.3    77  THR77       0.1994
      3  C        -43.0150  -24.5530  144.1500 C.2    77  THR77       0.2619
      4  O        -42.8960  -23.5460  144.8560 O.2    77  THR77      -0.2717
      5  CB       -41.0720  -26.0810  143.9940 C.3    77  THR77       0.1784
      6  OG1      -40.3510  -25.3860  145.0850 O.3    77  THR77      -0.2211
      7  CG2      -40.1100  -26.8250  143.0610 C.3    77  THR77       0.0376
      8  N        -44.1420  -25.2380  144.0680 N.am   78  SER78      -0.1937
      9  CA       -45.3040  -24.9690  144.8890 C.3    78  SER78       0.2055
     10  C        -46.1260  -26.2200  145.0690 C.2    78  SER78       0.2643
     11  O        -46.2520  -26.9750  144.1660 O.2    78  SER78      -0.2714
     12  CB       -46.1680  -23.8740  144.2420 C.3    78  SER78       0.2130
     13  OG       -47.4040  -23.6560  144.9500 O.3    78  SER78      -0.2179
     14  N        -46.7670  -26.3450  146.2220 N.am   79  SER79      -0.1949
     15  CA       -47.7330  -27.3940  146.5100 C.3    79  SER79       0.1924
     16  C        -49.1480  -27.0810  146.0400 C.2    79  SER79       0.2314
     17  O        -50.0570  -27.8850  146.2460 O.2    79  SER79      -0.2863
     18  CB       -47.7820  -27.6450  148.0180 C.3    79  SER79       0.2116
     19  OG       -48.2160  -26.4960  148.7270 O.3    79  SER79      -0.2180
     20  N        -36.9480  -23.5930  146.2590 N.3   108  PHE108     -0.1227
     21  CA       -37.9180  -24.0990  147.1980 C.3   108  PHE108      0.1736
     22  C        -38.1740  -23.0970  148.2880 C.2   108  PHE108      0.2596
     23  O        -37.2640  -22.3760  148.6960 O.2   108  PHE108     -0.2718
     24  CB       -37.4780  -25.4340  147.8130 C.3   108  PHE108      0.0547
     25  CG       -37.2890  -26.5170  146.8140 C.ar  108  PHE108     -0.0202
     26  CD1      -36.1400  -26.5920  146.0320 C.ar  108  PHE108     -0.0042
     27  CD2      -38.2520  -27.5420  146.6940 C.ar  108  PHE108     -0.0042
     28  CE1      -35.9990  -27.6370  145.0800 C.ar  108  PHE108     -0.0003
     29  CE2      -38.0900  -28.5590  145.7780 C.ar  108  PHE108     -0.0003
     30  CZ       -36.9810  -28.5780  144.9700 C.ar  108  PHE108     -0.0000
     31  N        -39.4190  -23.0870  148.7440 N.am  109  GLY109     -0.1942
     32  CA       -39.8550  -22.0810  149.7140 C.3   109  GLY109      0.2014
     33  C        -39.8990  -22.5530  151.1710 C.2   109  GLY109      0.2639
     34  O        -39.4830  -23.6280  151.5420 O.2   109  GLY109     -0.2714
     35  N        -40.4350  -21.6570  151.9600 N.am  110  ARG110     -0.1963
     36  CA       -40.4700  -21.7380  153.3930 C.3   110  ARG110      0.1729
     37  C        -41.4620  -22.7840  153.8240 C.2   110  ARG110      0.2616
     38  O        -42.5780  -22.9210  153.2670 O.2   110  ARG110     -0.2715
     39  CB       -40.8940  -20.3610  153.9170 C.3   110  ARG110      0.0348
     40  CG       -40.0650  -19.2270  153.4240 C.3   110  ARG110      0.0492
     41  CD       -40.7900  -17.8760  153.5790 C.3   110  ARG110      0.2205
     42  NE       -39.9840  -16.7660  153.0590 N.pl3 110  ARG110     -0.0865
     43  CZ       -39.9540  -16.3890  151.7850 C.cat 110  ARG110      0.5346
     44  NH1      -40.6250  -17.0680  150.8700 N.pl3 110  ARG110      0.1354
     45  NH2      -39.1870  -15.3650  151.4120 N.pl3 110  ARG110      0.1354
     46  N        -41.1120  -23.5230  154.8700 N.am  111  GLU111     -0.1977
     47  CA       -42.0680  -24.4920  155.3780 C.3   111  GLU111      0.1602
     48  C        -43.4110  -23.8500  155.7530 C.2   111  GLU111      0.2287
     49  O        -44.4710  -24.4220  155.4500 O.2   111  GLU111     -0.2864
     50  CB       -41.5000  -25.2520  156.6090 C.3   111  GLU111      0.0415
     51  CG       -40.2280  -26.0530  156.3200 C.3   111  GLU111      0.1163
     52  CD       -38.9380  -25.3110  156.6890 C.2   111  GLU111      0.3649
     53  OE1      -38.8120  -24.0850  156.3480 O.co2 111  GLU111     -0.2457
     54  OE2      -38.0550  -26.0120  157.3000 O.co2 111  GLU111     -0.2457
     55  N        -44.3400  -21.1240  152.0450 N.3   114  GLY114     -0.1210
     56  CA       -43.9390  -21.3260  150.6670 C.3   114  GLY114      0.1956
     57  C        -43.1270  -20.1590  150.0980 C.2   114  GLY114      0.2611
     58  O        -42.4730  -19.4380  150.8300 O.2   114  GLY114     -0.2717
     59  N        -43.1180  -20.0320  148.7880 N.am  115  LEU115     -0.1979
     60  CA       -42.6200  -18.8800  148.0970 C.3   115  LEU115      0.1596
     61  C        -43.6610  -17.7870  147.9690 C.2   115  LEU115      0.2287
     62  O        -44.8740  -18.0540  147.8880 O.2   115  LEU115     -0.2864
     63  CB       -42.1370  -19.2970  146.7030 C.3   115  LEU115      0.0297
     64  CG       -40.9760  -20.2810  146.6650 C.3   115  LEU115      0.0022
     65  CD1      -40.7830  -20.8000  145.2610 C.3   115  LEU115      0.0001
     66  CD2      -39.7280  -19.6410  147.1500 C.3   115  LEU115      0.0001
     67  N        -43.0240  -25.5020  139.2380 N.3   127  LEU127     -0.1231
     68  CA       -43.1640  -26.9410  139.3030 C.3   127  LEU127      0.1693
     69  C        -44.0740  -27.3970  140.4480 C.2   127  LEU127      0.2592
     70  O        -43.8440  -27.0140  141.6070 O.2   127  LEU127     -0.2718
     71  CB       -41.7880  -27.5800  139.4200 C.3   127  LEU127      0.0284
     72  CG       -41.6790  -29.0700  139.6180 C.3   127  LEU127      0.0019
     73  CD1      -42.1880  -29.8010  138.3870 C.3   127  LEU127      0.0001
     74  CD2      -40.2260  -29.4070  140.0210 C.3   127  LEU127      0.0001
     75  N        -45.0560  -28.2330  140.1240 N.am  128  PHE128     -0.1962
     76  CA       -45.8940  -28.9650  141.1040 C.3   128  PHE128      0.1771
     77  C        -45.5600  -30.4350  141.0370 C.2   128  PHE128      0.2619
     78  O        -45.5250  -31.0010  139.9600 O.2   128  PHE128     -0.2715
     79  CB       -47.3660  -28.8120  140.7570 C.3   128  PHE128      0.0574
     80  CG       -48.3090  -29.5950  141.6600 C.ar  128  PHE128     -0.0200
     81  CD1      -48.5570  -29.1970  142.9860 C.ar  128  PHE128     -0.0042
     82  CD2      -48.9900  -30.7130  141.1570 C.ar  128  PHE128     -0.0042
     83  CE1      -49.4540  -29.9320  143.7930 C.ar  128  PHE128     -0.0003
     84  CE2      -49.8740  -31.4310  141.9450 C.ar  128  PHE128     -0.0003
     85  CZ       -50.1120  -31.0480  143.2570 C.ar  128  PHE128     -0.0000
     86  N        -45.3460  -31.0490  142.1950 N.am  129  ILE129     -0.1977
     87  CA       -45.1110  -32.4790  142.3080 C.3   129  ILE129      0.1596
     88  C        -46.4680  -33.1320  142.5060 C.2   129  ILE129      0.2287
     89  O        -47.1310  -32.8970  143.5340 O.2   129  ILE129     -0.2864
     90  CB       -44.2280  -32.8120  143.4910 C.3   129  ILE129      0.0276
     91  CG1      -42.8620  -32.1730  143.3200 C.3   129  ILE129      0.0022
     92  CG2      -44.1890  -34.3440  143.7000 C.3   129  ILE129      0.0022
     93  CD1      -42.0600  -32.1040  144.6210 C.3   129  ILE129      0.0001
     94  N        -49.2840  -35.3800  143.7120 N.3   131  ALA131     -0.1245
     95  CA       -49.5170  -36.0720  144.9440 C.3   131  ALA131      0.1562
     96  C        -51.0190  -36.1190  145.2120 C.2   131  ALA131      0.2260
     97  O        -51.8130  -35.5650  144.4550 O.2   131  ALA131     -0.2867
     98  CB       -48.7550  -35.3930  146.0990 C.3   131  ALA131      0.0290
     99  N        -51.6500  -32.5790  149.0630 N.3   136  PRO136     -0.2102
    100  CA       -50.4630  -32.6570  148.2150 C.3   136  PRO136      0.1504
    101  C        -49.2270  -31.9650  148.7810 C.2   136  PRO136      0.2576
    102  O        -48.2250  -31.9260  148.1140 O.2   136  PRO136     -0.2718
    103  CB       -50.8970  -31.9140  146.9500 C.3   136  PRO136      0.0282
    104  CG       -51.8490  -30.8690  147.4720 C.3   136  PRO136      0.0208
    105  CD       -52.5450  -31.4670  148.6550 C.3   136  PRO136      0.0893
    106  N        -49.3500  -31.4050  149.9850 N.am  137  VAL137     -0.1966
    107  CA       -48.3090  -30.6020  150.5510 C.3   137  VAL137      0.1727
    108  C        -47.2620  -31.4790  151.1920 C.2   137  VAL137      0.2616
    109  O        -47.5080  -32.1160  152.2500 O.2   137  VAL137     -0.2715
    110  CB       -48.8570  -29.6330  151.6010 C.3   137  VAL137      0.0290
    111  CG1      -47.7960  -28.6620  151.9890 C.3   137  VAL137      0.0023
    112  CG2      -50.0970  -28.8960  151.1030 C.3   137  VAL137      0.0023
    113  N        -46.0960  -31.5190  150.5630 N.am  138  LEU138     -0.1963
    114  CA       -44.9860  -32.3010  151.0620 C.3   138  LEU138      0.1728
    115  C        -44.1030  -31.4860  151.9980 C.2   138  LEU138      0.2616
    116  O        -43.9610  -30.2610  151.8520 O.2   138  LEU138     -0.2715
    117  CB       -44.1010  -32.7340  149.8770 C.3   138  LEU138      0.0311
    118  CG       -44.7570  -33.4860  148.7250 C.3   138  LEU138      0.0022
    119  CD1      -43.8620  -33.5790  147.5380 C.3   138  LEU138      0.0001
    120  CD2      -45.1480  -34.8730  149.1910 C.3   138  LEU138      0.0001
    121  N        -43.5310  -32.1610  152.9700 N.am  139  ASN139     -0.1958
    122  CA       -42.4980  -31.5200  153.7640 C.3   139  ASN139      0.1819
    123  C        -41.3740  -31.0510  152.7940 C.2   139  ASN139      0.2621
    124  O        -40.9750  -31.7840  151.8890 O.2   139  ASN139     -0.2715
    125  CB       -41.9670  -32.4620  154.8510 C.3   139  ASN139      0.1195
    126  CG       -40.8200  -31.8730  155.5860 C.2   139  ASN139      0.2630
    127  OD1      -40.9550  -30.8090  156.3300 O.2   139  ASN139     -0.2716
    128  ND2      -39.6940  -32.3120  155.1860 N.am  139  ASN139     -0.0877
    129  N        -40.8220  -29.8830  153.0900 N.am  140  LEU140     -0.1977
    130  CA       -39.8080  -29.2270  152.2620 C.3   140  LEU140      0.1596
    131  C        -38.6850  -30.1840  151.8070 C.2   140  LEU140      0.2287
    132  O        -38.3890  -30.2700  150.6240 O.2   140  LEU140     -0.2864
    133  CB       -39.1980  -28.0360  153.0120 C.3   140  LEU140      0.0297
    134  CG       -37.9330  -27.3950  152.4480 C.3   140  LEU140      0.0022
    135  CD1      -38.1440  -26.8120  151.0940 C.3   140  LEU140      0.0001
    136  CD2      -37.4390  -26.3360  153.4080 C.3   140  LEU140      0.0001
    137  N        -39.8640  -32.8970  149.3140 N.3   143  ALA143     -0.1245
    138  CA       -40.0340  -32.2770  148.0170 C.3   143  ALA143      0.1562
    139  C        -38.6920  -32.1170  147.3090 C.2   143  ALA143      0.2260
    140  O        -38.5680  -32.4720  146.1070 O.2   143  ALA143     -0.2867
    141  CB       -40.7380  -30.9330  148.1340 C.3   143  ALA143      0.0290
@<TRIPOS>BOND
     1    73    72    1
     2    67    68    1
     3    68    71    1
     4    68    69    1
     5    71    72    1
     6    72    74    1
     7    78    77    2
     8    75    69   am
     9    75    76    1
    10    69    70    2
    11    79    76    1
    12    79    80    1
    13    77    76    1
    14    77    86   am
    15    82    80   ar
    16    82    84   ar
    17    80    81   ar
    18    84    85   ar
    19    86    87    1
    20    87    88    1
    21    87    90    1
    22    88    89    2
    23     1     2    1
    24    81    83   ar
    25     7     5    1
    26     2     5    1
    27     2     3    1
    28    85    83   ar
    29    91    90    1
    30    91    93    1
    31    90    92    1
    32    94    95    1
    33     5     6    1
    34     8     3   am
    35     8     9    1
    36     3     4    2
    37    11    10    2
    38    12     9    1
    39    12    13    1
    40    97    96    2
    41     9    10    1
    42    95    96    1
    43    95    98    1
    44    30    28   ar
    45    30    29   ar
    46    10    14   am
    47    28    26   ar
    48    65    64    1
    49    29    27   ar
    50    26    25   ar
    51    16    17    2
    52    16    15    1
    53   140   139    2
    54    14    15    1
    55    20    21    1
    56    15    18    1
    57    64    63    1
    58    64    66    1
    59    27    25   ar
    60    63    60    1
    61    25    24    1
    62   103   104    1
    63   103   100    1
    64    21    24    1
    65    21    22    1
    66   139   138    1
    67   104   105    1
    68   119   118    1
    69    62    61    2
    70    61    60    1
    71   138   141    1
    72   138   137    1
    73    18    19    1
    74    60    59    1
    75   102   101    2
    76   100   101    1
    77   100    99    1
    78    22    23    2
    79    22    31   am
    80   105    99    1
    81   118   120    1
    82   118   117    1
    83    31    32    1
    84   101   106   am
    85    59    57   am
    86    32    33    1
    87   117   114    1
    88   106   107    1
    89    57    56    1
    90    57    58    2
    91   107   108    1
    92   107   110    1
    93   113   114    1
    94   113   108   am
    95   132   131    2
    96    56    55    1
    97    44    43    1
    98   114   115    1
    99   135   134    1
   100   112   110    1
   101    33    34    2
   102    33    35   am
   103   108   109    2
   104    45    43    1
   105   110   111    1
   106    43    42    2
   107   131   130    1
   108   116   115    2
   109   124   123    2
   110    35    36    1
   111   115   121   am
   112   130   133    1
   113   130   129    1
   114   134   133    1
   115   134   136    1
   116   123   129   am
   117   123   122    1
   118   121   122    1
   119    42    41    1
   120    38    37    2
   121    36    37    1
   122    36    39    1
   123    40    41    1
   124    40    39    1
   125   122   125    1
   126    37    46   am
   127   125   126    1
   128    46    47    1
   129   128   126   am
   130    47    48    1
   131    47    50    1
   132    49    48    2
   133   126   127    2
   134    51    50    1
   135    51    52    1
   136    53    52   ar
   137    52    54   ar
