@<TRIPOS>MOLECULE
tmp/4cngA00.pdb
 154 151 0 0 0
SMALL
GASTEIGER

@<TRIPOS>ATOM
      1  N        -41.8150  -24.1650  143.2980 N.3    77  THR77      -0.1203
      2  CA       -42.6400  -25.3480  143.6500 C.3    77  THR77       0.1994
      3  C        -43.7890  -24.8720  144.5150 C.2    77  THR77       0.2619
      4  O        -43.6720  -23.9280  145.3030 O.2    77  THR77      -0.2717
      5  CB       -41.7730  -26.3880  144.4000 C.3    77  THR77       0.1784
      6  OG1      -41.1230  -25.7520  145.5050 O.3    77  THR77      -0.2211
      7  CG2      -40.7610  -27.0080  143.4820 C.3    77  THR77       0.0376
      8  N        -44.9180  -25.5770  144.3930 N.am   78  SER78      -0.1937
      9  CA       -46.0810  -25.3320  145.2460 C.3    78  SER78       0.2055
     10  C        -46.9310  -26.6000  145.2970 C.2    78  SER78       0.2643
     11  O        -47.1140  -27.2740  144.2740 O.2    78  SER78      -0.2714
     12  CB       -46.9300  -24.1700  144.7120 C.3    78  SER78       0.2130
     13  OG       -48.1890  -24.0780  145.3940 O.3    78  SER78      -0.2179
     14  N        -47.5620  -26.8110  146.4360 N.am   79  SER79      -0.1949
     15  CA       -48.5440  -27.8430  146.6390 C.3    79  SER79       0.1924
     16  C        -49.9310  -27.5500  146.1070 C.2    79  SER79       0.2314
     17  O        -50.8120  -28.4040  146.2570 O.2    79  SER79      -0.2863
     18  CB       -48.6560  -28.1710  148.1300 C.3    79  SER79       0.2116
     19  OG       -49.1230  -27.0610  148.8680 O.3    79  SER79      -0.2180
     20  N        -37.7890  -23.9120  146.7320 N.3   110  PHE110     -0.1227
     21  CA       -38.7480  -24.4600  147.6780 C.3   110  PHE110      0.1736
     22  C        -39.0020  -23.4440  148.7610 C.2   110  PHE110      0.2596
     23  O        -38.1060  -22.6990  149.1650 O.2   110  PHE110     -0.2718
     24  CB       -38.1820  -25.7720  148.2870 C.3   110  PHE110      0.0547
     25  CG       -37.9960  -26.8840  147.2900 C.ar  110  PHE110     -0.0202
     26  CD1      -36.9080  -26.9350  146.4770 C.ar  110  PHE110     -0.0042
     27  CD2      -38.9440  -27.8790  147.1830 C.ar  110  PHE110     -0.0042
     28  CE1      -36.7730  -27.9310  145.5250 C.ar  110  PHE110     -0.0003
     29  CE2      -38.7890  -28.9130  146.2650 C.ar  110  PHE110     -0.0003
     30  CZ       -37.7100  -28.9330  145.4340 C.ar  110  PHE110     -0.0000
     31  N        -40.2340  -23.4280  149.2180 N.am  111  GLY111     -0.1942
     32  CA       -40.6910  -22.4610  150.1920 C.3   111  GLY111      0.2014
     33  C        -40.7430  -22.9290  151.6280 C.2   111  GLY111      0.2639
     34  O        -40.2240  -23.9680  152.0280 O.2   111  GLY111     -0.2714
     35  N        -41.3130  -22.0350  152.4310 N.am  112  ARG112     -0.1963
     36  CA       -41.3440  -22.1390  153.8880 C.3   112  ARG112      0.1729
     37  C        -42.3330  -23.1920  154.3410 C.2   112  ARG112      0.2616
     38  O        -43.4080  -23.3180  153.7650 O.2   112  ARG112     -0.2715
     39  CB       -41.7770  -20.7570  154.4160 C.3   112  ARG112      0.0348
     40  CG       -40.8770  -19.5990  153.9970 C.3   112  ARG112      0.0492
     41  CD       -41.6050  -18.2730  154.1050 C.3   112  ARG112      0.2205
     42  NE       -40.8130  -17.1570  153.5950 N.pl3 112  ARG112     -0.0865
     43  CZ       -40.7840  -16.7530  152.3380 C.cat 112  ARG112      0.5346
     44  NH1      -41.4250  -17.3950  151.3870 N.pl3 112  ARG112      0.1354
     45  NH2      -40.0620  -15.7060  152.0070 N.pl3 112  ARG112      0.1354
     46  N        -42.0010  -23.9010  155.4110 N.am  113  GLU113     -0.1963
     47  CA       -42.9150  -24.8860  155.9190 C.3   113  GLU113      0.1733
     48  C        -44.2530  -24.2360  156.2590 C.2   113  GLU113      0.2617
     49  O        -45.3000  -24.8000  155.9930 O.2   113  GLU113     -0.2715
     50  CB       -42.3320  -25.5920  157.1420 C.3   113  GLU113      0.0429
     51  CG       -41.0390  -26.3480  156.8920 C.3   113  GLU113      0.1163
     52  CD       -39.7450  -25.6140  157.2750 C.2   113  GLU113      0.3649
     53  OE1      -39.6290  -24.3760  156.9070 O.co2 113  GLU113     -0.2457
     54  OE2      -38.8230  -26.3030  157.8670 O.co2 113  GLU113     -0.2457
     55  N        -44.2220  -23.0480  156.8580 N.am  114  SER114     -0.1936
     56  CA       -45.4280  -22.3900  157.3210 C.3   114  SER114      0.2055
     57  C        -46.3180  -21.9070  156.1770 C.2   114  SER114      0.2643
     58  O        -47.5170  -22.1870  156.1370 O.2   114  SER114     -0.2714
     59  CB       -45.0620  -21.2150  158.2320 C.3   114  SER114      0.2130
     60  OG       -44.2130  -20.2830  157.5670 O.3   114  SER114     -0.2179
     61  N        -45.7350  -21.1540  155.2520 N.am  115  VAL115     -0.1963
     62  CA       -46.5280  -20.3890  154.2840 C.3   115  VAL115      0.1727
     63  C        -46.0370  -20.5350  152.8430 C.2   115  VAL115      0.2617
     64  O        -46.4990  -19.8160  151.9640 O.2   115  VAL115     -0.2715
     65  CB       -46.6110  -18.8930  154.6560 C.3   115  VAL115      0.0290
     66  CG1      -47.3380  -18.6970  155.9780 C.3   115  VAL115      0.0023
     67  CG2      -45.2300  -18.2620  154.6900 C.3   115  VAL115      0.0023
     68  N        -45.1040  -21.4370  152.5730 N.am  116  GLY116     -0.1940
     69  CA       -44.6620  -21.6680  151.2060 C.3   116  GLY116      0.2014
     70  C        -43.9050  -20.4840  150.6350 C.2   116  GLY116      0.2638
     71  O        -43.0890  -19.8660  151.3070 O.2   116  GLY116     -0.2714
     72  N        -44.1220  -20.2220  149.3570 N.am  117  LEU117     -0.1977
     73  CA       -43.5050  -19.1390  148.6050 C.3   117  LEU117      0.1596
     74  C        -44.5380  -18.0280  148.4800 C.2   117  LEU117      0.2287
     75  O        -45.7310  -18.2830  148.3930 O.2   117  LEU117     -0.2864
     76  CB       -43.0510  -19.5960  147.2300 C.3   117  LEU117      0.0297
     77  CG       -41.8730  -20.5550  147.1740 C.3   117  LEU117      0.0022
     78  CD1      -41.6820  -21.0580  145.7660 C.3   117  LEU117      0.0001
     79  CD2      -40.6010  -19.9370  147.7100 C.3   117  LEU117      0.0001
     80  N        -43.7840  -25.8050  139.6850 N.3   129  LEU129     -0.1231
     81  CA       -43.8560  -27.2690  139.6870 C.3   129  LEU129      0.1693
     82  C        -44.7060  -27.7630  140.8370 C.2   129  LEU129      0.2592
     83  O        -44.4830  -27.4080  141.9800 O.2   129  LEU129     -0.2718
     84  CB       -42.4430  -27.8260  139.8220 C.3   129  LEU129      0.0284
     85  CG       -42.2980  -29.3500  139.9810 C.3   129  LEU129      0.0019
     86  CD1      -42.7470  -30.0930  138.7740 C.3   129  LEU129      0.0001
     87  CD2      -40.8720  -29.6720  140.3540 C.3   129  LEU129      0.0001
     88  N        -45.6880  -28.5730  140.4860 N.am  130  PHE130     -0.1962
     89  CA       -46.4930  -29.3830  141.4240 C.3   130  PHE130      0.1771
     90  C        -46.0390  -30.8260  141.3750 C.2   130  PHE130      0.2619
     91  O        -45.9650  -31.3880  140.2840 O.2   130  PHE130     -0.2715
     92  CB       -47.9830  -29.3060  141.0320 C.3   130  PHE130      0.0574
     93  CG       -48.8980  -30.1620  141.8880 C.ar  130  PHE130     -0.0200
     94  CD1      -49.0160  -29.8980  143.2380 C.ar  130  PHE130     -0.0042
     95  CD2      -49.6250  -31.2470  141.3700 C.ar  130  PHE130     -0.0042
     96  CE1      -49.7750  -30.6920  144.0760 C.ar  130  PHE130     -0.0003
     97  CE2      -50.4720  -32.0110  142.2100 C.ar  130  PHE130     -0.0003
     98  CZ       -50.5340  -31.7150  143.5550 C.ar  130  PHE130     -0.0000
     99  N        -45.7590  -31.4070  142.5350 N.am  131  ILE131     -0.1977
    100  CA       -45.5030  -32.8450  142.6340 C.3   131  ILE131      0.1596
    101  C        -46.8340  -33.5330  142.8910 C.2   131  ILE131      0.2287
    102  O        -47.4890  -33.2750  143.9010 O.2   131  ILE131     -0.2864
    103  CB       -44.5880  -33.1140  143.8360 C.3   131  ILE131      0.0276
    104  CG1      -43.2440  -32.3700  143.7090 C.3   131  ILE131      0.0022
    105  CG2      -44.3990  -34.6260  143.9880 C.3   131  ILE131      0.0022
    106  CD1      -42.4820  -32.2120  145.0110 C.3   131  ILE131      0.0001
    107  N        -49.7550  -35.7160  144.0930 N.3   133  ALA133     -0.1245
    108  CA       -50.0250  -36.3600  145.3650 C.3   133  ALA133      0.1562
    109  C        -51.5350  -36.2640  145.5950 C.2   133  ALA133      0.2260
    110  O        -52.2610  -35.7080  144.7990 O.2   133  ALA133     -0.2867
    111  CB       -49.2670  -35.6610  146.4850 C.3   133  ALA133      0.0290
    112  N        -52.2630  -32.7570  149.3960 N.3   138  PRO138     -0.2102
    113  CA       -51.0900  -32.8150  148.5550 C.3   138  PRO138      0.1504
    114  C        -49.8380  -32.1870  149.1630 C.2   138  PRO138      0.2576
    115  O        -48.8130  -32.1070  148.4980 O.2   138  PRO138     -0.2718
    116  CB       -51.5170  -32.0110  147.3320 C.3   138  PRO138      0.0282
    117  CG       -52.4120  -30.9730  147.8960 C.3   138  PRO138      0.0208
    118  CD       -53.1800  -31.6860  148.9720 C.3   138  PRO138      0.0893
    119  N        -49.9470  -31.6800  150.3820 N.am  139  VAL139     -0.1966
    120  CA       -48.9250  -30.8600  150.9720 C.3   139  VAL139      0.1727
    121  C        -47.8990  -31.7650  151.6300 C.2   139  VAL139      0.2616
    122  O        -48.1400  -32.3820  152.6840 O.2   139  VAL139     -0.2715
    123  CB       -49.4890  -29.8950  151.9960 C.3   139  VAL139      0.0290
    124  CG1      -48.4110  -28.9390  152.4130 C.3   139  VAL139      0.0023
    125  CG2      -50.7060  -29.1490  151.4750 C.3   139  VAL139      0.0023
    126  N        -46.7490  -31.8670  150.9790 N.am  140  LEU140     -0.1963
    127  CA       -45.6270  -32.6500  151.4710 C.3   140  LEU140      0.1728
    128  C        -44.8190  -31.8400  152.4740 C.2   140  LEU140      0.2616
    129  O        -44.7010  -30.6100  152.3400 O.2   140  LEU140     -0.2715
    130  CB       -44.7000  -33.0790  150.3380 C.3   140  LEU140      0.0311
    131  CG       -45.3490  -33.7740  149.1430 C.3   140  LEU140      0.0022
    132  CD1      -44.4570  -33.8780  147.9440 C.3   140  LEU140      0.0001
    133  CD2      -45.8330  -35.1510  149.5080 C.3   140  LEU140      0.0001
    134  N        -44.2380  -32.4890  153.4610 N.am  141  ASN141     -0.1958
    135  CA       -43.1850  -31.8670  154.2280 C.3   141  ASN141      0.1819
    136  C        -42.0660  -31.4140  153.2800 C.2   141  ASN141      0.2621
    137  O        -41.6810  -32.0960  152.3550 O.2   141  ASN141     -0.2715
    138  CB       -42.6680  -32.8090  155.2850 C.3   141  ASN141      0.1195
    139  CG       -41.4740  -32.2510  155.9790 C.2   141  ASN141      0.2630
    140  OD1      -41.5600  -31.3010  156.8110 O.2   141  ASN141     -0.2716
    141  ND2      -40.3300  -32.7090  155.5300 N.am  141  ASN141     -0.0877
    142  N        -41.5290  -30.2130  153.5650 N.am  142  LEU142     -0.1977
    143  CA       -40.5190  -29.5710  152.7360 C.3   142  LEU142      0.1596
    144  C        -39.3930  -30.4980  152.2810 C.2   142  LEU142      0.2287
    145  O        -39.0970  -30.5750  151.1030 O.2   142  LEU142     -0.2864
    146  CB       -39.9430  -28.3980  153.5230 C.3   142  LEU142      0.0297
    147  CG       -38.6870  -27.7360  152.9490 C.3   142  LEU142      0.0022
    148  CD1      -38.8840  -27.1940  151.5660 C.3   142  LEU142      0.0001
    149  CD2      -38.1900  -26.6780  153.9200 C.3   142  LEU142      0.0001
    150  N        -40.5530  -33.1470  149.7690 N.3   145  ALA145     -0.1245
    151  CA       -40.6970  -32.5750  148.4630 C.3   145  ALA145      0.1562
    152  C        -39.3390  -32.4250  147.7570 C.2   145  ALA145      0.2260
    153  O        -39.1820  -32.7720  146.5740 O.2   145  ALA145     -0.2867
    154  CB       -41.4090  -31.2440  148.5410 C.3   145  ALA145      0.0290
@<TRIPOS>BOND
     1    86    85    1
     2    80    81    1
     3    81    84    1
     4    81    82    1
     5    84    85    1
     6    85    87    1
     7    91    90    2
     8    88    82   am
     9    88    89    1
    10    82    83    2
    11    92    89    1
    12    92    93    1
    13    95    93   ar
    14    95    97   ar
    15    90    89    1
    16    90    99   am
    17    93    94   ar
    18    97    98   ar
    19    99   100    1
    20   100   101    1
    21   100   103    1
    22   101   102    2
    23    94    96   ar
    24     1     2    1
    25     7     5    1
    26    98    96   ar
    27     2     5    1
    28     2     3    1
    29   104   103    1
    30   104   106    1
    31   103   105    1
    32   107   108    1
    33    11    10    2
    34     8     3   am
    35     8     9    1
    36     5     6    1
    37     3     4    2
    38    12     9    1
    39    12    13    1
    40   110   109    2
    41     9    10    1
    42    10    14   am
    43   108   109    1
    44   108   111    1
    45    30    28   ar
    46    30    29   ar
    47    28    26   ar
    48    78    77    1
    49    16    17    2
    50    16    15    1
    51    29    27   ar
    52    14    15    1
    53    26    25   ar
    54   153   152    2
    55    15    18    1
    56    20    21    1
    57    77    76    1
    58    77    79    1
    59    27    25   ar
    60    76    73    1
    61    25    24    1
    62   116   117    1
    63   116   113    1
    64    21    24    1
    65    21    22    1
    66   152   151    1
    67   117   118    1
    68   132   131    1
    69    18    19    1
    70    75    74    2
    71   151   154    1
    72   151   150    1
    73    74    73    1
    74   115   114    2
    75   113   114    1
    76   113   112    1
    77    73    72    1
    78    22    23    2
    79    22    31   am
    80   118   112    1
    81   131   133    1
    82   131   130    1
    83   114   119   am
    84    31    32    1
    85    72    70   am
    86    32    33    1
    87   130   127    1
    88   119   120    1
    89    70    69    1
    90    70    71    2
    91   120   121    1
    92   120   123    1
    93   126   127    1
    94   126   121   am
    95   145   144    2
    96    69    68    1
    97    44    43    1
    98   127   128    1
    99   125   123    1
   100   148   147    1
   101    33    34    2
   102    33    35   am
   103   121   122    2
   104    64    63    2
   105   123   124    1
   106    45    43    1
   107   144   143    1
   108    43    42    2
   109   129   128    2
   110   137   136    2
   111    35    36    1
   112   128   134   am
   113    68    63   am
   114   143   146    1
   115   143   142    1
   116    63    62    1
   117   147   146    1
   118   147   149    1
   119   136   142   am
   120   136   135    1
   121   134   135    1
   122    42    41    1
   123    38    37    2
   124    36    37    1
   125    36    39    1
   126    40    41    1
   127    40    39    1
   128   135   138    1
   129    62    65    1
   130    62    61    1
   131    37    46   am
   132    65    67    1
   133    65    66    1
   134    61    57   am
   135   138   139    1
   136    46    47    1
   137   141   139   am
   138    47    48    1
   139    47    50    1
   140   139   140    2
   141    49    48    2
   142    58    57    2
   143    57    56    1
   144    48    55   am
   145    55    56    1
   146    51    50    1
   147    51    52    1
   148    53    52   ar
   149    52    54   ar
   150    56    59    1
   151    60    59    1
