@<TRIPOS>MOLECULE
tmp/4cngA01.pdb
 105 100 0 0 0
SMALL
GASTEIGER

@<TRIPOS>ATOM
      1  N        -41.8150  -24.1650  143.2980 N.3    77  THR77      -0.1203
      2  CA       -42.6400  -25.3480  143.6500 C.3    77  THR77       0.1994
      3  C        -43.7890  -24.8720  144.5150 C.2    77  THR77       0.2619
      4  O        -43.6720  -23.9280  145.3030 O.2    77  THR77      -0.2717
      5  CB       -41.7730  -26.3880  144.4000 C.3    77  THR77       0.1784
      6  OG1      -41.1230  -25.7520  145.5050 O.3    77  THR77      -0.2211
      7  CG2      -40.7610  -27.0080  143.4820 C.3    77  THR77       0.0376
      8  N        -44.9180  -25.5770  144.3930 N.am   78  SER78      -0.1937
      9  CA       -46.0810  -25.3320  145.2460 C.3    78  SER78       0.2055
     10  C        -46.9310  -26.6000  145.2970 C.2    78  SER78       0.2644
     11  O        -47.1140  -27.2740  144.2740 O.2    78  SER78      -0.2714
     12  CB       -46.9300  -24.1700  144.7120 C.3    78  SER78       0.2130
     13  OG       -48.1890  -24.0780  145.3940 O.3    78  SER78      -0.2179
     14  N        -47.5620  -26.8110  146.4360 N.am   79  SER79      -0.1935
     15  CA       -48.5440  -27.8430  146.6390 C.3    79  SER79       0.2055
     16  C        -49.9310  -27.5500  146.1070 C.2    79  SER79       0.2642
     17  O        -50.8120  -28.4040  146.2570 O.2    79  SER79      -0.2714
     18  CB       -48.6560  -28.1710  148.1300 C.3    79  SER79       0.2130
     19  OG       -49.1230  -27.0610  148.8680 O.3    79  SER79      -0.2179
     20  N        -50.1530  -26.4160  145.4630 N.am   80  ILE80      -0.1977
     21  CA       -51.4800  -26.2100  144.8630 C.3    80  ILE80       0.1596
     22  C        -51.8030  -27.1680  143.7070 C.2    80  ILE80       0.2287
     23  O        -51.1760  -27.1190  142.7290 O.2    80  ILE80      -0.2864
     24  CB       -51.6320  -24.7910  144.3560 C.3    80  ILE80       0.0276
     25  CG1      -51.5460  -23.8590  145.5410 C.3    80  ILE80       0.0022
     26  CG2      -52.9810  -24.6270  143.6860 C.3    80  ILE80       0.0022
     27  CD1      -51.3130  -22.4090  145.1320 C.3    80  ILE80       0.0001
     28  N        -54.6520  -27.7820  141.9630 N.3    82  ASP82      -0.1225
     29  CA       -55.5280  -27.3850  140.8820 C.3    82  ASP82       0.1805
     30  C        -55.4810  -25.8860  140.6410 C.2    82  ASP82       0.2598
     31  O        -56.3960  -25.1700  140.8980 O.2    82  ASP82      -0.2718
     32  CB       -56.9500  -27.8720  141.1620 C.3    82  ASP82       0.1424
     33  CG       -57.1560  -29.3580  140.8100 C.2    82  ASP82       0.3668
     34  OD1      -56.4760  -29.8850  139.9090 O.co2  82  ASP82      -0.2456
     35  OD2      -58.0290  -30.0170  141.4150 O.co2  82  ASP82      -0.2456
     36  N        -54.3740  -25.4650  140.0840 N.am   83  ILE83      -0.1966
     37  CA       -54.1250  -24.0700  139.7990 C.3    83  ILE83       0.1727
     38  C        -55.1400  -23.4890  138.8150 C.2    83  ILE83       0.2616
     39  O        -55.4700  -24.1180  137.8310 O.2    83  ILE83      -0.2715
     40  CB       -52.7480  -23.9110  139.1860 C.3    83  ILE83       0.0290
     41  CG1      -51.6800  -24.1990  140.1880 C.3    83  ILE83       0.0022
     42  CG2      -52.5920  -22.5390  138.5540 C.3    83  ILE83       0.0023
     43  CD1      -50.3800  -23.6480  139.7370 C.3    83  ILE83       0.0001
     44  N        -55.6250  -22.2940  139.0720 N.am   84  LYS84      -0.1977
     45  CA       -56.5350  -21.6010  138.1620 C.3    84  LYS84       0.1596
     46  C        -55.9380  -20.2600  137.7510 C.2    84  LYS84       0.2287
     47  O        -55.0770  -19.7140  138.4430 O.2    84  LYS84      -0.2864
     48  CB       -57.9100  -21.3790  138.8060 C.3    84  LYS84       0.0298
     49  CG       -58.9950  -21.0720  137.7820 C.3    84  LYS84       0.0038
     50  CD       -60.2430  -20.4590  138.3990 C.3    84  LYS84       0.0206
     51  CE       -61.1230  -19.8320  137.3270 C.3    84  LYS84       0.1093
     52  NZ       -62.4410  -19.3840  137.8590 N.3    84  LYS84      -0.1314
     53  N        -51.6890  -18.1840  136.6680 N.3    87  LEU87      -0.1245
     54  CA       -50.5970  -19.0600  137.1060 C.3    87  LEU87       0.1561
     55  C        -50.6200  -20.4120  136.4010 C.2    87  LEU87       0.2260
     56  O        -49.5820  -21.0710  136.3130 O.2    87  LEU87      -0.2867
     57  CB       -50.5580  -19.2630  138.6300 C.3    87  LEU87       0.0270
     58  CG       -49.7930  -18.2460  139.4810 C.3    87  LEU87       0.0019
     59  CD1      -49.8150  -18.7250  140.9180 C.3    87  LEU87       0.0001
     60  CD2      -48.3750  -18.1260  138.9500 C.3    87  LEU87       0.0001
     61  N        -45.7350  -21.1540  155.2520 N.3   115  VAL115     -0.1231
     62  CA       -46.5280  -20.3890  154.2840 C.3   115  VAL115      0.1692
     63  C        -46.0370  -20.5350  152.8430 C.2   115  VAL115      0.2593
     64  O        -46.4990  -19.8160  151.9640 O.2   115  VAL115     -0.2718
     65  CB       -46.6110  -18.8930  154.6560 C.3   115  VAL115      0.0266
     66  CG1      -47.3380  -18.6970  155.9780 C.3   115  VAL115      0.0020
     67  CG2      -45.2300  -18.2620  154.6900 C.3   115  VAL115      0.0020
     68  N        -45.1040  -21.4370  152.5730 N.am  116  GLY116     -0.1942
     69  CA       -44.6620  -21.6680  151.2060 C.3   116  GLY116      0.2014
     70  C        -43.9050  -20.4840  150.6350 C.2   116  GLY116      0.2639
     71  O        -43.0890  -19.8660  151.3070 O.2   116  GLY116     -0.2714
     72  N        -44.1220  -20.2220  149.3570 N.am  117  LEU117     -0.1963
     73  CA       -43.5050  -19.1390  148.6050 C.3   117  LEU117      0.1728
     74  C        -44.5380  -18.0280  148.4800 C.2   117  LEU117      0.2617
     75  O        -45.7310  -18.2830  148.3930 O.2   117  LEU117     -0.2715
     76  CB       -43.0510  -19.5960  147.2300 C.3   117  LEU117      0.0311
     77  CG       -41.8730  -20.5550  147.1740 C.3   117  LEU117      0.0022
     78  CD1      -41.6820  -21.0580  145.7660 C.3   117  LEU117      0.0001
     79  CD2      -40.6010  -19.9370  147.7100 C.3   117  LEU117      0.0001
     80  N        -44.0790  -16.7910  148.4370 N.am  118  THR118     -0.1937
     81  CA       -45.0230  -15.6970  148.2370 C.3   118  THR118      0.2028
     82  C        -45.4250  -15.6110  146.7590 C.2   118  THR118      0.2642
     83  O        -44.7350  -16.0880  145.8670 O.2   118  THR118     -0.2714
     84  CB       -44.4400  -14.3490  148.6770 C.3   118  THR118      0.1808
     85  OG1      -43.3770  -14.0180  147.7940 O.3   118  THR118     -0.2208
     86  CG2      -43.9390  -14.4050  150.1100 C.3   118  THR118      0.0379
     87  N        -46.5010  -14.8080  146.5800 N.am  119  ARG119     -0.1977
     88  CA       -46.9560  -14.6680  145.2170 C.3   119  ARG119      0.1597
     89  C        -45.9020  -13.9990  144.3600 C.2   119  ARG119      0.2287
     90  O        -45.6880  -14.3840  143.2260 O.2   119  ARG119     -0.2864
     91  CB       -48.2590  -13.8890  145.1820 C.3   119  ARG119      0.0334
     92  CG       -48.8060  -13.6130  143.7940 C.3   119  ARG119      0.0492
     93  CD       -49.1700  -14.9150  143.0910 C.3   119  ARG119      0.2205
     94  NE       -49.7020  -14.6950  141.7470 N.pl3 119  ARG119     -0.0865
     95  CZ       -48.9570  -14.5660  140.6510 C.cat 119  ARG119      0.5346
     96  NH1      -47.6330  -14.6320  140.7280 N.pl3 119  ARG119      0.1354
     97  NH2      -49.5390  -14.3600  139.4760 N.pl3 119  ARG119      0.1354
     98  N        -43.0630  -16.3600  143.3200 N.3   122  ILE122     -0.1245
     99  CA       -43.5150  -17.1350  142.1950 C.3   122  ILE122      0.1561
    100  C        -43.5320  -16.3010  140.9320 C.2   122  ILE122      0.2260
    101  O        -43.1650  -16.7810  139.8690 O.2   122  ILE122     -0.2867
    102  CB       -44.8810  -17.8150  142.4790 C.3   122  ILE122      0.0252
    103  CG1      -44.7470  -18.8410  143.6180 C.3   122  ILE122      0.0019
    104  CG2      -45.4720  -18.4320  141.2360 C.3   122  ILE122      0.0019
    105  CD1      -46.0450  -19.3540  144.1760 C.3   122  ILE122      0.0001
@<TRIPOS>BOND
     1    56    55    2
     2    55    54    1
     3    53    54    1
     4    54    57    1
     5    51    52    1
     6    51    50    1
     7    46    45    1
     8    46    47    2
     9    49    50    1
    10    49    48    1
    11    39    38    2
    12    45    48    1
    13    45    44    1
    14    42    40    1
    15    57    58    1
    16    38    44   am
    17    38    37    1
    18    60    58    1
    19    40    37    1
    20    40    41    1
    21    97    95    1
    22    58    59    1
    23    43    41    1
    24    37    36    1
    25   101   100    2
    26    34    33   ar
    27    36    30   am
    28    30    29    1
    29    30    31    2
    30    95    96    1
    31    95    94    2
    32    33    32    1
    33    33    35   ar
    34    29    32    1
    35    29    28    1
    36   100    99    1
    37   104   102    1
    38    94    93    1
    39    99   102    1
    40    99    98    1
    41   102   103    1
    42    23    22    2
    43    93    92    1
    44    90    89    2
    45     1     2    1
    46     7     5    1
    47   103   105    1
    48     2     5    1
    49     2     3    1
    50    26    24    1
    51    22    21    1
    52    92    91    1
    53    11    10    2
    54    24    21    1
    55    24    25    1
    56    89    88    1
    57     8     3   am
    58     8     9    1
    59     5     6    1
    60     3     4    2
    61    12     9    1
    62    12    13    1
    63    21    20    1
    64    27    25    1
    65    91    88    1
    66    88    87    1
    67     9    10    1
    68    10    14   am
    69    20    16   am
    70    78    77    1
    71    83    82    2
    72    16    17    2
    73    16    15    1
    74    14    15    1
    75    87    82   am
    76    15    18    1
    77    82    81    1
    78    77    76    1
    79    77    79    1
    80    76    73    1
    81    85    84    1
    82    18    19    1
    83    81    80    1
    84    81    84    1
    85    75    74    2
    86    80    74   am
    87    74    73    1
    88    73    72    1
    89    84    86    1
    90    72    70   am
    91    70    69    1
    92    70    71    2
    93    69    68    1
    94    64    63    2
    95    68    63   am
    96    63    62    1
    97    62    65    1
    98    62    61    1
    99    65    67    1
   100    65    66    1
