@<TRIPOS>MOLECULE
tmp/4cnhB01.pdb
 160 156 0 0 0
SMALL
GASTEIGER

@<TRIPOS>ATOM
      1  N         77.0680   24.3880  -51.3970 N.3     3  ASN3       -0.1225
      2  CA        77.6740   23.0750  -51.5920 C.3     3  ASN3        0.1785
      3  C         77.3750   22.5630  -53.0010 C.2     3  ASN3        0.2597
      4  O         76.3290   22.8670  -53.5810 O.2     3  ASN3       -0.2718
      5  CB        77.1420   22.0800  -50.5560 C.3     3  ASN3        0.1169
      6  CG        77.7140   22.3190  -49.1690 C.2     3  ASN3        0.2627
      7  OD1       78.9010   22.6090  -49.0140 O.2     3  ASN3       -0.2716
      8  ND2       76.8680   22.1960  -48.1510 N.am    3  ASN3       -0.0877
      9  N         78.3020   21.7920  -53.5530 N.am    4  TYR4       -0.1976
     10  CA        78.1100   21.2110  -54.8730 C.3     4  TYR4        0.1639
     11  C         78.7010   19.8100  -54.9230 C.2     4  TYR4        0.2290
     12  O         79.8120   19.5770  -54.4510 O.2     4  TYR4       -0.2864
     13  CB        78.7680   22.0880  -55.9390 C.3     4  TYR4        0.0560
     14  CG        78.6950   21.4960  -57.3230 C.ar    4  TYR4       -0.0198
     15  CD1       77.4860   21.0430  -57.8430 C.ar    4  TYR4       -0.0009
     16  CD2       79.8370   21.3610  -58.1030 C.ar    4  TYR4       -0.0009
     17  CE1       77.4190   20.4710  -59.0920 C.ar    4  TYR4        0.0417
     18  CE2       79.7790   20.7900  -59.3600 C.ar    4  TYR4        0.0417
     19  CZ        78.5710   20.3470  -59.8490 C.ar    4  TYR4        0.1957
     20  OH        78.5110   19.7800  -61.0970 O.3     4  TYR4       -0.2866
     21  N         70.8000   36.9010  -56.8690 N.3    60  GLN60      -0.1245
     22  CA        70.6790   35.6590  -57.6090 C.3    60  GLN60       0.1566
     23  C         71.8440   35.5230  -58.5820 C.2    60  GLN60       0.2260
     24  O         72.4460   34.4550  -58.6890 O.2    60  GLN60      -0.2867
     25  CB        69.3580   35.6290  -58.3740 C.3    60  GLN60       0.0367
     26  CG        69.0360   34.2780  -58.9760 C.3    60  GLN60       0.0905
     27  CD        68.9570   33.1830  -57.9300 C.2    60  GLN60       0.2608
     28  OE1       69.7290   32.2240  -57.9580 O.2    60  GLN60      -0.2717
     29  NE2       68.0190   33.3200  -56.9970 N.am   60  GLN60      -0.0878
     30  N         74.7580   34.3810  -56.6440 N.3    63  LEU63      -0.1231
     31  CA        74.7610   32.9570  -56.3400 C.3    63  LEU63       0.1693
     32  C         75.1130   32.1380  -57.5880 C.2    63  LEU63       0.2592
     33  O         75.9300   31.2180  -57.5300 O.2    63  LEU63      -0.2718
     34  CB        73.3910   32.5410  -55.8030 C.3    63  LEU63       0.0284
     35  CG        73.2140   31.0970  -55.3360 C.3    63  LEU63       0.0019
     36  CD1       74.2050   30.7840  -54.2220 C.3    63  LEU63       0.0001
     37  CD2       71.7840   30.9000  -54.8490 C.3    63  LEU63       0.0001
     38  N         74.5010   32.4870  -58.7150 N.am   64  ASP64      -0.1974
     39  CA        74.6950   31.7500  -59.9580 C.3    64  ASP64       0.1709
     40  C         76.1570   31.7560  -60.4050 C.2    64  ASP64       0.2293
     41  O         76.6570   30.7550  -60.9250 O.2    64  ASP64      -0.2864
     42  CB        73.8210   32.3540  -61.0600 C.3    64  ASP64       0.1436
     43  CG        72.3370   32.0980  -60.8400 C.2    64  ASP64       0.3671
     44  OD1       71.9870   31.2950  -59.9520 O.co2  64  ASP64      -0.2456
     45  OD2       71.5220   32.7010  -61.5660 O.co2  64  ASP64      -0.2456
     46  N         78.1630   29.4100  -58.3520 N.3    67  MET67      -0.1230
     47  CA        77.8320   28.0410  -58.7220 C.3    67  MET67       0.1702
     48  C         78.5190   27.6430  -60.0220 C.2    67  MET67       0.2592
     49  O         79.0070   26.5260  -60.1530 O.2    67  MET67      -0.2718
     50  CB        76.3140   27.8770  -58.8600 C.3    67  MET67       0.0401
     51  CG        75.7720   26.6470  -58.1520 C.3    67  MET67       0.0596
     52  SD        76.1030   26.6540  -56.3790 S.3    67  MET67      -0.1393
     53  CE        75.7040   28.3700  -56.0140 C.3    67  MET67       0.0692
     54  N         78.5700   28.5500  -60.9880 N.am   68  GLU68      -0.1979
     55  CA        79.2720   28.2330  -62.2230 C.3    68  GLU68       0.1602
     56  C         80.7780   28.0770  -61.9920 C.2    68  GLU68       0.2287
     57  O         81.4270   27.2590  -62.6440 O.2    68  GLU68      -0.2864
     58  CB        78.9710   29.2890  -63.2970 C.3    68  GLU68       0.0415
     59  CG        77.5130   29.2180  -63.7790 C.3    68  GLU68       0.1163
     60  CD        77.2300   30.0270  -65.0400 C.2    68  GLU68       0.3649
     61  OE1       78.1630   30.6620  -65.5780 O.co2  68  GLU68      -0.2457
     62  OE2       76.0630   30.0240  -65.4950 O.co2  68  GLU68      -0.2457
     63  N         81.0400   24.5600  -60.4980 N.3    71  ILE71      -0.1245
     64  CA        80.7460   23.4780  -61.4250 C.3    71  ILE71       0.1561
     65  C         81.8400   23.3030  -62.4690 C.2    71  ILE71       0.2260
     66  O         82.2660   22.1790  -62.7410 O.2    71  ILE71      -0.2867
     67  CB        79.3900   23.7030  -62.1120 C.3    71  ILE71       0.0252
     68  CG1       78.2760   23.6430  -61.0610 C.3    71  ILE71       0.0019
     69  CG2       79.1730   22.6580  -63.1960 C.3    71  ILE71       0.0019
     70  CD1       76.9710   24.2260  -61.5200 C.3    71  ILE71       0.0001
     71  N         75.5650   15.2650  -65.9590 N.3   143  PHE143     -0.1227
     72  CA        75.4350   16.7070  -66.0130 C.3   143  PHE143      0.1736
     73  C         74.7710   17.0930  -67.3280 C.2   143  PHE143      0.2595
     74  O         75.2020   16.6790  -68.4010 O.2   143  PHE143     -0.2718
     75  CB        76.8100   17.3740  -65.8890 C.3   143  PHE143      0.0547
     76  CG        76.7500   18.8710  -65.8580 C.ar  143  PHE143     -0.0202
     77  CD1       76.7580   19.6030  -67.0350 C.ar  143  PHE143     -0.0042
     78  CD2       76.6490   19.5450  -64.6570 C.ar  143  PHE143     -0.0042
     79  CE1       76.6600   20.9800  -67.0120 C.ar  143  PHE143     -0.0003
     80  CE2       76.5520   20.9210  -64.6300 C.ar  143  PHE143     -0.0003
     81  CZ        76.5560   21.6370  -65.8110 C.ar  143  PHE143     -0.0000
     82  N         73.7050   17.8760  -67.2310 N.am  144  ILE144     -0.1966
     83  CA        72.9800   18.3420  -68.4040 C.3   144  ILE144      0.1727
     84  C         73.3870   19.7910  -68.6550 C.2   144  ILE144      0.2616
     85  O         73.2910   20.6290  -67.7630 O.2   144  ILE144     -0.2715
     86  CB        71.4610   18.2750  -68.1710 C.3   144  ILE144      0.0290
     87  CG1       71.0480   16.8330  -67.8650 C.3   144  ILE144      0.0022
     88  CG2       70.7190   18.7970  -69.3960 C.3   144  ILE144      0.0023
     89  CD1       69.5900   16.6880  -67.5210 C.3   144  ILE144      0.0001
     90  N         73.8500   20.0800  -69.8660 N.am  145  HIS145     -0.1959
     91  CA        74.4320   21.3850  -70.1570 C.3   145  HIS145      0.1787
     92  C         73.3740   22.4450  -70.5150 C.2   145  HIS145      0.2620
     93  O         73.3830   23.5430  -69.9630 O.2   145  HIS145     -0.2715
     94  CB        75.4560   21.2490  -71.2910 C.3   145  HIS145      0.0785
     95  CG        76.2350   22.5010  -71.5560 C.ar  145  HIS145      0.0821
     96  ND1       75.7480   23.5290  -72.3340 N.ar  145  HIS145     -0.2267
     97  CD2       77.4710   22.8840  -71.1570 C.ar  145  HIS145      0.1154
     98  CE1       76.6510   24.4910  -72.4050 C.ar  145  HIS145      0.1986
     99  NE2       77.7070   24.1250  -71.7000 N.ar  145  HIS145     -0.2212
    100  N         72.4790   22.1030  -71.4410 N.am  146  ARG146     -0.1977
    101  CA        71.3040   22.9140  -71.7780 C.3   146  ARG146      0.1597
    102  C         71.5480   24.0480  -72.7770 C.2   146  ARG146      0.2287
    103  O         70.5920   24.6490  -73.2660 O.2   146  ARG146     -0.2864
    104  CB        70.6540   23.5030  -70.5150 C.3   146  ARG146      0.0334
    105  CG        70.2610   22.4860  -69.4520 C.3   146  ARG146      0.0492
    106  CD        69.5840   23.1700  -68.2590 C.3   146  ARG146      0.2205
    107  NE        69.7100   22.3980  -67.0220 N.pl3 146  ARG146     -0.0865
    108  CZ        68.9500   21.3480  -66.7350 C.cat 146  ARG146      0.5346
    109  NH1       68.0250   20.9610  -67.5970 N.pl3 146  ARG146      0.1354
    110  NH2       69.1050   20.6860  -65.5950 N.pl3 146  ARG146      0.1354
    111  N         78.7370   27.7730  -69.9070 N.3   169  PHE169     -0.1241
    112  CA        77.3640   27.2900  -69.7820 C.3   169  PHE169      0.1605
    113  C         76.4130   28.2040  -70.5460 C.2   169  PHE169      0.2264
    114  O         75.2400   27.8820  -70.7280 O.2   169  PHE169     -0.2867
    115  CB        76.9540   27.2360  -68.3090 C.3   169  PHE169      0.0534
    116  CG        77.8490   26.3740  -67.4640 C.ar  169  PHE169     -0.0203
    117  CD1       77.9260   25.0080  -67.6860 C.ar  169  PHE169     -0.0042
    118  CD2       78.6130   26.9290  -66.4470 C.ar  169  PHE169     -0.0042
    119  CE1       78.7460   24.2130  -66.9100 C.ar  169  PHE169     -0.0003
    120  CE2       79.4350   26.1370  -65.6680 C.ar  169  PHE169     -0.0003
    121  CZ        79.5010   24.7780  -65.9000 C.ar  169  PHE169     -0.0000
    122  N         72.4090   28.7360  -69.9560 N.3   172  ALA172     -0.1231
    123  CA        71.8020   27.5670  -69.3180 C.3   172  ALA172      0.1694
    124  C         70.8420   27.9550  -68.1870 C.2   172  ALA172      0.2591
    125  O         69.7560   27.3830  -68.0550 O.2   172  ALA172     -0.2718
    126  CB        72.8850   26.6470  -68.7780 C.3   172  ALA172      0.0304
    127  N         71.2360   28.9180  -67.3650 N.am  173  ARG173     -0.1980
    128  CA        70.4110   29.2730  -66.2260 C.3   173  ARG173      0.1597
    129  C         69.0800   29.8740  -66.6670 C.2   173  ARG173      0.2287
    130  O         68.0390   29.5480  -66.0970 O.2   173  ARG173     -0.2864
    131  CB        71.1570   30.2350  -65.2930 C.3   173  ARG173      0.0334
    132  CG        71.4860   31.5980  -65.8640 C.3   173  ARG173      0.0492
    133  CD        72.5190   32.2840  -64.9810 C.3   173  ARG173      0.2205
    134  NE        72.7000   33.6980  -65.2980 N.pl3 173  ARG173     -0.0865
    135  CZ        73.6150   34.1640  -66.1430 C.cat 173  ARG173      0.5346
    136  NH1       74.4330   33.3270  -66.7700 N.pl3 173  ARG173      0.1354
    137  NH2       73.7090   35.4690  -66.3660 N.pl3 173  ARG173      0.1354
    138  N         66.8180   27.1270  -68.3240 N.3   176  TYR176     -0.1227
    139  CA        66.1670   26.2580  -67.3590 C.3   176  TYR176      0.1736
    140  C         65.0110   26.9740  -66.6610 C.2   176  TYR176      0.2595
    141  O         63.9740   26.3700  -66.3870 O.2   176  TYR176     -0.2718
    142  CB        67.1730   25.7760  -66.3120 C.3   176  TYR176      0.0548
    143  CG        66.5410   24.9860  -65.1890 C.ar  176  TYR176     -0.0200
    144  CD1       66.3450   23.6140  -65.3020 C.ar  176  TYR176     -0.0009
    145  CD2       66.1180   25.6130  -64.0240 C.ar  176  TYR176     -0.0009
    146  CE1       65.7440   22.8920  -64.2830 C.ar  176  TYR176      0.0417
    147  CE2       65.5160   24.9040  -63.0070 C.ar  176  TYR176      0.0417
    148  CZ        65.3320   23.5430  -63.1410 C.ar  176  TYR176      0.1957
    149  OH        64.7390   22.8320  -62.1220 O.3   176  TYR176     -0.2866
    150  N         65.1930   28.2590  -66.3780 N.am  177  ARG177     -0.1980
    151  CA        64.2160   29.0110  -65.5980 C.3   177  ARG177      0.1597
    152  C         63.0220   29.5380  -66.3920 C.2   177  ARG177      0.2287
    153  O         62.0240   29.9540  -65.8110 O.2   177  ARG177     -0.2864
    154  CB        64.9130   30.1670  -64.8730 C.3   177  ARG177      0.0334
    155  CG        65.7610   29.6970  -63.6990 C.3   177  ARG177      0.0492
    156  CD        66.7050   30.7670  -63.2190 C.3   177  ARG177      0.2205
    157  NE        67.5790   30.2650  -62.1640 N.pl3 177  ARG177     -0.0865
    158  CZ        68.7510   30.8050  -61.8490 C.cat 177  ARG177      0.5346
    159  NH1       69.1880   31.8660  -62.5110 N.pl3 177  ARG177      0.1354
    160  NH2       69.4820   30.2850  -60.8740 N.pl3 177  ARG177      0.1354
@<TRIPOS>BOND
     1   103   102    2
     2   102   101    1
     3    98    96   ar
     4    98    99   ar
     5    96    95   ar
     6   101   100    1
     7   101   104    1
     8    99    97   ar
     9    95    94    1
    10    95    97   ar
    11   100    92   am
    12    94    91    1
    13   114   113    2
    14   113   112    1
    15   104   105    1
    16    92    91    1
    17    92    93    2
    18    91    90    1
    19   122   123    1
    20   111   112    1
    21    90    84   am
    22   112   115    1
    23   105   106    1
    24    88    86    1
    25   123   126    1
    26   123   124    1
    27    84    83    1
    28    84    85    2
    29    83    86    1
    30    83    82    1
    31    74    73    2
    32   138   139    1
    33   115   116    1
    34   106   107    1
    35   124   125    2
    36   124   127   am
    37    86    87    1
    38    87    89    1
    39   117   116   ar
    40   117   119   ar
    41   109   108    1
    42   116   118   ar
    43   127   128    1
    44   139   140    1
    45   139   142    1
    46    73    82   am
    47    73    72    1
    48    77    79   ar
    49    77    76   ar
    50   107   108    2
    51    79    81   ar
    52   119   121   ar
    53   136   135    1
    54   108   110    1
    55   129   128    1
    56   129   130    2
    57   140   141    2
    58   140   150   am
    59   118   120   ar
    60   152   153    2
    61   152   151    1
    62   150   151    1
    63   137   135    1
    64   142   143    1
    65   128   131    1
    66   135   134    2
    67    72    71    1
    68    72    75    1
    69   121   120   ar
    70    75    76    1
    71   132   131    1
    72   132   133    1
    73    76    78   ar
    74    81    80   ar
    75   151   154    1
    76    61    60   ar
    77    62    60   ar
    78   144   143   ar
    79   144   146   ar
    80   134   133    1
    81   143   145   ar
    82    60    59    1
    83   154   155    1
    84    78    80   ar
    85   146   148   ar
    86   145   147   ar
    87    59    58    1
    88   155   156    1
    89    58    55    1
    90   156   157    1
    91    69    67    1
    92   148   147   ar
    93   148   149    1
    94    66    65    2
    95    57    56    2
    96   159   158    1
    97    65    64    1
    98    55    56    1
    99    55    54    1
   100   157   158    2
   101    67    64    1
   102    67    68    1
   103   158   160    1
   104    45    43   ar
   105    70    68    1
   106    64    63    1
   107    20    19    1
   108    42    43    1
   109    42    39    1
   110    54    48   am
   111    41    40    2
   112    43    44   ar
   113    40    39    1
   114    49    48    2
   115    48    47    1
   116    39    38    1
   117    19    18   ar
   118    19    17   ar
   119    18    16   ar
   120    17    15   ar
   121    26    25    1
   122    26    27    1
   123    50    47    1
   124    50    51    1
   125    47    46    1
   126    38    32   am
   127    24    23    2
   128    23    22    1
   129    25    22    1
   130    51    52    1
   131    16    14   ar
   132    28    27    2
   133    27    29   am
   134    15    14   ar
   135    22    21    1
   136    32    33    2
   137    32    31    1
   138    14    13    1
   139    30    31    1
   140    52    53    1
   141    31    34    1
   142    13    10    1
   143    34    35    1
   144    35    37    1
   145    35    36    1
   146    11    10    1
   147    11    12    2
   148    10     9    1
   149     4     3    2
   150     9     3   am
   151     3     2    1
   152     2     1    1
   153     2     5    1
   154     5     6    1
   155     6     7    2
   156     6     8   am
