@<TRIPOS>MOLECULE
tmp/4cnhA00.pdb
 125 115 0 0 0
SMALL
GASTEIGER

@<TRIPOS>ATOM
      1  N         41.1370   -9.4910  -47.1870 N.3    29  LEU29      -0.1245
      2  CA        41.5240   -8.4970  -48.1860 C.3    29  LEU29       0.1561
      3  C         42.9250   -8.7760  -48.7090 C.2    29  LEU29       0.2260
      4  O         43.8710   -8.8960  -47.9340 O.2    29  LEU29      -0.2867
      5  CB        41.4760   -7.0840  -47.5930 C.3    29  LEU29       0.0270
      6  CG        40.1120   -6.5500  -47.1520 C.3    29  LEU29       0.0019
      7  CD1       40.2870   -5.2080  -46.4530 C.3    29  LEU29       0.0001
      8  CD2       39.2020   -6.4160  -48.3600 C.3    29  LEU29       0.0001
      9  N         45.0050   -8.8320  -43.4360 N.3    31  VAL31      -0.1245
     10  CA        43.9640   -7.8490  -43.1850 C.3    31  VAL31       0.1561
     11  C         42.6110   -8.3530  -43.6620 C.2    31  VAL31       0.2260
     12  O         42.5130   -9.0380  -44.6820 O.2    31  VAL31      -0.2867
     13  CB        44.2760   -6.5060  -43.8890 C.3    31  VAL31       0.0252
     14  CG1       45.7320   -6.1270  -43.6470 C.3    31  VAL31       0.0019
     15  CG2       43.9820   -6.6080  -45.3740 C.3    31  VAL31       0.0019
     16  N         38.7530   -1.8090  -41.7040 N.3    42  ALA42      -0.1245
     17  CA        39.7600   -2.8020  -42.0390 C.3    42  ALA42       0.1562
     18  C         40.3590   -3.2940  -40.7310 C.2    42  ALA42       0.2260
     19  O         40.5570   -2.5200  -39.7990 O.2    42  ALA42      -0.2867
     20  CB        40.8390   -2.1890  -42.9230 C.3    42  ALA42       0.0290
     21  N         43.5200   -5.2480  -39.0570 N.3    44  LYS44      -0.1245
     22  CA        44.8490   -5.8290  -39.1220 C.3    44  LYS44       0.1561
     23  C         44.9820   -6.7970  -37.9550 C.2    44  LYS44       0.2260
     24  O         44.7220   -6.4340  -36.8100 O.2    44  LYS44      -0.2867
     25  CB        45.9150   -4.7330  -39.0280 C.3    44  LYS44       0.0271
     26  CG        47.3370   -5.2270  -39.2780 C.3    44  LYS44       0.0035
     27  CD        48.3550   -4.0920  -39.1710 C.3    44  LYS44       0.0206
     28  CE        49.7830   -4.6210  -39.2420 C.3    44  LYS44       0.1093
     29  NZ        50.7590   -3.6990  -38.5880 N.3    44  LYS44      -0.1314
     30  N         45.1360    7.5890  -42.6580 N.3    74  VAL74      -0.1245
     31  CA        44.0950    6.6480  -42.2660 C.3    74  VAL74       0.1561
     32  C         43.8470    6.6810  -40.7570 C.2    74  VAL74       0.2260
     33  O         44.7840    6.7020  -39.9660 O.2    74  VAL74      -0.2867
     34  CB        44.4620    5.2120  -42.7080 C.3    74  VAL74       0.0252
     35  CG1       43.4700    4.2220  -42.1420 C.3    74  VAL74       0.0019
     36  CG2       44.4500    5.1340  -44.2290 C.3    74  VAL74       0.0019
     37  N         41.2080   -0.1400  -38.5620 N.3    90  LEU90      -0.1231
     38  CA        41.5000    1.0580  -39.3390 C.3    90  LEU90       0.1693
     39  C         40.3540    1.4590  -40.2520 C.2    90  LEU90       0.2592
     40  O         39.5690    0.6220  -40.6920 O.2    90  LEU90      -0.2718
     41  CB        42.7530    0.8420  -40.1860 C.3    90  LEU90       0.0284
     42  CG        44.0330    0.4810  -39.4380 C.3    90  LEU90       0.0019
     43  CD1       45.1490    0.2910  -40.4470 C.3    90  LEU90       0.0001
     44  CD2       44.3930    1.5750  -38.4540 C.3    90  LEU90       0.0001
     45  N         40.2690    2.7510  -40.5360 N.am   91  GLU91      -0.1966
     46  CA        39.3630    3.2660  -41.5520 C.3    91  GLU91       0.1733
     47  C         39.4690    2.4050  -42.8060 C.2    91  GLU91       0.2616
     48  O         40.5640    2.1940  -43.3320 O.2    91  GLU91      -0.2715
     49  CB        39.7440    4.7150  -41.8660 C.3    91  GLU91       0.0429
     50  CG        39.1200    5.3090  -43.1120 C.3    91  GLU91       0.1163
     51  CD        39.5420    6.7550  -43.3110 C.2    91  GLU91       0.3649
     52  OE1       40.4370    7.2210  -42.5740 O.co2  91  GLU91      -0.2457
     53  OE2       38.9830    7.4250  -44.2010 O.co2  91  GLU91      -0.2457
     54  N         38.3330    1.9050  -43.2830 N.am   92  LEU92      -0.1963
     55  CA        38.3210    1.0400  -44.4640 C.3    92  LEU92       0.1728
     56  C         38.4060    1.8770  -45.7340 C.2    92  LEU92       0.2616
     57  O         37.5380    2.7080  -46.0080 O.2    92  LEU92      -0.2715
     58  CB        37.0490    0.1830  -44.4870 C.3    92  LEU92       0.0311
     59  CG        36.8760   -0.8770  -45.5860 C.3    92  LEU92       0.0022
     60  CD1       36.5270   -0.2110  -46.9000 C.3    92  LEU92       0.0001
     61  CD2       38.1470   -1.7010  -45.7210 C.3    92  LEU92       0.0001
     62  N         39.4620    1.6470  -46.5070 N.am   93  MET93      -0.1963
     63  CA        39.7050    2.4140  -47.7130 C.3    93  MET93       0.1736
     64  C         39.3570    1.5610  -48.9320 C.2    93  MET93       0.2616
     65  O         40.1450    0.7270  -49.3720 O.2    93  MET93      -0.2715
     66  CB        41.1700    2.8560  -47.7430 C.3    93  MET93       0.0427
     67  CG        41.5780    3.6750  -46.5170 C.3    93  MET93       0.0599
     68  SD        40.8920    5.3480  -46.5870 S.3    93  MET93      -0.1393
     69  CE        41.8680    6.0050  -47.9630 C.3    93  MET93       0.0692
     70  N         38.1630    1.7890  -49.4690 N.am   94  ALA94      -0.1977
     71  CA        37.5370    0.8720  -50.4210 C.3    94  ALA94       0.1597
     72  C         38.2530    0.8320  -51.7650 C.2    94  ALA94       0.2287
     73  O         38.1630   -0.1550  -52.4930 O.2    94  ALA94      -0.2864
     74  CB        36.0710    1.2600  -50.6200 C.3    94  ALA94       0.0319
     75  N         41.3630    0.6470  -52.2020 N.3    96  GLY96      -0.1210
     76  CA        42.5570   -0.1780  -52.1470 C.3    96  GLY96       0.1956
     77  C         43.8280    0.6480  -52.1860 C.2    96  GLY96       0.2611
     78  O         43.7730    1.8740  -52.0840 O.2    96  GLY96      -0.2717
     79  N         44.9740   -0.0130  -52.3370 N.am   97  ASP97      -0.1973
     80  CA        46.2470    0.6910  -52.3390 C.3    97  ASP97       0.1709
     81  C         46.4990    1.4040  -53.6620 C.2    97  ASP97       0.2293
     82  O         45.9910    1.0120  -54.7110 O.2    97  ASP97      -0.2864
     83  CB        47.4040   -0.2660  -52.0240 C.3    97  ASP97       0.1436
     84  CG        47.7750   -1.1540  -53.1970 C.2    97  ASP97       0.3671
     85  OD1       47.0400   -2.1290  -53.4600 O.co2  97  ASP97      -0.2456
     86  OD2       48.8070   -0.8790  -53.8520 O.co2  97  ASP97      -0.2456
     87  N         52.7740    2.0640  -52.7070 N.3   147  ARG147     -0.1231
     88  CA        52.3120    0.8430  -52.0470 C.3   147  ARG147      0.1694
     89  C         51.8060    1.1320  -50.6280 C.2   147  ARG147      0.2592
     90  O         51.0830    0.3250  -50.0420 O.2   147  ARG147     -0.2718
     91  CB        53.4520   -0.1790  -51.9790 C.3   147  ARG147      0.0321
     92  CG        54.6190    0.3010  -51.1380 C.3   147  ARG147      0.0489
     93  CD        55.7960   -0.6630  -51.1380 C.3   147  ARG147      0.2205
     94  NE        56.9860   -0.0310  -50.5610 N.pl3 147  ARG147     -0.0865
     95  CZ        57.8730    0.6690  -51.2650 C.cat 147  ARG147      0.5346
     96  NH1       57.7040    0.8240  -52.5720 N.pl3 147  ARG147      0.1354
     97  NH2       58.9210    1.2220  -50.6700 N.pl3 147  ARG147      0.1354
     98  N         52.1910    2.2760  -50.0700 N.am  148  ASN148     -0.1974
     99  CA        51.8080    2.6000  -48.6980 C.3   148  ASN148      0.1688
    100  C         50.6840    3.6270  -48.6370 C.2   148  ASN148      0.2292
    101  O         50.3460    4.1250  -47.5660 O.2   148  ASN148     -0.2864
    102  CB        53.0220    3.1010  -47.9060 C.3   148  ASN148      0.1181
    103  CG        54.0710    2.0220  -47.7120 C.2   148  ASN148      0.2629
    104  OD1       53.7490    0.8280  -47.6420 O.2   148  ASN148     -0.2716
    105  ND2       55.3330    2.4300  -47.6320 N.am  148  ASN148     -0.0877
    106  N         46.5960    4.6270  -49.6560 N.3   150  LEU150     -0.1245
    107  CA        45.2800    4.0350  -49.8910 C.3   150  LEU150      0.1561
    108  C         44.3000    5.0520  -50.4630 C.2   150  LEU150      0.2260
    109  O         44.4650    6.2650  -50.2870 O.2   150  LEU150     -0.2867
    110  CB        44.7110    3.4780  -48.5840 C.3   150  LEU150      0.0270
    111  CG        45.4340    2.3030  -47.9390 C.3   150  LEU150      0.0019
    112  CD1       44.9520    2.1320  -46.5070 C.3   150  LEU150      0.0001
    113  CD2       45.1840    1.0420  -48.7550 C.3   150  LEU150      0.0001
    114  N         48.7850    5.2310  -45.4870 N.3   163  GLY163     -0.1210
    115  CA        48.1340    4.0900  -44.8710 C.3   163  GLY163      0.1956
    116  C         48.9980    3.1210  -44.0830 C.2   163  GLY163      0.2611
    117  O         48.4570    2.2810  -43.3590 O.2   163  GLY163     -0.2717
    118  N         50.3190    3.2100  -44.2250 N.am  164  ASP164     -0.1973
    119  CA        51.2410    2.3160  -43.5160 C.3   164  ASP164      0.1709
    120  C         52.4120    3.0690  -42.9000 C.2   164  ASP164      0.2293
    121  O         53.0310    3.9090  -43.5540 O.2   164  ASP164     -0.2864
    122  CB        51.7980    1.2420  -44.4570 C.3   164  ASP164      0.1436
    123  CG        52.7600    0.2840  -43.7500 C.2   164  ASP164      0.3671
    124  OD1       52.2900   -0.7320  -43.1930 O.co2 164  ASP164     -0.2456
    125  OD2       53.9850    0.5430  -43.7490 O.co2 164  ASP164     -0.2456
@<TRIPOS>BOND
     1    82    81    2
     2    86    84   ar
     3    81    80    1
     4    85    84   ar
     5    84    83    1
     6    87    88    1
     7    96    95    1
     8    73    72    2
     9    80    79    1
    10    80    83    1
    11    79    77   am
    12    75    76    1
    13    77    76    1
    14    77    78    2
    15    88    91    1
    16    88    89    1
    17    91    92    1
    18    72    71    1
    19    95    97    1
    20    95    94    2
    21    93    92    1
    22    93    94    1
    23    89    98   am
    24    89    90    2
    25    74    71    1
    26   108   109    2
    27   108   107    1
    28    71    70    1
    29    98    99    1
    30   107   106    1
    31   107   110    1
    32    70    64   am
    33    65    64    2
    34    64    63    1
    35   113   111    1
    36     3     2    1
    37     3     4    2
    38    99   100    1
    39    99   102    1
    40   100   101    2
    41   110   111    1
    42     8     6    1
    43     2     5    1
    44     2     1    1
    45    69    68    1
    46   111   112    1
    47   102   103    1
    48    66    63    1
    49    66    67    1
    50    63    62    1
    51   103   104    2
    52   103   105   am
    53     5     6    1
    54     6     7    1
    55    60    59    1
    56    68    67    1
    57    62    56   am
    58    57    56    2
    59    56    55    1
    60    61    59    1
    61    59    58    1
    62   114   115    1
    63    15    13    1
    64   115   116    1
    65    12    11    2
    66    58    55    1
    67    55    54    1
    68   122   123    1
    69   122   119    1
    70    36    34    1
    71   118   116   am
    72   118   119    1
    73    53    51   ar
    74   116   117    2
    75    13    14    1
    76    13    10    1
    77   123   125   ar
    78   123   124   ar
    79    11    10    1
    80   121   120    2
    81   119   120    1
    82     9    10    1
    83    48    47    2
    84    51    50    1
    85    51    52   ar
    86    54    47   am
    87    50    49    1
    88    20    17    1
    89    47    46    1
    90    34    31    1
    91    34    35    1
    92    30    31    1
    93    31    32    1
    94    17    16    1
    95    17    18    1
    96    49    46    1
    97    46    45    1
    98    32    33    2
    99    18    19    2
   100    40    39    2
   101    45    39   am
   102    43    42    1
   103    39    38    1
   104    41    42    1
   105    41    38    1
   106    42    44    1
   107    38    37    1
   108    26    27    1
   109    26    25    1
   110    28    27    1
   111    28    29    1
   112    22    21    1
   113    22    25    1
   114    22    23    1
   115    23    24    2
