@<TRIPOS>MOLECULE
tmp/4cnnB00.pdb
 134 123 0 0 0
SMALL
GASTEIGER

@<TRIPOS>ATOM
      1  N         12.4820   -7.6910   49.4470 N.3    20  SER20      -0.1217
      2  CA        11.7030   -7.8000   50.6660 C.3    20  SER20       0.1889
      3  C         11.8500   -9.1890   51.2680 C.2    20  SER20       0.2288
      4  O         11.6820  -10.1980   50.5860 O.2    20  SER20      -0.2866
      5  CB        10.2310   -7.4980   50.3920 C.3    20  SER20       0.2089
      6  OG        10.0800   -6.2570   49.7260 O.3    20  SER20      -0.2183
      7  N         10.2780  -11.7630   54.0290 N.3    22  MET22      -0.1245
      8  CA         8.8760  -11.9280   54.4620 C.3    22  MET22       0.1570
      9  C          8.5450  -13.1170   55.3900 C.2    22  MET22       0.2261
     10  O          7.4160  -13.6060   55.3540 O.2    22  MET22      -0.2867
     11  CB         7.9790  -12.0300   53.2210 C.3    22  MET22       0.0387
     12  CG         7.8540  -10.7460   52.4140 C.3    22  MET22       0.0595
     13  SD         6.8750  -10.9840   50.9210 S.3    22  MET22      -0.1393
     14  CE         6.6960   -9.2960   50.3520 C.3    22  MET22       0.0692
     15  N         14.6440   -4.8040   52.6100 N.3    45  GLU45      -0.1245
     16  CA        13.4270   -4.4150   53.3180 C.3    45  GLU45       0.1567
     17  C         12.8690   -5.6000   54.0870 C.2    45  GLU45       0.2260
     18  O         12.6370   -6.6550   53.5060 O.2    45  GLU45      -0.2867
     19  CB        12.3640   -3.9330   52.3460 C.3    45  GLU45       0.0388
     20  CG        11.0680   -3.5630   53.0420 C.3    45  GLU45       0.1160
     21  CD        10.0080   -3.1730   52.0600 C.2    45  GLU45       0.3649
     22  OE1        9.5820   -4.0590   51.2880 O.co2  45  GLU45      -0.2457
     23  OE2        9.6030   -2.0010   52.0740 O.co2  45  GLU45      -0.2457
     24  N          9.6220   -6.9130   55.5570 N.3    47  ARG47      -0.1245
     25  CA         8.1740   -6.7210   55.5540 C.3    47  ARG47       0.1563
     26  C          7.5840   -7.2980   56.8410 C.2    47  ARG47       0.2260
     27  O          7.2230   -8.4720   56.9360 O.2    47  ARG47      -0.2867
     28  CB         7.5380   -7.3000   54.2980 C.3    47  ARG47       0.0307
     29  CG         7.6460   -6.3690   53.0940 C.3    47  ARG47       0.0489
     30  CD         6.7380   -5.1500   53.2270 C.3    47  ARG47       0.2205
     31  NE         5.3340   -5.5420   53.3260 N.pl3  47  ARG47      -0.0865
     32  CZ         4.5460   -5.8100   52.2880 C.cat  47  ARG47       0.5346
     33  NH1        4.9960   -5.7000   51.0450 N.pl3  47  ARG47       0.1354
     34  NH2        3.2960   -6.2010   52.5040 N.pl3  47  ARG47       0.1354
     35  N          3.7100   -2.6910   56.3120 N.3    81  ARG81      -0.1245
     36  CA         2.7160   -2.2190   55.3640 C.3    81  ARG81       0.1563
     37  C          1.3500   -2.4270   55.9920 C.2    81  ARG81       0.2260
     38  O          0.9850   -3.5530   56.3120 O.2    81  ARG81      -0.2867
     39  CB         2.8420   -2.9810   54.0480 C.3    81  ARG81       0.0307
     40  CG         1.8670   -2.5490   52.9630 C.3    81  ARG81       0.0489
     41  CD         2.0780   -1.1240   52.4830 C.3    81  ARG81       0.2205
     42  NE         3.4400   -0.8910   51.9960 N.pl3  81  ARG81      -0.0865
     43  CZ         4.3200   -0.0350   52.5200 C.cat  81  ARG81       0.5346
     44  NH1        4.0230    0.7210   53.5750 N.pl3  81  ARG81       0.1354
     45  NH2        5.5170    0.0770   51.9660 N.pl3  81  ARG81       0.1354
     46  N          0.1270    4.2510   48.6750 N.3   142  HIS142     -0.1241
     47  CA        -0.2790    3.1880   47.7810 C.3   142  HIS142      0.1621
     48  C         -1.6910    3.3790   47.3160 C.2   142  HIS142      0.2264
     49  O         -2.5550    3.8210   48.0700 O.2   142  HIS142     -0.2867
     50  CB        -0.1920    1.8620   48.5080 C.3   142  HIS142      0.0745
     51  CG         1.1440    1.6440   49.1110 C.ar  142  HIS142      0.0817
     52  ND1        1.5320    2.2410   50.2900 N.ar  142  HIS142     -0.2268
     53  CD2        2.2230    0.9880   48.6390 C.ar  142  HIS142      0.1154
     54  CE1        2.7920    1.9330   50.5310 C.ar  142  HIS142      0.1986
     55  NE2        3.2320    1.1720   49.5470 N.ar  142  HIS142     -0.2212
     56  N         -3.8900    0.5180   45.5030 N.3   144  PHE144     -0.1241
     57  CA        -3.9310   -0.8350   44.9650 C.3   144  PHE144      0.1605
     58  C         -5.1330   -1.0820   44.0540 C.2   144  PHE144      0.2264
     59  O         -5.3030   -2.1950   43.5490 O.2   144  PHE144     -0.2867
     60  CB        -3.9290   -1.8660   46.1000 C.3   144  PHE144      0.0534
     61  CG        -2.5560   -2.2850   46.5290 C.ar  144  PHE144     -0.0203
     62  CD1       -1.8540   -1.5570   47.4780 C.ar  144  PHE144     -0.0042
     63  CD2       -1.9470   -3.3940   45.9580 C.ar  144  PHE144     -0.0042
     64  CE1       -0.5730   -1.9380   47.8630 C.ar  144  PHE144     -0.0003
     65  CE2       -0.6700   -3.7810   46.3360 C.ar  144  PHE144     -0.0003
     66  CZ         0.0180   -3.0530   47.2910 C.ar  144  PHE144     -0.0000
     67  N          7.7880    7.9430   48.3920 N.3   169  LYS169     -0.1245
     68  CA         7.5290    6.7230   47.6380 C.3   169  LYS169      0.1561
     69  C          6.0490    6.6090   47.3110 C.2   169  LYS169      0.2260
     70  O          5.2050    6.7360   48.1960 O.2   169  LYS169     -0.2867
     71  CB         7.9670    5.5080   48.4480 C.3   169  LYS169      0.0271
     72  CG         7.7460    4.1860   47.7350 C.3   169  LYS169      0.0035
     73  CD         7.5980    3.0620   48.7310 C.3   169  LYS169      0.0206
     74  CE         7.1110    1.8090   48.0490 C.3   169  LYS169      0.1093
     75  NZ         7.0430    0.7290   49.0590 N.3   169  LYS169     -0.1314
     76  N          3.3000    3.9660   45.0180 N.3   171  ALA171     -0.1245
     77  CA         3.0690    2.7670   44.2260 C.3   171  ALA171      0.1562
     78  C          1.5890    2.7060   43.9020 C.2   171  ALA171      0.2260
     79  O          0.7560    2.7640   44.8080 O.2   171  ALA171     -0.2867
     80  CB         3.4920    1.5380   45.0010 C.3   171  ALA171      0.0290
     81  N          6.4480    3.5590   41.3390 N.3   202  MET202     -0.1245
     82  CA         6.2020    2.3550   40.5590 C.3   202  MET202      0.1570
     83  C          4.7300    2.2380   40.2020 C.2   202  MET202      0.2261
     84  O          3.8450    2.6470   40.9660 O.2   202  MET202     -0.2867
     85  CB         6.6640    1.0990   41.3160 C.3   202  MET202      0.0387
     86  CG         6.1110    0.9330   42.7280 C.3   202  MET202      0.0595
     87  SD         7.0530    1.7150   44.0600 S.3   202  MET202     -0.1393
     88  CE         8.4220    0.5790   44.2520 C.3   202  MET202      0.0692
     89  N          2.3760   -0.8850   39.6520 N.3   204  MET204     -0.1245
     90  CA         2.4030   -2.2820   40.0580 C.3   204  MET204      0.1570
     91  C          1.8280   -3.1890   38.9610 C.2   204  MET204      0.2261
     92  O          1.5140   -2.7330   37.8560 O.2   204  MET204     -0.2867
     93  CB         1.6700   -2.4390   41.3930 C.3   204  MET204      0.0387
     94  CG         2.2740   -1.5920   42.5070 C.3   204  MET204      0.0595
     95  SD         1.5100   -1.8280   44.1290 S.3   204  MET204     -0.1393
     96  CE        -0.0340   -0.9360   43.9410 C.3   204  MET204      0.0692
     97  N          9.3770   -0.3970   36.6870 N.3   212  ARG212     -0.1245
     98  CA        10.3730   -0.9190   37.6080 C.3   212  ARG212      0.1563
     99  C         11.7450   -0.9840   36.9350 C.2   212  ARG212      0.2260
    100  O         12.7650   -1.1520   37.6130 O.2   212  ARG212     -0.2867
    101  CB         9.9530   -2.3060   38.0950 C.3   212  ARG212      0.0307
    102  CG         8.5970   -2.3490   38.7820 C.3   212  ARG212      0.0489
    103  CD         8.4180   -3.7000   39.4400 C.3   212  ARG212      0.2205
    104  NE         7.1040   -3.9300   40.0290 N.pl3 212  ARG212     -0.0865
    105  CZ         6.7720   -3.7330   41.3070 C.cat 212  ARG212      0.5346
    106  NH1        7.6350   -3.2130   42.1760 N.pl3 212  ARG212      0.1354
    107  NH2        5.5430   -4.0410   41.7150 N.pl3 212  ARG212      0.1354
    108  N         11.9840   -2.5950   43.2130 N.3   224  PHE224     -0.1241
    109  CA        11.8750   -3.8630   43.9380 C.3   224  PHE224      0.1605
    110  C         12.0040   -5.0620   43.0220 C.2   224  PHE224      0.2264
    111  O         11.3400   -5.1360   41.9810 O.2   224  PHE224     -0.2867
    112  CB        10.5310   -3.9490   44.6590 C.3   224  PHE224      0.0534
    113  CG        10.4850   -3.1570   45.9230 C.ar  224  PHE224     -0.0203
    114  CD1       10.3770   -1.7820   45.8830 C.ar  224  PHE224     -0.0042
    115  CD2       10.5710   -3.7870   47.1590 C.ar  224  PHE224     -0.0042
    116  CE1       10.3520   -1.0440   47.0550 C.ar  224  PHE224     -0.0003
    117  CE2       10.5420   -3.0560   48.3300 C.ar  224  PHE224     -0.0003
    118  CZ        10.4240   -1.6820   48.2790 C.ar  224  PHE224     -0.0000
    119  N          3.2140   -9.2400   41.9740 N.3   229  PRO229     -0.2116
    120  CA         3.3610   -9.1760   40.5260 C.3   229  PRO229      0.1372
    121  C          4.1680   -7.9680   40.0850 C.2   229  PRO229      0.2244
    122  O          4.0540   -6.8920   40.6710 O.2   229  PRO229     -0.2868
    123  CB         1.9160   -9.0740   40.0360 C.3   229  PRO229      0.0268
    124  CG         1.1360   -9.8020   41.0720 C.3   229  PRO229      0.0207
    125  CD         1.8170   -9.4840   42.3730 C.3   229  PRO229      0.0892
    126  N          7.3930   -7.6180   40.3280 N.3   231  GLN231     -0.1245
    127  CA         8.7140   -7.8250   40.8910 C.3   231  GLN231      0.1566
    128  C          9.3360   -9.0410   40.2300 C.2   231  GLN231      0.2260
    129  O          8.9570  -10.1820   40.5090 O.2   231  GLN231     -0.2867
    130  CB         8.6530   -8.0210   42.3990 C.3   231  GLN231      0.0367
    131  CG         8.1010   -6.8270   43.1540 C.3   231  GLN231      0.0905
    132  CD         8.2630   -6.9840   44.6510 C.2   231  GLN231      0.2608
    133  OE1        8.7960   -7.9880   45.1240 O.2   231  GLN231     -0.2717
    134  NE2        7.8170   -5.9900   45.4040 N.am  231  GLN231     -0.0878
@<TRIPOS>BOND
     1    97    98    1
     2    99    98    1
     3    99   100    2
     4    98   101    1
     5    92    91    2
     6   101   102    1
     7   102   103    1
     8    91    90    1
     9   103   104    1
    10    89    90    1
    11   104   105    2
    12   123   120    1
    13   123   124    1
    14    90    93    1
    15   121   120    1
    16   121   122    2
    17    83    82    1
    18    83    84    2
    19   128   129    2
    20   128   127    1
    21   126   127    1
    22   120   119    1
    23    82    85    1
    24    82    81    1
    25   127   130    1
    26   124   125    1
    27   105   107    1
    28   105   106    1
    29    85    86    1
    30    93    94    1
    31   119   125    1
    32   111   110    2
    33   130   131    1
    34    94    95    1
    35    86    87    1
    36   110   109    1
    37   131   132    1
    38   108   109    1
    39    59    58    2
    40    78    77    1
    41    78    79    2
    42   109   112    1
    43    96    95    1
    44    58    57    1
    45    87    88    1
    46    77    80    1
    47    77    76    1
    48   132   133    2
    49   132   134   am
    50   112   113    1
    51    57    56    1
    52    57    60    1
    53   114   113   ar
    54   114   116   ar
    55   113   115   ar
    56    63    65   ar
    57    63    61   ar
    58    60    61    1
    59    65    66   ar
    60    61    62   ar
    61   116   118   ar
    62   115   117   ar
    63    66    64   ar
    64    69    68    1
    65    69    70    2
    66    48    47    1
    67    48    49    2
    68    62    64   ar
    69    68    67    1
    70    68    71    1
    71    72    71    1
    72    72    73    1
    73    47    50    1
    74    47    46    1
    75    74    73    1
    76    74    75    1
    77   118   117   ar
    78    50    51    1
    79    53    51   ar
    80    53    55   ar
    81    51    52   ar
    82     1     2    1
    83    55    54   ar
    84     6     5    1
    85    52    54   ar
    86    14    13    1
    87     5     2    1
    88     4     3    2
    89     2     3    1
    90    13    12    1
    91    33    32    1
    92    22    21   ar
    93    45    43    1
    94    42    41    1
    95    42    43    2
    96    21    23   ar
    97    21    20    1
    98    32    34    1
    99    32    31    2
   100    19    20    1
   101    19    16    1
   102    12    11    1
   103    41    40    1
   104    43    44    1
   105    15    16    1
   106    40    39    1
   107    29    30    1
   108    29    28    1
   109    11     8    1
   110    30    31    1
   111    16    17    1
   112    18    17    2
   113     7     8    1
   114    39    36    1
   115    28    25    1
   116     8     9    1
   117    10     9    2
   118    36    37    1
   119    36    35    1
   120    25    24    1
   121    25    26    1
   122    37    38    2
   123    26    27    2
