@<TRIPOS>MOLECULE
tmp/4cnoC00.pdb
 127 116 0 0 0
SMALL
GASTEIGER

@<TRIPOS>ATOM
      1  N         32.4230   16.9610  -49.8760 N.3    21  SER21      -0.1217
      2  CA        33.6950   16.7570  -50.5660 C.3    21  SER21       0.1889
      3  C         34.7600   17.6150  -49.9450 C.2    21  SER21       0.2288
      4  O         34.6260   18.8480  -49.9050 O.2    21  SER21      -0.2866
      5  CB        33.5470   17.0820  -52.0420 C.3    21  SER21       0.2089
      6  OG        32.7340   16.1330  -52.6960 O.3    21  SER21      -0.2183
      7  N         38.4610   19.1180  -50.0500 N.3    23  MET23      -0.1245
      8  CA        39.5460   19.4770  -50.9640 C.3    23  MET23       0.1570
      9  C         40.6930   20.0920  -50.1860 C.2    23  MET23       0.2261
     10  O         40.4950   21.0570  -49.4500 O.2    23  MET23      -0.2867
     11  CB        39.0670   20.5090  -51.9930 C.3    23  MET23       0.0387
     12  CG        38.1910   19.9520  -53.0900 C.3    23  MET23       0.0595
     13  SD        36.5310   19.5730  -52.5280 S.3    23  MET23      -0.1393
     14  CE        35.8540   21.2310  -52.4370 C.3    23  MET23       0.0692
     15  N         33.8050   12.4320  -48.9010 N.3    46  GLU46      -0.1245
     16  CA        34.5890   12.2040  -50.1160 C.3    46  GLU46       0.1567
     17  C         35.8410   13.0330  -50.0260 C.2    46  GLU46       0.2260
     18  O         35.7480   14.2440  -49.8110 O.2    46  GLU46      -0.2867
     19  CB        33.8080   12.6320  -51.3480 C.3    46  GLU46       0.0388
     20  CG        34.5710   12.4310  -52.6440 C.3    46  GLU46       0.1160
     21  CD        33.8240   12.8910  -53.8660 C.2    46  GLU46       0.3649
     22  OE1       33.3130   14.0350  -53.8460 O.co2  46  GLU46      -0.2457
     23  OE2       33.7580   12.1320  -54.8630 O.co2  46  GLU46      -0.2457
     24  N         38.6890   14.5490  -52.1890 N.3    48  ARG48      -0.1245
     25  CA        38.8660   14.8120  -53.5820 C.3    48  ARG48       0.1563
     26  C         40.3640   14.8570  -53.8080 C.2    48  ARG48       0.2260
     27  O         40.9970   15.9020  -53.6990 O.2    48  ARG48      -0.2867
     28  CB        38.1510   16.0980  -54.0090 C.3    48  ARG48       0.0307
     29  CG        36.7070   15.8490  -54.4280 C.3    48  ARG48       0.0489
     30  CD        36.5940   15.0380  -55.7230 C.3    48  ARG48       0.2205
     31  NE        37.1580   15.7530  -56.8680 N.pl3  48  ARG48      -0.0865
     32  CZ        36.5310   16.7150  -57.5410 C.cat  48  ARG48       0.5346
     33  NH1       35.2760   17.0250  -57.2530 N.pl3  48  ARG48       0.1354
     34  NH2       37.1460   17.3220  -58.5530 N.pl3  48  ARG48       0.1354
     35  N         39.2780   12.5790  -59.2600 N.3    82  ARG82      -0.1245
     36  CA        38.4710   12.9260  -60.4180 C.3    82  ARG82       0.1563
     37  C         39.4260   13.4430  -61.4860 C.2    82  ARG82       0.2260
     38  O         40.2050   14.3560  -61.2110 O.2    82  ARG82      -0.2867
     39  CB        37.4770   14.0350  -60.0670 C.3    82  ARG82       0.0307
     40  CG        36.6560   14.5410  -61.2490 C.3    82  ARG82       0.0489
     41  CD        35.6080   13.5270  -61.6590 C.3    82  ARG82       0.2205
     42  NE        34.8920   13.0440  -60.4910 N.pl3  82  ARG82      -0.0865
     43  CZ        34.9150   11.8010  -59.9960 C.cat  82  ARG82       0.5346
     44  NH1       35.6410   10.8200  -60.5520 N.pl3  82  ARG82       0.1354
     45  NH2       34.1750   11.5380  -58.9130 N.pl3  82  ARG82       0.1354
     46  N         31.0150   11.4550  -65.4490 N.3   143  HIS143     -0.1241
     47  CA        30.5690   12.8330  -65.4160 C.3   143  HIS143      0.1621
     48  C         30.6960   13.4680  -66.7680 C.2   143  HIS143      0.2264
     49  O         31.6890   13.2470  -67.4600 O.2   143  HIS143     -0.2867
     50  CB        31.4420   13.6350  -64.4840 C.3   143  HIS143      0.0745
     51  CG        31.7500   12.9180  -63.2250 C.ar  143  HIS143      0.0817
     52  ND1       32.7380   11.9620  -63.1400 N.ar  143  HIS143     -0.2268
     53  CD2       31.1560   12.9590  -62.0160 C.ar  143  HIS143      0.1154
     54  CE1       32.7640   11.4690  -61.9180 C.ar  143  HIS143      0.1986
     55  NE2       31.8200   12.0660  -61.2140 N.ar  143  HIS143     -0.2212
     56  N         27.3070    5.6770  -60.5100 N.3   170  LYS170     -0.1245
     57  CA        27.0980    7.1140  -60.3210 C.3   170  LYS170      0.1561
     58  C         27.2500    7.8540  -61.6270 C.2   170  LYS170      0.2260
     59  O         28.2520    7.6660  -62.3250 O.2   170  LYS170     -0.2867
     60  CB        28.1310    7.6740  -59.3560 C.3   170  LYS170      0.0271
     61  CG        28.0530    9.1980  -59.1630 C.3   170  LYS170      0.0035
     62  CD        29.3700    9.7870  -58.6980 C.3   170  LYS170      0.0206
     63  CE        29.3730   11.3200  -58.7870 C.3   170  LYS170      0.1093
     64  NZ        30.7260   11.8650  -58.4860 N.3   170  LYS170     -0.1314
     65  N         26.8490   12.0170  -63.2060 N.3   172  ALA172     -0.1245
     66  CA        26.5750   13.4480  -63.0310 C.3   172  ALA172      0.1562
     67  C         26.7120   14.2000  -64.3580 C.2   172  ALA172      0.2260
     68  O         27.7580   14.1120  -65.0080 O.2   172  ALA172     -0.2867
     69  CB        27.5330   14.0300  -62.0110 C.3   172  ALA172      0.0290
     70  N         22.8920   12.8420  -60.6260 N.3   203  MET203     -0.1245
     71  CA        22.7330   14.2770  -60.3810 C.3   203  MET203      0.1570
     72  C         22.8070   15.1090  -61.6540 C.2   203  MET203      0.2261
     73  O         23.5420   14.7900  -62.5830 O.2   203  MET203     -0.2867
     74  CB        23.7960   14.7650  -59.3990 C.3   203  MET203      0.0387
     75  CG        23.5830   16.1870  -58.8690 C.3   203  MET203      0.0595
     76  SD        24.7710   16.7130  -57.6190 S.3   203  MET203     -0.1393
     77  CE        24.1460   15.8610  -56.1740 C.3   203  MET203      0.0692
     78  N         23.7810   18.8490  -62.6760 N.3   205  MET205     -0.1245
     79  CA        24.6060   19.9070  -62.1200 C.3   205  MET205      0.1570
     80  C         23.9430   21.2760  -62.1450 C.2   205  MET205      0.2261
     81  O         22.8720   21.4750  -62.7300 O.2   205  MET205     -0.2867
     82  CB        25.9100   19.9970  -62.9170 C.3   205  MET205      0.0387
     83  CG        26.7170   18.7000  -62.9530 C.3   205  MET205      0.0595
     84  SD        28.2830   18.8340  -63.8350 S.3   205  MET205     -0.1393
     85  CE        28.7430   17.1000  -63.9670 C.3   205  MET205      0.0692
     86  N         19.0990   17.0760  -56.6360 N.3   213  ARG213     -0.1245
     87  CA        19.7810   16.8500  -55.3490 C.3   213  ARG213      0.1563
     88  C         18.7930   16.6530  -54.2010 C.2   213  ARG213      0.2260
     89  O         19.1750   16.2070  -53.1060 O.2   213  ARG213     -0.2867
     90  CB        20.6850   18.0250  -55.0000 C.3   213  ARG213      0.0307
     91  CG        21.7500   18.2890  -56.0260 C.3   213  ARG213      0.0489
     92  CD        22.7260   19.3230  -55.5120 C.3   213  ARG213      0.2205
     93  NE        23.5570   19.8370  -56.5920 N.pl3 213  ARG213     -0.0865
     94  CZ        24.8840   19.9190  -56.5690 C.cat 213  ARG213      0.5346
     95  NH1       25.5750   19.5300  -55.5000 N.pl3 213  ARG213      0.1354
     96  NH2       25.5350   20.4130  -57.6170 N.pl3 213  ARG213      0.1354
     97  N         25.0920   15.4160  -52.9150 N.3   225  PHE225     -0.1227
     98  CA        26.3030   16.0890  -52.5070 C.3   225  PHE225      0.1736
     99  C         25.9130   17.4060  -51.8770 C.2   225  PHE225      0.2596
    100  O         25.1070   18.1340  -52.4400 O.2   225  PHE225     -0.2718
    101  CB        27.2090   16.3430  -53.6970 C.3   225  PHE225      0.0547
    102  CG        27.9340   15.1210  -54.1690 C.ar  225  PHE225     -0.0202
    103  CD1       27.3460   14.2750  -55.0890 C.ar  225  PHE225     -0.0042
    104  CD2       29.2010   14.8300  -53.7080 C.ar  225  PHE225     -0.0042
    105  CE1       28.0020   13.1300  -55.5300 C.ar  225  PHE225     -0.0003
    106  CE2       29.8700   13.6950  -54.1500 C.ar  225  PHE225     -0.0003
    107  CZ        29.2760   12.8530  -55.0700 C.ar  225  PHE225     -0.0000
    108  N         26.4850   17.6880  -50.7140 N.am  226  GLY226     -0.1957
    109  CA        26.1190   18.8590  -49.9170 C.3   226  GLY226      0.1869
    110  C         27.3600   19.6140  -49.4960 C.2   226  GLY226      0.2309
    111  O         28.4520   19.0530  -49.4370 O.2   226  GLY226     -0.2863
    112  N         27.0260   27.5880  -58.0870 N.3   230  PRO230     -0.2116
    113  CA        25.5990   27.3220  -58.2290 C.3   230  PRO230      0.1372
    114  C         25.2470   25.8480  -58.0640 C.2   230  PRO230      0.2244
    115  O         26.0010   24.9780  -58.5030 O.2   230  PRO230     -0.2868
    116  CB        25.3050   27.7970  -59.6550 C.3   230  PRO230      0.0268
    117  CG        26.2620   28.9210  -59.8620 C.3   230  PRO230      0.0207
    118  CD        27.4970   28.5810  -59.0750 C.3   230  PRO230      0.0892
    119  N         25.0490   24.2400  -55.2090 N.3   232  GLN232     -0.1245
    120  CA        25.5260   23.7370  -53.9260 C.3   232  GLN232      0.1566
    121  C         24.5630   24.1340  -52.8240 C.2   232  GLN232      0.2260
    122  O         24.2080   25.3060  -52.6980 O.2   232  GLN232     -0.2867
    123  CB        26.9420   24.2320  -53.6280 C.3   232  GLN232      0.0367
    124  CG        28.0000   23.3840  -54.3100 C.3   232  GLN232      0.0905
    125  CD        29.3900   23.9870  -54.2650 C.2   232  GLN232      0.2608
    126  OE1       29.5930   25.0950  -53.7630 O.2   232  GLN232     -0.2717
    127  NE2       30.3590   23.2600  -54.8100 N.am  232  GLN232     -0.0878
@<TRIPOS>BOND
     1    49    48    2
     2    48    47    1
     3    46    47    1
     4    47    50    1
     5    68    67    2
     6    50    51    1
     7    67    66    1
     8    85    84    1
     9    84    83    1
    10    51    52   ar
    11    51    53   ar
    12    65    66    1
    13    52    54   ar
    14    66    69    1
    15    83    82    1
    16    82    79    1
    17    81    80    2
    18    78    79    1
    19    73    72    2
    20    59    58    2
    21    80    79    1
    22    53    55   ar
    23    54    55   ar
    24    41    40    1
    25    41    42    1
    26    72    71    1
    27    58    57    1
    28    37    38    2
    29    37    36    1
    30    40    39    1
    31    70    71    1
    32    44    43    1
    33    56    57    1
    34    42    43    2
    35    36    39    1
    36    36    35    1
    37    71    74    1
    38    57    60    1
    39    43    45    1
    40   117   116    1
    41   117   118    1
    42   116   113    1
    43    74    75    1
    44    60    61    1
    45    61    62    1
    46   118   112    1
    47    75    76    1
    48    63    62    1
    49    63    64    1
    50    34    32    1
    51   115   114    2
    52   113   112    1
    53   113   114    1
    54    76    77    1
    55    96    94    1
    56    32    33    1
    57    32    31    2
    58    31    30    1
    59    86    87    1
    60    93    94    2
    61    93    92    1
    62    94    95    1
    63    91    92    1
    64    91    90    1
    65    30    29    1
    66   105   103   ar
    67   105   107   ar
    68    87    90    1
    69    87    88    1
    70   119   120    1
    71   103   102   ar
    72   107   106   ar
    73    23    21   ar
    74   127   125   am
    75    29    28    1
    76   124   125    1
    77   124   123    1
    78   125   126    2
    79    88    89    2
    80   102   104   ar
    81   102   101    1
    82   106   104   ar
    83    28    25    1
    84   120   123    1
    85   120   121    1
    86    21    22   ar
    87    21    20    1
    88    26    27    2
    89    26    25    1
    90   101    98    1
    91    25    24    1
    92    12    13    1
    93    12    11    1
    94    97    98    1
    95   121   122    2
    96     6     5    1
    97    20    19    1
    98    13    14    1
    99    98    99    1
   100   100    99    2
   101     5     2    1
   102    11     8    1
   103    99   108   am
   104    19    16    1
   105     8     9    1
   106     8     7    1
   107   108   109    1
   108     2     3    1
   109     2     1    1
   110     9    10    2
   111    16    17    1
   112    16    15    1
   113    17    18    2
   114     3     4    2
   115   109   110    1
   116   110   111    2
