@<TRIPOS>MOLECULE
tmp/4cnpA00.pdb
 145 132 0 0 0
SMALL
GASTEIGER

@<TRIPOS>ATOM
      1  N         21.2900   -3.6030   10.8320 N.3    21  SER21      -0.1217
      2  CA        21.5910   -2.9880    9.5550 C.3    21  SER21       0.1889
      3  C         22.9880   -3.3230    9.0690 C.2    21  SER21       0.2288
      4  O         23.9490   -3.2430    9.8300 O.2    21  SER21      -0.2866
      5  CB        21.4950   -1.4670    9.6480 C.3    21  SER21       0.2089
      6  OG        20.2490   -1.0610   10.1570 O.3    21  SER21      -0.2183
      7  N         18.4920   -5.5700    7.5950 N.3    46  GLU46      -0.1245
      8  CA        18.2730   -4.3950    6.7730 C.3    46  GLU46       0.1567
      9  C         19.5590   -4.0340    6.0420 C.2    46  GLU46       0.2260
     10  O         20.6070   -3.8820    6.6810 O.2    46  GLU46      -0.2867
     11  CB        17.8620   -3.1980    7.6300 C.3    46  GLU46       0.0388
     12  CG        17.6860   -1.9210    6.8220 C.3    46  GLU46       0.1160
     13  CD        17.3750   -0.7190    7.6870 C.2    46  GLU46       0.3649
     14  OE1       18.1830   -0.4090    8.5850 O.co2  46  GLU46      -0.2457
     15  OE2       16.3310   -0.0720    7.4490 O.co2  46  GLU46      -0.2457
     16  N         21.3060   -1.0640    4.4340 N.3    48  ARG48      -0.1245
     17  CA        21.2980    0.3870    4.2970 C.3    48  ARG48       0.1563
     18  C         22.0580    0.7960    3.0430 C.2    48  ARG48       0.2260
     19  O         23.2750    1.0070    3.0390 O.2    48  ARG48      -0.2867
     20  CB        21.8530    1.0620    5.5500 C.3    48  ARG48       0.0307
     21  CG        20.8400    1.1380    6.6950 C.3    48  ARG48       0.0489
     22  CD        19.7250    2.1400    6.4290 C.3    48  ARG48       0.2205
     23  NE        20.2650    3.4810    6.2960 N.pl3  48  ARG48      -0.0865
     24  CZ        20.5850    4.2740    7.3100 C.cat  48  ARG48       0.5346
     25  NH1       20.3550    3.9270    8.5710 N.pl3  48  ARG48       0.1354
     26  NH2       21.1310    5.4440    7.0610 N.pl3  48  ARG48       0.1354
     27  N         16.6590   -0.8150    2.2560 N.3    80  THR80      -0.1218
     28  CA        16.4100    0.5420    2.7220 C.3    80  THR80       0.1862
     29  C         17.4150    1.5330    2.1740 C.2    80  THR80       0.2287
     30  O         18.5750    1.5190    2.5640 O.2    80  THR80      -0.2866
     31  CB        16.4780    0.6360    4.2520 C.3    80  THR80       0.1770
     32  OG1       15.5170   -0.2420    4.8200 O.3    80  THR80      -0.2211
     33  CG2       16.2380    2.0710    4.7250 C.3    80  THR80       0.0375
     34  N         17.9390    5.1400    2.8340 N.3    82  ARG82      -0.1245
     35  CA        17.5240    6.2460    3.6820 C.3    82  ARG82       0.1563
     36  C         18.0370    7.5280    3.0330 C.2    82  ARG82       0.2260
     37  O         19.2490    7.7140    2.9000 O.2    82  ARG82      -0.2867
     38  CB        18.0840    6.0980    5.0980 C.3    82  ARG82       0.0307
     39  CG        17.6580    7.2060    6.0500 C.3    82  ARG82       0.0489
     40  CD        16.1740    7.1950    6.3620 C.3    82  ARG82       0.2205
     41  NE        15.7160    5.9180    6.9030 N.pl3  82  ARG82      -0.0865
     42  CZ        14.7810    5.1330    6.3630 C.cat  82  ARG82       0.5346
     43  NH1       14.1740    5.4500    5.2220 N.pl3  82  ARG82       0.1354
     44  NH2       14.4530    4.0000    6.9670 N.pl3  82  ARG82       0.1354
     45  N         11.8100   -0.4380    2.3610 N.3   114  ASP114     -0.1239
     46  CA        11.4820    0.7670    3.0850 C.3   114  ASP114      0.1674
     47  C         11.1490    1.8460    2.0670 C.2   114  ASP114      0.2266
     48  O         11.9040    2.0880    1.1150 O.2   114  ASP114     -0.2867
     49  CB        12.6900    1.1950    3.9240 C.3   114  ASP114      0.1410
     50  CG        12.4240    2.3880    4.8030 C.2   114  ASP114      0.3668
     51  OD1       12.2930    3.5140    4.2690 O.co2 114  ASP114     -0.2456
     52  OD2       12.3940    2.2110    6.0380 O.co2 114  ASP114     -0.2456
     53  N         11.0270    9.9620    9.4140 N.3   143  HIS143     -0.1241
     54  CA        12.0340   10.2640   10.4260 C.3   143  HIS143      0.1621
     55  C         12.1060   11.7380   10.6670 C.2   143  HIS143      0.2264
     56  O         11.9910   12.5380    9.7480 O.2   143  HIS143     -0.2867
     57  CB        13.3950    9.7640    9.9880 C.3   143  HIS143      0.0745
     58  CG        13.3410    8.3970    9.4180 C.ar  143  HIS143      0.0817
     59  ND1       12.8390    8.1540    8.1620 N.ar  143  HIS143     -0.2268
     60  CD2       13.6510    7.1910    9.9430 C.ar  143  HIS143      0.1154
     61  CE1       12.8650    6.8590    7.9260 C.ar  143  HIS143      0.1986
     62  NE2       13.3510    6.2530    8.9920 N.ar  143  HIS143     -0.2212
     63  N         15.0310   13.7210   12.5980 N.3   145  PHE145     -0.1241
     64  CA        16.2920   13.6410   13.3250 C.3   145  PHE145      0.1605
     65  C         16.5770   14.8380   14.2070 C.2   145  PHE145      0.2264
     66  O         17.5880   14.8650   14.9020 O.2   145  PHE145     -0.2867
     67  CB        17.4500   13.4160   12.3450 C.3   145  PHE145      0.0534
     68  CG        17.6760   11.9810   12.0370 C.ar  145  PHE145     -0.0203
     69  CD1       16.8610   11.3190   11.1300 C.ar  145  PHE145     -0.0042
     70  CD2       18.6560   11.2630   12.7060 C.ar  145  PHE145     -0.0042
     71  CE1       17.0440    9.9690   10.8680 C.ar  145  PHE145     -0.0003
     72  CE2       18.8470    9.9180   12.4430 C.ar  145  PHE145     -0.0003
     73  CZ        18.0380    9.2720   11.5260 C.ar  145  PHE145     -0.0000
     74  N          6.1490    3.0470   10.0440 N.3   170  LYS170     -0.1245
     75  CA         7.3040    3.2330   10.8920 C.3   170  LYS170      0.1561
     76  C          7.6110    4.7130   11.0690 C.2   170  LYS170      0.2260
     77  O          7.7010    5.4640   10.1010 O.2   170  LYS170     -0.2867
     78  CB         8.5190    2.5060   10.3250 C.3   170  LYS170      0.0271
     79  CG         9.7930    2.8900   11.0400 C.3   170  LYS170      0.0035
     80  CD        11.0050    2.2150   10.4730 C.3   170  LYS170      0.0206
     81  CE        12.1590    2.8090   11.2180 C.3   170  LYS170      0.1093
     82  NZ        12.3880    4.1210   10.5850 N.3   170  LYS170     -0.1314
     83  N         10.3370    7.3370   13.3890 N.3   172  ALA172     -0.1245
     84  CA        11.4800    7.5390   14.2770 C.3   172  ALA172      0.1562
     85  C         11.6660    9.0290   14.4740 C.2   172  ALA172      0.2260
     86  O         11.7290    9.7800   13.5140 O.2   172  ALA172     -0.2867
     87  CB        12.7530    6.9370   13.7010 C.3   172  ALA172      0.0290
     88  N         10.0720    4.5620   17.3250 N.3   203  MET203     -0.1245
     89  CA        11.2200    4.7500   18.2050 C.3   203  MET203      0.1570
     90  C         11.5000    6.2180   18.4350 C.2   203  MET203      0.2261
     91  O         11.2960    7.0520   17.5570 O.2   203  MET203     -0.2867
     92  CB        12.4870    4.0580   17.6820 C.3   203  MET203      0.0387
     93  CG        12.9100    4.4730   16.2800 C.3   203  MET203      0.0595
     94  SD        12.1110    3.5080   14.9670 S.3   203  MET203     -0.1393
     95  CE        13.0040    1.9670   15.0580 C.3   203  MET203      0.0692
     96  N         14.7750    8.3160   19.2800 N.3   205  MET205     -0.1245
     97  CA        16.1890    8.1040   19.0570 C.3   205  MET205      0.1570
     98  C         17.0410    8.5640   20.2490 C.2   205  MET205      0.2261
     99  O         16.5320    9.1030   21.2400 O.2   205  MET205     -0.2867
    100  CB        16.6610    8.9200   17.8400 C.3   205  MET205      0.0387
    101  CG        15.9490    8.7050   16.5140 C.3   205  MET205      0.0595
    102  SD        16.4280    9.9930   15.3360 S.3   205  MET205     -0.1393
    103  CE        15.3070    9.6650   13.9840 C.3   205  MET205      0.0692
    104  N         13.0910    1.6440   22.5480 N.3   213  ARG213     -0.1245
    105  CA        13.6270    0.5120   21.7970 C.3   213  ARG213      0.1563
    106  C         13.4610   -0.7950   22.5730 C.2   213  ARG213      0.2260
    107  O         13.5950   -1.8820   22.0020 O.2   213  ARG213     -0.2867
    108  CB        15.0900    0.7950   21.4350 C.3   213  ARG213      0.0307
    109  CG        15.2900    2.0840   20.6430 C.3   213  ARG213      0.0489
    110  CD        16.7030    2.1450   20.0900 C.3   213  ARG213      0.2205
    111  NE        17.0170    3.3340   19.3060 N.pl3 213  ARG213     -0.0865
    112  CZ        16.8550    3.4410   17.9880 C.cat 213  ARG213      0.5346
    113  NH1       16.3160    2.4470   17.2760 N.pl3 213  ARG213      0.1354
    114  NH2       17.2290    4.5680   17.3830 N.pl3 213  ARG213      0.1354
    115  N         15.5780   -1.8480   16.4400 N.3   225  PHE225     -0.1241
    116  CA        16.8910   -1.9300   15.8280 C.3   225  PHE225      0.1605
    117  C         17.9540   -2.0690   16.8950 C.2   225  PHE225      0.2264
    118  O         17.9610   -1.3210   17.8710 O.2   225  PHE225     -0.2867
    119  CB        17.1620   -0.6780   14.9940 C.3   225  PHE225      0.0534
    120  CG        16.3490   -0.6020   13.7260 C.ar  225  PHE225     -0.0203
    121  CD1       14.9980   -0.2850   13.7750 C.ar  225  PHE225     -0.0042
    122  CD2       16.9240   -0.8670   12.4870 C.ar  225  PHE225     -0.0042
    123  CE1       14.2350   -0.2180   12.6230 C.ar  225  PHE225     -0.0003
    124  CE2       16.1670   -0.8000   11.3270 C.ar  225  PHE225     -0.0003
    125  CZ        14.8230   -0.4770   11.3990 C.ar  225  PHE225     -0.0000
    126  N         23.1980    2.0410   13.3300 N.3   232  SER232     -0.1202
    127  CA        22.7260    2.6800   12.0980 C.3   232  SER232      0.2020
    128  C         21.8310    3.8970   12.3590 C.2   232  SER232      0.2618
    129  O         21.4110    4.5750   11.4140 O.2   232  SER232     -0.2717
    130  CB        22.0050    1.6650   11.2170 C.3   232  SER232      0.2103
    131  OG        20.9760    1.0150   11.9420 O.3   232  SER232     -0.2182
    132  N         21.5360    4.1570   13.6330 N.am  233  ALA233     -0.1979
    133  CA        20.8570    5.3750   14.0660 C.3   233  ALA233      0.1597
    134  C         21.1600    5.5890   15.5350 C.2   233  ALA233      0.2287
    135  O         21.4140    4.6210   16.2580 O.2   233  ALA233     -0.2864
    136  CB        19.3640    5.2760   13.8570 C.3   233  ALA233      0.0319
    137  N         20.6030    3.0680   19.2820 N.3   236  GLN236     -0.1245
    138  CA        20.5950    1.6040   19.2000 C.3   236  GLN236      0.1566
    139  C         21.6510    1.0610   20.1400 C.2   236  GLN236      0.2260
    140  O         22.7460    1.6270   20.2290 O.2   236  GLN236     -0.2867
    141  CB        20.9080    1.1240   17.7880 C.3   236  GLN236      0.0367
    142  CG        19.8870    1.5110   16.7440 C.3   236  GLN236      0.0905
    143  CD        20.3560    1.2300   15.3380 C.2   236  GLN236      0.2608
    144  OE1       21.4530    0.7090   15.1300 O.2   236  GLN236     -0.2717
    145  NE2       19.5230    1.5730   14.3550 N.am  236  GLN236     -0.0878
@<TRIPOS>BOND
     1    48    47    2
     2    47    46    1
     3    29    30    2
     4    29    28    1
     5    27    28    1
     6    45    46    1
     7    28    31    1
     8    34    35    1
     9    37    36    2
    10    36    35    1
    11    19    18    2
    12    18    17    1
    13    46    49    1
    14    35    38    1
    15    49    50    1
    16    31    33    1
    17    31    32    1
    18    51    50   ar
    19    17    16    1
    20    17    20    1
    21    50    52   ar
    22    38    39    1
    23    43    42    1
    24    20    21    1
    25     9    10    2
    26     9     8    1
    27    39    40    1
    28    23    22    1
    29    23    24    2
    30    40    41    1
    31    42    41    2
    32    42    44    1
    33    22    21    1
    34     8     7    1
    35     8    11    1
    36    12    11    1
    37    12    13    1
    38    26    24    1
    39    24    25    1
    40    15    13   ar
    41    13    14   ar
    42    61    59   ar
    43    61    62   ar
    44    59    58   ar
    45    62    60   ar
    46     3     2    1
    47     3     4    2
    48    53    54    1
    49    58    60   ar
    50    58    57    1
    51     2     5    1
    52     2     1    1
    53     5     6    1
    54    56    55    2
    55    57    54    1
    56    74    75    1
    57    77    76    2
    58    78    75    1
    59    78    79    1
    60    54    55    1
    61    80    79    1
    62    80    81    1
    63    82    81    1
    64    71    69   ar
    65    71    73   ar
    66    75    76    1
    67    69    68   ar
    68   130   131    1
    69   130   127    1
    70   124   125   ar
    71   124   122   ar
    72   125   123   ar
    73   129   128    2
    74    73    72   ar
    75    68    67    1
    76    68    70   ar
    77   127   128    1
    78   127   126    1
    79    67    64    1
    80   128   132   am
    81    72    70   ar
    82   122   120   ar
    83    63    64    1
    84   123   121   ar
    85    64    65    1
    86    83    84    1
    87    86    85    2
    88   132   133    1
    89    87    84    1
    90   120   121   ar
    91   120   119    1
    92   136   133    1
    93   103   102    1
    94   133   134    1
    95    65    66    2
    96    84    85    1
    97   145   143   am
    98    94    95    1
    99    94    93    1
   100   119   116    1
   101   144   143    2
   102   102   101    1
   103   143   142    1
   104   134   135    2
   105   116   115    1
   106   116   117    1
   107    93    92    1
   108   101   100    1
   109   142   141    1
   110   117   118    2
   111   113   112    1
   112    88    89    1
   113   114   112    1
   114    91    90    2
   115    92    89    1
   116   141   138    1
   117   100    97    1
   118   112   111    2
   119    89    90    1
   120    97    96    1
   121    97    98    1
   122   138   137    1
   123   138   139    1
   124   111   110    1
   125   110   109    1
   126   139   140    2
   127    98    99    2
   128   109   108    1
   129   108   105    1
   130   105   104    1
   131   105   106    1
   132   107   106    2
