@<TRIPOS>MOLECULE
tmp/4cnqB00.pdb
 69 63 0 0 0
SMALL
GASTEIGER

@<TRIPOS>ATOM
      1  N         22.9930   55.4540   60.7570 N.3    56  GLY56      -0.1210
      2  CA        22.2590   54.3180   61.3130 C.3    56  GLY56       0.1956
      3  C         21.1890   53.7310   60.4030 C.2    56  GLY56       0.2611
      4  O         20.9160   52.5290   60.4520 O.2    56  GLY56      -0.2717
      5  N         20.5660   54.5910   59.6030 N.am   57  GLU57      -0.1979
      6  CA        19.6190   54.1680   58.5720 C.3    57  GLU57       0.1602
      7  C         20.3240   53.3320   57.5010 C.2    57  GLU57       0.2287
      8  O         19.8200   52.2820   57.0900 O.2    57  GLU57      -0.2864
      9  CB        18.9610   55.4020   57.9690 C.3    57  GLU57       0.0415
     10  CG        17.7650   55.1450   57.0760 C.3    57  GLU57       0.1163
     11  CD        17.0920   56.4350   56.6300 C.2    57  GLU57       0.3649
     12  OE1       16.9190   57.3450   57.4820 O.co2  57  GLU57      -0.2457
     13  OE2       16.7440   56.5320   55.4280 O.co2  57  GLU57      -0.2457
     14  N         23.1410   51.7080   58.0550 N.3    59  ALA59      -0.1231
     15  CA        23.5340   50.4910   58.7810 C.3    59  ALA59       0.1694
     16  C         22.4290   49.4370   58.7420 C.2    59  ALA59       0.2591
     17  O         22.6880   48.2550   58.4930 O.2    59  ALA59      -0.2718
     18  CB        23.9040   50.8240   60.2310 C.3    59  ALA59       0.0304
     19  N         21.2010   49.8790   58.9760 N.am   60  ALA60      -0.1980
     20  CA        20.0550   48.9710   59.0080 C.3    60  ALA60       0.1597
     21  C         19.7930   48.3990   57.6270 C.2    60  ALA60       0.2287
     22  O         19.5870   47.1960   57.4770 O.2    60  ALA60      -0.2864
     23  CB        18.8300   49.6910   59.5340 C.3    60  ALA60       0.0319
     24  N         16.6620   44.2190   63.9930 N.3    79  ILE79      -0.1245
     25  CA        17.0210   45.5990   63.6290 C.3    79  ILE79       0.1561
     26  C         17.0980   46.5010   64.8660 C.2    79  ILE79       0.2260
     27  O         17.9650   47.3680   64.9470 O.2    79  ILE79      -0.2867
     28  CB        16.0700   46.1750   62.5460 C.3    79  ILE79       0.0252
     29  CG1       16.2040   45.3990   61.2160 C.3    79  ILE79       0.0019
     30  CG2       16.2590   47.6830   62.3610 C.3    79  ILE79       0.0019
     31  CD1       17.6140   45.1810   60.7050 C.3    79  ILE79       0.0001
     32  N         20.3330   45.5500   66.5610 N.3    82  LEU82      -0.1231
     33  CA        21.4350   46.1790   65.8360 C.3    82  LEU82       0.1693
     34  C         21.6200   47.6090   66.3310 C.2    82  LEU82       0.2591
     35  O         22.7480   48.0310   66.6250 O.2    82  LEU82      -0.2718
     36  CB        21.2120   46.1440   64.3100 C.3    82  LEU82       0.0284
     37  CG        22.2570   46.8830   63.4660 C.3    82  LEU82       0.0019
     38  CD1       23.6020   46.1660   63.5100 C.3    82  LEU82       0.0001
     39  CD2       21.7770   47.0280   62.0260 C.3    82  LEU82       0.0001
     40  N         20.5160   48.3400   66.4430 N.am   83  LYS83      -0.1980
     41  CA        20.5500   49.7190   66.9370 C.3    83  LYS83       0.1596
     42  C         21.0970   49.8040   68.3550 C.2    83  LYS83       0.2287
     43  O         21.8930   50.6840   68.6590 O.2    83  LYS83      -0.2864
     44  CB        19.1610   50.3580   66.8960 C.3    83  LYS83       0.0298
     45  CG        19.1390   51.7800   67.4410 C.3    83  LYS83       0.0038
     46  CD        17.7590   52.4110   67.3320 C.3    83  LYS83       0.0206
     47  CE        17.8240   53.9240   67.4630 C.3    83  LYS83       0.1093
     48  NZ        16.4620   54.5330   67.3980 N.3    83  LYS83      -0.1314
     49  N         24.9450   48.9410   68.1800 N.3    86  LEU86      -0.1231
     50  CA        25.7170   49.9420   67.4350 C.3    86  LEU86       0.1693
     51  C         25.8570   51.2510   68.2130 C.2    86  LEU86       0.2592
     52  O         26.8960   51.9330   68.1170 O.2    86  LEU86      -0.2718
     53  CB        25.0980   50.1880   66.0530 C.3    86  LEU86       0.0284
     54  CG        25.7840   51.0920   65.0220 C.3    86  LEU86       0.0019
     55  CD1       27.2390   50.7050   64.8160 C.3    86  LEU86       0.0001
     56  CD2       25.0260   51.0110   63.7060 C.3    86  LEU86       0.0001
     57  N         24.8340   51.5920   68.9980 N.am   87  THR87      -0.1953
     58  CA        24.8600   52.8390   69.7620 C.3    87  THR87       0.1897
     59  C         25.3890   52.6490   71.1930 C.2    87  THR87       0.2313
     60  O         25.4000   53.5970   71.9710 O.2    87  THR87      -0.2863
     61  CB        23.4760   53.5230   69.7970 C.3    87  THR87       0.1794
     62  OG1       22.5390   52.6600   70.4420 O.3    87  THR87      -0.2208
     63  CG2       22.9890   53.8540   68.3780 C.3    87  THR87       0.0378
     64  N         28.5320   58.8790   62.6220 N.3   115  SER115     -0.1217
     65  CA        27.2260   58.7340   63.2830 C.3   115  SER115      0.1889
     66  C         26.5020   60.0610   63.4740 C.2   115  SER115      0.2288
     67  O         27.1200   61.0960   63.7440 O.2   115  SER115     -0.2866
     68  CB        27.3660   57.9820   64.6250 C.3   115  SER115      0.2089
     69  OG        27.8020   56.6420   64.4070 O.3   115  SER115     -0.2183
@<TRIPOS>BOND
     1    13    11   ar
     2    11    10    1
     3    11    12   ar
     4    10     9    1
     5     8     7    2
     6    22    21    2
     7     7     6    1
     8    21    20    1
     9     9     6    1
    10    14    15    1
    11    17    16    2
    12     6     5    1
    13    16    15    1
    14    16    19   am
    15    15    18    1
    16    19    20    1
    17    20    23    1
    18     5     3   am
    19     3     4    2
    20     3     2    1
    21    31    29    1
    22     1     2    1
    23    29    28    1
    24    39    37    1
    25    30    28    1
    26    28    25    1
    27    64    65    1
    28    65    66    1
    29    65    68    1
    30    37    38    1
    31    37    36    1
    32    66    67    2
    33    25    24    1
    34    25    26    1
    35    56    54    1
    36    36    33    1
    37    69    68    1
    38    55    54    1
    39    26    27    2
    40    54    53    1
    41    33    34    1
    42    33    32    1
    43    53    50    1
    44    34    40   am
    45    34    35    2
    46    40    41    1
    47    44    41    1
    48    44    45    1
    49    41    42    1
    50    46    45    1
    51    46    47    1
    52    48    47    1
    53    50    49    1
    54    50    51    1
    55    52    51    2
    56    51    57   am
    57    42    43    2
    58    63    61    1
    59    57    58    1
    60    58    61    1
    61    58    59    1
    62    61    62    1
    63    59    60    2
