@<TRIPOS>MOLECULE
tmp/4cnzA01.pdb
 103 98 0 0 0
SMALL
GASTEIGER

@<TRIPOS>ATOM
      1  N         37.9250   59.1970   28.9550 N.3     3  LEU3       -0.1245
      2  CA        37.1080   59.0560   27.7610 C.3     3  LEU3        0.1561
      3  C         36.4900   57.6660   27.7950 C.2     3  LEU3        0.2260
      4  O         37.1860   56.6560   27.7360 O.2     3  LEU3       -0.2867
      5  CB        37.9260   59.2250   26.4880 C.3     3  LEU3        0.0270
      6  CG        37.1060   59.1550   25.1950 C.3     3  LEU3        0.0019
      7  CD1       36.1360   60.3230   25.0920 C.3     3  LEU3        0.0001
      8  CD2       38.0270   59.0990   23.9810 C.3     3  LEU3        0.0001
      9  N         24.8190   63.7160   32.8710 N.3    25  ILE25      -0.1231
     10  CA        25.8120   63.8100   31.8130 C.3    25  ILE25       0.1692
     11  C         25.2250   64.6620   30.7040 C.2    25  ILE25       0.2592
     12  O         24.2290   64.2910   30.0770 O.2    25  ILE25      -0.2718
     13  CB        26.2240   62.4410   31.2670 C.3    25  ILE25       0.0266
     14  CG1       26.8870   61.6090   32.3670 C.3    25  ILE25       0.0019
     15  CG2       27.1760   62.6090   30.0870 C.3    25  ILE25       0.0020
     16  CD1       28.1600   62.2140   32.9100 C.3    25  ILE25       0.0001
     17  N         25.8310   65.8220   30.4870 N.am   26  GLN26      -0.1966
     18  CA        25.3150   66.7760   29.5170 C.3    26  GLN26       0.1733
     19  C         25.3390   66.2030   28.1070 C.2    26  GLN26       0.2617
     20  O         24.3160   65.7580   27.5840 O.2    26  GLN26      -0.2715
     21  CB        26.0990   68.0850   29.5820 C.3    26  GLN26       0.0408
     22  CG        26.1070   68.6720   31.0010 C.3    26  GLN26       0.0908
     23  CD        24.7320   69.1570   31.4480 C.2    26  GLN26       0.2608
     24  OE1       24.0590   69.9150   30.7570 O.2    26  GLN26      -0.2717
     25  NE2       24.2800   68.6360   32.5780 N.am   26  GLN26      -0.0878
     26  N         26.5140   66.1990   27.4980 N.am   27  GLY27      -0.1940
     27  CA        26.6130   65.8310   26.1050 C.3    27  GLY27       0.2014
     28  C         27.4050   64.5700   25.8530 C.2    27  GLY27       0.2639
     29  O         27.9530   63.9700   26.7780 O.2    27  GLY27      -0.2714
     30  N         27.4480   64.1720   24.5880 N.am   28  LEU28      -0.1963
     31  CA        28.2420   63.0380   24.1510 C.3    28  LEU28       0.1728
     32  C         28.3590   63.0900   22.6330 C.2    28  LEU28       0.2616
     33  O         27.5880   63.7750   21.9610 O.2    28  LEU28      -0.2715
     34  CB        27.6050   61.7180   24.5830 C.3    28  LEU28       0.0311
     35  CG        26.1910   61.4690   24.0600 C.3    28  LEU28       0.0022
     36  CD1       26.0420   60.0420   23.5630 C.3    28  LEU28       0.0001
     37  CD2       25.1850   61.7590   25.1580 C.3    28  LEU28       0.0001
     38  N         29.3280   62.3630   22.0980 N.am   29  THR29      -0.1951
     39  CA        29.6050   62.3940   20.6700 C.3    29  THR29       0.1897
     40  C         29.3970   60.9940   20.0870 C.2    29  THR29       0.2313
     41  O         29.9360   60.0080   20.5980 O.2    29  THR29      -0.2863
     42  CB        31.0400   62.9150   20.4140 C.3    29  THR29       0.1794
     43  OG1       31.1300   64.2790   20.8530 O.3    29  THR29      -0.2208
     44  CG2       31.4060   62.8280   18.9320 C.3    29  THR29       0.0378
     45  N         31.0870   58.2770   22.4400 N.3    50  GLU50      -0.1231
     46  CA        32.2420   58.7900   23.1530 C.3    50  GLU50       0.1699
     47  C         31.7960   59.8580   24.1230 C.2    50  GLU50       0.2592
     48  O         31.2100   60.8660   23.7240 O.2    50  GLU50      -0.2718
     49  CB        33.2920   59.3310   22.1820 C.3    50  GLU50       0.0402
     50  CG        34.0900   58.2310   21.5090 C.3    50  GLU50       0.1161
     51  CD        34.8740   58.7210   20.3100 C.2    50  GLU50       0.3649
     52  OE1       34.2680   59.3260   19.3970 O.co2  50  GLU50      -0.2457
     53  OE2       36.0960   58.4880   20.2800 O.co2  50  GLU50      -0.2457
     54  N         32.0540   59.6380   25.4060 N.am   51  VAL51      -0.1966
     55  CA        31.6890   60.6500   26.3870 C.3    51  VAL51       0.1727
     56  C         32.8480   60.8610   27.3500 C.2    51  VAL51       0.2616
     57  O         33.3720   59.9070   27.9480 O.2    51  VAL51      -0.2715
     58  CB        30.3520   60.3360   27.1170 C.3    51  VAL51       0.0290
     59  CG1       30.3770   58.9580   27.7610 C.3    51  VAL51       0.0023
     60  CG2       30.0400   61.4210   28.1410 C.3    51  VAL51       0.0023
     61  N         33.2800   62.1140   27.4400 N.am   52  ALA52      -0.1977
     62  CA        34.3250   62.5060   28.3780 C.3    52  ALA52       0.1597
     63  C         33.6420   62.7560   29.7130 C.2    52  ALA52       0.2287
     64  O         32.5820   63.3810   29.7700 O.2    52  ALA52      -0.2864
     65  CB        35.0490   63.7620   27.8820 C.3    52  ALA52       0.0319
     66  N         36.9200   73.4790   26.5900 N.3    89  ARG89      -0.1231
     67  CA        35.6920   73.8520   25.9080 C.3    89  ARG89       0.1694
     68  C         36.0430   75.0210   25.0090 C.2    89  ARG89       0.2592
     69  O         36.5170   76.0510   25.4820 O.2    89  ARG89      -0.2718
     70  CB        34.6040   74.2670   26.8940 C.3    89  ARG89       0.0321
     71  CG        33.2810   74.5550   26.2170 C.3    89  ARG89       0.0489
     72  CD        32.2880   75.2090   27.1610 C.3    89  ARG89       0.2205
     73  NE        32.1900   74.5030   28.4390 N.pl3  89  ARG89      -0.0865
     74  CZ        31.3870   73.4680   28.6670 C.cat  89  ARG89       0.5346
     75  NH1       30.6140   72.9950   27.6970 N.pl3  89  ARG89       0.1354
     76  NH2       31.3620   72.9070   29.8680 N.pl3  89  ARG89       0.1354
     77  N         35.8140   74.8430   23.7130 N.am   90  ILE90      -0.1966
     78  CA        36.2820   75.7720   22.6950 C.3    90  ILE90       0.1727
     79  C         35.7220   77.1840   22.9000 C.2    90  ILE90       0.2616
     80  O         36.4440   78.1880   22.7850 O.2    90  ILE90      -0.2715
     81  CB        35.9440   75.2270   21.2850 C.3    90  ILE90       0.0290
     82  CG1       36.7920   73.9830   20.9900 C.3    90  ILE90       0.0022
     83  CG2       36.1610   76.2930   20.2210 C.3    90  ILE90       0.0023
     84  CD1       36.4030   73.2480   19.7010 C.3    90  ILE90       0.0001
     85  N         34.4440   77.2340   23.2600 N.am   91  ARG91      -0.1977
     86  CA        33.6970   78.4760   23.4280 C.3    91  ARG91       0.1597
     87  C         34.2170   79.3900   24.5500 C.2    91  ARG91       0.2287
     88  O         34.1400   80.6200   24.4590 O.2    91  ARG91      -0.2864
     89  CB        32.2300   78.1100   23.6770 C.3    91  ARG91       0.0334
     90  CG        31.2730   79.2410   23.7580 C.3    91  ARG91       0.0492
     91  CD        29.8490   78.7130   23.7090 C.3    91  ARG91       0.2205
     92  NE        29.6000   77.6220   24.6530 N.pl3  91  ARG91      -0.0865
     93  CZ        29.1940   77.8020   25.9090 C.cat  91  ARG91       0.5346
     94  NH1       29.0120   79.0310   26.3760 N.pl3  91  ARG91       0.1354
     95  NH2       28.9830   76.7590   26.7040 N.pl3  91  ARG91       0.1354
     96  N         33.6190   70.0800   30.6020 N.3   100  LEU100     -0.1245
     97  CA        32.6180   69.0630   30.2990 C.3   100  LEU100      0.1561
     98  C         31.2080   69.6030   30.4780 C.2   100  LEU100      0.2260
     99  O         30.2320   68.8730   30.3150 O.2   100  LEU100     -0.2867
    100  CB        32.8250   67.8220   31.1740 C.3   100  LEU100      0.0270
    101  CG        34.2200   67.2030   31.1290 C.3   100  LEU100      0.0019
    102  CD1       34.3090   65.9540   31.9950 C.3   100  LEU100      0.0001
    103  CD2       34.5880   66.8840   29.6910 C.3   100  LEU100      0.0001
@<TRIPOS>BOND
     1    44    42    1
     2    52    51   ar
     3    84    82    1
     4    40    41    2
     5    40    39    1
     6    83    81    1
     7    53    51   ar
     8    51    50    1
     9    42    39    1
    10    42    43    1
    11    39    38    1
    12    82    81    1
    13    81    78    1
    14    50    49    1
    15    33    32    2
    16    38    32   am
    17    49    46    1
    18    45    46    1
    19    32    31    1
    20    78    79    1
    21    78    77    1
    22    80    79    2
    23    79    85   am
    24    46    47    1
    25    85    86    1
    26    86    89    1
    27    86    87    1
    28    36    35    1
    29    89    90    1
    30    91    90    1
    31    91    92    1
    32    77    68   am
    33    48    47    2
    34     8     6    1
    35    35    34    1
    36    35    37    1
    37    47    54   am
    38    31    34    1
    39    31    30    1
    40    88    87    2
    41    30    28   am
    42    92    93    2
    43    68    69    2
    44    68    67    1
    45     7     6    1
    46     6     5    1
    47    54    55    1
    48    28    27    1
    49    28    29    2
    50    67    66    1
    51    67    70    1
    52    93    94    1
    53    93    95    1
    54    27    26    1
    55    71    70    1
    56    71    72    1
    57    55    58    1
    58    55    56    1
    59     5     2    1
    60    58    59    1
    61    58    60    1
    62    72    73    1
    63    56    61   am
    64    56    57    2
    65    61    62    1
    66    26    19   am
    67    20    19    2
    68    75    74    1
    69     4     3    2
    70     2     3    1
    71     2     1    1
    72    65    62    1
    73    19    18    1
    74    62    63    1
    75    73    74    2
    76    74    76    1
    77    18    21    1
    78    18    17    1
    79    21    22    1
    80   103   101    1
    81    63    64    2
    82    12    11    2
    83    15    13    1
    84    97    98    1
    85    97    96    1
    86    97   100    1
    87    99    98    2
    88    17    11   am
    89    11    10    1
    90    24    23    2
    91    22    23    1
    92   101   100    1
    93   101   102    1
    94    13    10    1
    95    13    14    1
    96    23    25   am
    97    10     9    1
    98    14    16    1
