@<TRIPOS>MOLECULE
tmp/4co2B00.pdb
 135 131 0 0 0
SMALL
GASTEIGER

@<TRIPOS>ATOM
      1  N          5.5260   -9.1680   64.3550 N.3     7  ILE7       -0.1245
      2  CA         4.8970   -9.5140   65.6180 C.3     7  ILE7        0.1561
      3  C          5.6890  -10.6760   66.2170 C.2     7  ILE7        0.2260
      4  O          5.6690  -11.7830   65.6680 O.2     7  ILE7       -0.2867
      5  CB         3.4400   -9.9440   65.4110 C.3     7  ILE7        0.0252
      6  CG1        2.6650   -8.8890   64.6160 C.3     7  ILE7        0.0019
      7  CG2        2.7700  -10.2160   66.7640 C.3     7  ILE7        0.0019
      8  CD1        2.6410   -7.5440   65.2790 C.3     7  ILE7        0.0001
      9  N          1.4410   -5.5860   72.1840 N.3    33  VAL33      -0.1231
     10  CA         0.1650   -6.1020   71.6870 C.3    33  VAL33       0.1692
     11  C         -0.1980   -7.4030   72.4110 C.2    33  VAL33       0.2592
     12  O          0.6330   -7.9890   73.1120 O.2    33  VAL33      -0.2718
     13  CB         0.2050   -6.3600   70.1570 C.3    33  VAL33       0.0266
     14  CG1        0.5000   -5.0660   69.3960 C.3    33  VAL33       0.0020
     15  CG2        1.2480   -7.4230   69.8030 C.3    33  VAL33       0.0020
     16  N         -1.4380   -7.8440   72.2480 N.am   34  LYS34      -0.1966
     17  CA        -1.8250   -9.1970   72.6340 C.3    34  LYS34       0.1728
     18  C         -2.0030  -10.0510   71.3780 C.2    34  LYS34       0.2617
     19  O         -2.4600   -9.5640   70.3370 O.2    34  LYS34      -0.2715
     20  CB        -3.1240   -9.1950   73.4240 C.3    34  LYS34       0.0311
     21  CG        -2.9940   -8.6570   74.8340 C.3    34  LYS34       0.0038
     22  CD        -4.3550   -8.6580   75.5070 C.3    34  LYS34       0.0206
     23  CE        -4.2580   -8.2300   76.9710 C.3    34  LYS34       0.1093
     24  NZ        -4.1630   -6.7440   77.1050 N.3    34  LYS34      -0.1314
     25  N         -1.6190  -11.3220   71.4650 N.am   35  GLY35      -0.1940
     26  CA        -1.7460  -12.2120   70.3230 C.3    35  GLY35       0.2014
     27  C         -2.7800  -13.3100   70.4980 C.2    35  GLY35       0.2639
     28  O         -2.8980  -13.9050   71.5770 O.2    35  GLY35      -0.2714
     29  N         -3.5450  -13.5630   69.4400 N.am   36  PHE36      -0.1959
     30  CA        -4.4510  -14.7100   69.3990 C.3    36  PHE36       0.1771
     31  C         -4.0720  -15.5600   68.1920 C.2    36  PHE36       0.2620
     32  O         -3.7350  -15.0230   67.1410 O.2    36  PHE36      -0.2715
     33  CB        -5.9150  -14.2580   69.3100 C.3    36  PHE36       0.0574
     34  CG        -6.3480  -13.3740   70.4570 C.ar   36  PHE36      -0.0200
     35  CD1       -6.1800  -12.0030   70.3950 C.ar   36  PHE36      -0.0042
     36  CD2       -6.9180  -13.9210   71.5930 C.ar   36  PHE36      -0.0042
     37  CE1       -6.5700  -11.1900   71.4620 C.ar   36  PHE36      -0.0003
     38  CE2       -7.3150  -13.1140   72.6580 C.ar   36  PHE36      -0.0003
     39  CZ        -7.1410  -11.7520   72.5930 C.ar   36  PHE36      -0.0000
     40  N         -4.1080  -16.8820   68.3420 N.am   37  GLY37      -0.1940
     41  CA        -3.7270  -17.7670   67.2520 C.3    37  GLY37       0.2014
     42  C         -3.8580  -19.2270   67.6380 C.2    37  GLY37       0.2639
     43  O         -4.7120  -19.5830   68.4470 O.2    37  GLY37      -0.2714
     44  N         -3.0010  -20.0740   67.0780 N.am   38  ARG38      -0.1963
     45  CA        -3.0500  -21.5030   67.3820 C.3    38  ARG38       0.1729
     46  C         -2.6350  -21.7420   68.8340 C.2    38  ARG38       0.2616
     47  O         -3.1960  -22.6060   69.5070 O.2    38  ARG38      -0.2715
     48  CB        -2.1680  -22.3110   66.4240 C.3    38  ARG38       0.0348
     49  CG        -2.6820  -22.4460   65.0160 C.3    38  ARG38       0.0492
     50  CD        -1.9330  -23.5540   64.2910 C.3    38  ARG38       0.2205
     51  NE        -0.4800  -23.3910   64.3740 N.pl3  38  ARG38      -0.0865
     52  CZ         0.2330  -22.5620   63.6120 C.cat  38  ARG38       0.5346
     53  NH1       -0.3680  -21.8130   62.6980 N.pl3  38  ARG38       0.1354
     54  NH2        1.5500  -22.4780   63.7630 N.pl3  38  ARG38       0.1354
     55  N         -1.6450  -20.9860   69.3080 N.am   39  GLN39      -0.1977
     56  CA        -1.3200  -20.9940   70.7280 C.3    39  GLN39       0.1601
     57  C         -2.3320  -20.1050   71.4320 C.2    39  GLN39       0.2287
     58  O         -2.4790  -18.9300   71.0860 O.2    39  GLN39      -0.2864
     59  CB         0.1040  -20.4830   70.9930 C.3    39  GLN39       0.0394
     60  CG         0.5020  -20.5770   72.4690 C.3    39  GLN39       0.0908
     61  CD         1.9090  -20.0700   72.7550 C.2    39  GLN39       0.2608
     62  OE1        2.3910  -19.1240   72.1280 O.2    39  GLN39      -0.2717
     63  NE2        2.5760  -20.7050   73.7170 N.am   39  GLN39      -0.0878
     64  N         -1.5010  -13.6680   75.8410 N.3    56  LEU56      -0.1245
     65  CA        -0.1680  -13.8730   75.3300 C.3    56  LEU56       0.1561
     66  C          0.3820  -12.5610   74.7630 C.2    56  LEU56       0.2260
     67  O          0.0450  -12.1820   73.6330 O.2    56  LEU56      -0.2867
     68  CB        -0.2380  -14.9150   74.2200 C.3    56  LEU56       0.0270
     69  CG        -0.5750  -16.3640   74.6020 C.3    56  LEU56       0.0019
     70  CD1       -1.3300  -17.0260   73.4550 C.3    56  LEU56       0.0001
     71  CD2        0.6980  -17.1350   74.9020 C.3    56  LEU56       0.0001
     72  N          2.7900   -9.9780   72.8920 N.3    58  LYS58      -0.1245
     73  CA         3.7700  -10.0010   71.8210 C.3    58  LYS58       0.1561
     74  C          4.3010   -8.5810   71.7350 C.2    58  LYS58       0.2260
     75  O          3.7250   -7.6550   72.3120 O.2    58  LYS58      -0.2867
     76  CB         3.1370  -10.3990   70.4820 C.3    58  LYS58       0.0271
     77  CG         2.3970  -11.7400   70.5160 C.3    58  LYS58       0.0035
     78  CD         3.3670  -12.9220   70.5160 C.3    58  LYS58       0.0206
     79  CE         2.6130  -14.2160   70.7690 C.3    58  LYS58       0.1093
     80  NZ         3.4970  -15.4150   70.7290 N.3    58  LYS58      -0.1314
     81  N          9.1070  -22.9400   67.6680 N.3    85  ARG85      -0.1231
     82  CA         7.9230  -23.3190   68.4360 C.3    85  ARG85       0.1694
     83  C          6.7120  -22.4810   68.0190 C.2    85  ARG85       0.2592
     84  O          6.8650  -21.3860   67.4660 O.2    85  ARG85      -0.2718
     85  CB         8.1840  -23.1950   69.9440 C.3    85  ARG85       0.0321
     86  CG         9.2300  -24.1860   70.4660 C.3    85  ARG85       0.0489
     87  CD         9.4960  -23.8500   71.8970 C.3    85  ARG85       0.2205
     88  NE        10.3870  -22.6480   71.9840 N.pl3  85  ARG85      -0.0865
     89  CZ        10.7950  -22.1850   73.1710 C.cat  85  ARG85       0.5346
     90  NH1       10.4180  -22.7470   74.3280 N.pl3  85  ARG85       0.1354
     91  NH2       11.6470  -21.1160   73.1310 N.pl3  85  ARG85       0.1354
     92  N          5.5120  -22.9990   68.2690 N.am   86  ILE86      -0.1966
     93  CA         4.2930  -22.2750   67.9140 C.3    86  ILE86       0.1727
     94  C          4.2250  -20.9380   68.6600 C.2    86  ILE86       0.2617
     95  O          4.6660  -20.8360   69.8070 O.2    86  ILE86      -0.2715
     96  CB         3.0240  -23.1270   68.1730 C.3    86  ILE86       0.0290
     97  CG1        3.1380  -24.4770   67.4550 C.3    86  ILE86       0.0022
     98  CG2        1.7650  -22.4020   67.7040 C.3    86  ILE86       0.0023
     99  CD1        1.8280  -25.2480   67.3730 C.3    86  ILE86       0.0001
    100  N          3.7090  -19.9110   67.9880 N.am   87  GLY87      -0.1940
    101  CA         3.6200  -18.5780   68.5610 C.3    87  GLY87       0.2014
    102  C          4.7200  -17.6190   68.1330 C.2    87  GLY87       0.2639
    103  O          4.7360  -16.4670   68.5770 O.2    87  GLY87      -0.2714
    104  N          5.6250  -18.0690   67.2640 N.am   88  ASP88      -0.1957
    105  CA         6.7850  -17.2530   66.8750 C.3    88  ASP88       0.1840
    106  C          6.3900  -15.9260   66.2300 C.2    88  ASP88       0.2623
    107  O          7.0860  -14.9260   66.3830 O.2    88  ASP88      -0.2715
    108  CB         7.7100  -18.0180   65.9370 C.3    88  ASP88       0.1450
    109  CG         8.6480  -18.9390   66.6760 C.2    88  ASP88       0.3671
    110  OD1        8.7190  -18.8330   67.9240 O.co2  88  ASP88      -0.2456
    111  OD2        9.3220  -19.7560   66.0110 O.co2  88  ASP88      -0.2456
    112  N          5.2760  -15.9160   65.5060 N.am   89  GLY89      -0.1940
    113  CA         4.7370  -14.6570   65.0220 C.3    89  GLY89       0.2014
    114  C          4.8430  -14.4670   63.5200 C.2    89  GLY89       0.2638
    115  O          5.0550  -15.4210   62.7650 O.2    89  GLY89      -0.2714
    116  N          4.6980  -13.2170   63.0930 N.am   90  LYS90      -0.1977
    117  CA         4.5710  -12.8990   61.6760 C.3    90  LYS90       0.1596
    118  C          5.4150  -11.6870   61.3170 C.2    90  LYS90       0.2287
    119  O          5.7140  -10.8470   62.1670 O.2    90  LYS90      -0.2864
    120  CB         3.1200  -12.5510   61.3480 C.3    90  LYS90       0.0298
    121  CG         2.0850  -13.5470   61.8370 C.3    90  LYS90       0.0038
    122  CD         2.0580  -14.7890   60.9700 C.3    90  LYS90       0.0206
    123  CE         0.7450  -15.5430   61.1390 C.3    90  LYS90       0.1093
    124  NZ         0.8910  -16.7310   62.0300 N.3    90  LYS90      -0.1314
    125  N          4.9440   -8.6910   58.4020 N.3    92  PHE92      -0.1241
    126  CA         4.1510   -8.1330   57.3030 C.3    92  PHE92       0.1605
    127  C          4.8870   -6.9380   56.7140 C.2    92  PHE92       0.2264
    128  O          5.3530   -6.0670   57.4500 O.2    92  PHE92      -0.2867
    129  CB         2.7750   -7.6660   57.7950 C.3    92  PHE92       0.0534
    130  CG         1.9670   -8.7310   58.4720 C.ar   92  PHE92      -0.0203
    131  CD1        1.7270   -9.9450   57.8530 C.ar   92  PHE92      -0.0042
    132  CD2        1.4440   -8.5160   59.7460 C.ar   92  PHE92      -0.0042
    133  CE1        0.9810  -10.9240   58.4840 C.ar   92  PHE92      -0.0003
    134  CE2        0.7020   -9.4930   60.3830 C.ar   92  PHE92      -0.0003
    135  CZ         0.4660  -10.6930   59.7580 C.ar   92  PHE92      -0.0000
@<TRIPOS>BOND
     1   127   126    1
     2   127   128    2
     3   126   129    1
     4   126   125    1
     5   129   130    1
     6   131   130   ar
     7   131   133   ar
     8   130   132   ar
     9   133   135   ar
    10   132   134   ar
    11   135   134   ar
    12   122   123    1
    13   122   121    1
    14   123   124    1
    15   118   117    1
    16   118   119    2
    17   120   117    1
    18   120   121    1
    19   117   116    1
    20    53    52    1
    21   115   114    2
    22   116   114   am
    23   114   113    1
    24    52    54    1
    25    52    51    2
    26    50    51    1
    27    50    49    1
    28     1     2    1
    29     6     8    1
    30     6     5    1
    31    49    48    1
    32   113   112    1
    33     5     2    1
    34     5     7    1
    35   112   106   am
    36     2     3    1
    37     4     3    2
    38   108   109    1
    39   108   105    1
    40   111   109   ar
    41   106   107    2
    42   106   105    1
    43    48    45    1
    44   109   110   ar
    45   105   104    1
    46    44    45    1
    47    44    42   am
    48    32    31    2
    49    41    42    1
    50    41    40    1
    51   104   102   am
    52    99    97    1
    53    45    46    1
    54    97    96    1
    55    84    83    2
    56    42    43    2
    57    81    82    1
    58    98    96    1
    59    93    96    1
    60    93    92    1
    61    93    94    1
    62   100   101    1
    63   100    94   am
    64    83    92   am
    65    83    82    1
    66   102   101    1
    67   102   103    2
    68    31    40   am
    69    31    30    1
    70    82    85    1
    71    94    95    2
    72    46    55   am
    73    46    47    2
    74    55    56    1
    75    33    30    1
    76    33    34    1
    77    14    13    1
    78    30    29    1
    79    29    27   am
    80    15    13    1
    81    85    86    1
    82    13    10    1
    83    26    27    1
    84    26    25    1
    85    19    18    2
    86    35    34   ar
    87    35    37   ar
    88    34    36   ar
    89    86    87    1
    90    76    77    1
    91    76    73    1
    92    27    28    2
    93    77    78    1
    94    78    79    1
    95    56    59    1
    96    56    57    1
    97    80    79    1
    98    59    60    1
    99    58    57    2
   100    18    25   am
   101    18    17    1
   102    37    39   ar
   103    36    38   ar
   104    10     9    1
   105    10    11    1
   106    74    73    1
   107    74    75    2
   108    73    72    1
   109    87    88    1
   110    88    89    2
   111    62    61    2
   112    16    11   am
   113    16    17    1
   114    11    12    2
   115    60    61    1
   116    39    38   ar
   117    17    20    1
   118    61    63   am
   119    91    89    1
   120    89    90    1
   121    20    21    1
   122    70    69    1
   123    67    66    2
   124    68    69    1
   125    68    65    1
   126    69    71    1
   127    66    65    1
   128    21    22    1
   129    65    64    1
   130    22    23    1
   131    23    24    1
