@<TRIPOS>MOLECULE
tmp/4co3B00.pdb
 93 88 0 0 0
SMALL
GASTEIGER

@<TRIPOS>ATOM
      1  N         -4.3970   -6.0250   53.8990 N.3     3  LEU3       -0.1245
      2  CA        -4.4380   -5.8200   55.3370 C.3     3  LEU3        0.1561
      3  C         -5.6330   -4.9350   55.6540 C.2     3  LEU3        0.2260
      4  O         -5.6620   -3.7640   55.2830 O.2     3  LEU3       -0.2867
      5  CB        -3.1550   -5.1590   55.8340 C.3     3  LEU3        0.0270
      6  CG        -3.0250   -5.0490   57.3560 C.3     3  LEU3        0.0019
      7  CD1       -2.7410   -6.4060   57.9800 C.3     3  LEU3        0.0001
      8  CD2       -1.9460   -4.0570   57.7220 C.3     3  LEU3        0.0001
      9  N        -11.4670  -17.1300   59.2110 N.3    25  ILE25      -0.1245
     10  CA       -10.2580  -16.4240   59.6000 C.3    25  ILE25       0.1561
     11  C         -9.8280  -16.8340   61.0020 C.2    25  ILE25       0.2260
     12  O        -10.4440  -16.4460   61.9890 O.2    25  ILE25      -0.2867
     13  CB       -10.4610  -14.9050   59.5390 C.3    25  ILE25       0.0252
     14  CG1      -10.8870  -14.5010   58.1290 C.3    25  ILE25       0.0019
     15  CG2       -9.1850  -14.1850   59.9340 C.3    25  ILE25       0.0019
     16  CD1      -11.3120  -13.0750   58.0150 C.3    25  ILE25       0.0001
     17  N         -6.6230  -15.7630   62.1290 N.3    26  GLY26      -0.1210
     18  CA        -6.3190  -14.9750   63.3050 C.3    26  GLY26       0.1956
     19  C         -6.3640  -13.4830   63.0420 C.2    26  GLY26       0.2612
     20  O         -6.7550  -13.0470   61.9600 O.2    26  GLY26      -0.2717
     21  N         -5.9690  -12.7050   64.0470 N.am   27  LEU27      -0.1965
     22  CA        -5.8990  -11.2550   63.9330 C.3    27  LEU27       0.1728
     23  C         -4.9300  -10.6960   64.9670 C.2    27  LEU27       0.2616
     24  O         -4.5490  -11.3840   65.9090 O.2    27  LEU27      -0.2715
     25  CB        -7.2800  -10.6160   64.1200 C.3    27  LEU27       0.0311
     26  CG        -7.9710  -10.8630   65.4660 C.3    27  LEU27       0.0022
     27  CD1       -8.7850   -9.6530   65.9050 C.3    27  LEU27       0.0001
     28  CD2       -8.8500  -12.0910   65.3860 C.3    27  LEU27       0.0001
     29  N         -4.5400   -9.4410   64.7800 N.am   28  THR28      -0.1951
     30  CA        -3.6380   -8.7630   65.7040 C.3    28  THR28       0.1897
     31  C         -4.2900   -7.4800   66.2010 C.2    28  THR28       0.2313
     32  O         -4.7930   -6.6860   65.4170 O.2    28  THR28      -0.2863
     33  CB        -2.2950   -8.4370   65.0290 C.3    28  THR28       0.1794
     34  OG1       -1.6150   -9.6560   64.7040 O.3    28  THR28      -0.2208
     35  CG2       -1.4280   -7.5890   65.9410 C.3    28  THR28       0.0378
     36  N         -6.0530   -5.5740   63.0930 N.3    59  GLU59      -0.1231
     37  CA        -5.3300   -5.7280   61.8420 C.3    59  GLU59       0.1699
     38  C         -5.3580   -7.1850   61.4190 C.2    59  GLU59       0.2592
     39  O         -4.7920   -8.0460   62.0830 O.2    59  GLU59      -0.2718
     40  CB        -3.8970   -5.2170   61.9790 C.3    59  GLU59       0.0402
     41  CG        -3.8060   -3.6990   61.9160 C.3    59  GLU59       0.1161
     42  CD        -2.4320   -3.1630   62.2700 C.2    59  GLU59       0.3649
     43  OE1       -1.8610   -3.5960   63.2910 O.co2  59  GLU59      -0.2457
     44  OE2       -1.9240   -2.3000   61.5260 O.co2  59  GLU59      -0.2457
     45  N         -6.0410   -7.4550   60.3110 N.am   60  VAL60      -0.1966
     46  CA        -6.1530   -8.8140   59.8030 C.3    60  VAL60       0.1727
     47  C         -5.7520   -8.8920   58.3280 C.2    60  VAL60       0.2616
     48  O         -6.2680   -8.1600   57.4830 O.2    60  VAL60      -0.2715
     49  CB        -7.5770   -9.4000   60.0300 C.3    60  VAL60       0.0290
     50  CG1       -8.6350   -8.5600   59.3370 C.3    60  VAL60       0.0023
     51  CG2       -7.6420  -10.8440   59.5630 C.3    60  VAL60       0.0023
     52  N         -4.7940   -9.7710   58.0480 N.am   61  ALA61      -0.1977
     53  CA        -4.3380  -10.0290   56.6920 C.3    61  ALA61       0.1597
     54  C         -5.2160  -11.1030   56.0740 C.2    61  ALA61       0.2287
     55  O         -5.4030  -12.1650   56.6510 O.2    61  ALA61      -0.2864
     56  CB        -2.8930  -10.4740   56.6990 C.3    61  ALA61       0.0319
     57  N          4.7600  -16.4460   56.6620 N.3    98  ARG98      -0.1231
     58  CA         4.5240  -17.1350   57.9230 C.3    98  ARG98       0.1694
     59  C          5.8830  -17.3800   58.5690 C.2    98  ARG98       0.2592
     60  O          6.7400  -18.0430   57.9910 O.2    98  ARG98      -0.2718
     61  CB         3.7940  -18.4640   57.7000 C.3    98  ARG98       0.0321
     62  CG         2.3740  -18.3150   57.1960 C.3    98  ARG98       0.0489
     63  CD         1.8270  -19.6210   56.6360 C.3    98  ARG98       0.2205
     64  NE         1.5410  -20.6050   57.6720 N.pl3  98  ARG98      -0.0865
     65  CZ         0.9350  -21.7680   57.4540 C.cat  98  ARG98       0.5346
     66  NH1        0.5440  -22.0990   56.2340 N.pl3  98  ARG98       0.1354
     67  NH2        0.7160  -22.6030   58.4580 N.pl3  98  ARG98       0.1354
     68  N          6.0870  -16.8350   59.7600 N.am   99  ILE99      -0.1966
     69  CA         7.3980  -16.9030   60.3850 C.3    99  ILE99       0.1727
     70  C          7.7610  -18.3330   60.7740 C.2    99  ILE99       0.2616
     71  O          8.9170  -18.7300   60.6690 O.2    99  ILE99      -0.2715
     72  CB         7.4920  -15.9840   61.6140 C.3    99  ILE99       0.0290
     73  CG1        7.3820  -14.5210   61.1790 C.3    99  ILE99       0.0022
     74  CG2        8.7970  -16.2160   62.3400 C.3    99  ILE99       0.0023
     75  CD1        7.4590  -13.5360   62.3140 C.3    99  ILE99       0.0001
     76  N          6.7710  -19.1070   61.2040 N.am  100  ARG100     -0.1963
     77  CA         7.0220  -20.4620   61.6920 C.3   100  ARG100      0.1729
     78  C          7.5820  -21.3820   60.6080 C.2   100  ARG100      0.2616
     79  O          8.5180  -22.1450   60.8510 O.2   100  ARG100     -0.2715
     80  CB         5.7390  -21.0670   62.2590 C.3   100  ARG100      0.0348
     81  CG         5.9500  -22.3900   62.9690 C.3   100  ARG100      0.0492
     82  CD         4.6820  -22.8680   63.6480 C.3   100  ARG100      0.2205
     83  NE         3.5600  -22.9640   62.7200 N.pl3 100  ARG100     -0.0865
     84  CZ         3.3570  -23.9730   61.8800 C.cat 100  ARG100      0.5346
     85  NH1        4.2080  -24.9890   61.8260 N.pl3 100  ARG100      0.1354
     86  NH2        2.3010  -23.9580   61.0810 N.pl3 100  ARG100      0.1354
     87  N          6.9970  -21.3040   59.4180 N.am  101  THR101     -0.1951
     88  CA         7.3620  -22.1750   58.3020 C.3   101  THR101      0.1897
     89  C          8.2550  -21.4810   57.2680 C.2   101  THR101      0.2313
     90  O          8.9800  -22.1390   56.5230 O.2   101  THR101     -0.2863
     91  CB         6.0980  -22.6800   57.5840 C.3   101  THR101      0.1794
     92  OG1        5.3790  -21.5680   57.0360 O.3   101  THR101     -0.2208
     93  CG2        5.2020  -23.4330   58.5530 C.3   101  THR101      0.0378
@<TRIPOS>BOND
     1     1     2    1
     2     4     3    2
     3     2     3    1
     4     2     5    1
     5     5     6    1
     6    54    55    2
     7    54    53    1
     8    66    65    1
     9    90    89    2
    10    63    62    1
    11    63    64    1
    12    57    58    1
    13    53    56    1
    14    53    52    1
    15    92    91    1
    16    62    61    1
    17    89    88    1
    18     6     8    1
    19     6     7    1
    20    65    64    2
    21    65    67    1
    22    48    47    2
    23    91    88    1
    24    91    93    1
    25    61    58    1
    26    58    59    1
    27    60    59    2
    28    16    14    1
    29    52    47   am
    30    14    13    1
    31    88    87    1
    32    47    46    1
    33    59    68   am
    34     9    10    1
    35    50    49    1
    36    87    78   am
    37    13    10    1
    38    13    15    1
    39    51    49    1
    40    10    11    1
    41    68    69    1
    42    46    49    1
    43    46    45    1
    44    45    38   am
    45    69    70    1
    46    69    72    1
    47    78    79    2
    48    78    77    1
    49    71    70    2
    50    70    76   am
    51    11    12    2
    52    86    84    1
    53    73    72    1
    54    73    75    1
    55    76    77    1
    56    38    37    1
    57    38    39    2
    58    44    42   ar
    59    72    74    1
    60    77    80    1
    61    85    84    1
    62    37    40    1
    63    37    36    1
    64    84    83    2
    65    41    40    1
    66    41    42    1
    67    20    19    2
    68    17    18    1
    69    80    81    1
    70    42    43   ar
    71    83    82    1
    72    81    82    1
    73    19    18    1
    74    19    21   am
    75    22    21    1
    76    22    25    1
    77    22    23    1
    78    25    26    1
    79    34    33    1
    80    29    23   am
    81    29    30    1
    82    23    24    2
    83    33    30    1
    84    33    35    1
    85    28    26    1
    86    32    31    2
    87    26    27    1
    88    30    31    1
