@<TRIPOS>MOLECULE
tmp/4co4C01.pdb
 100 96 0 0 0
SMALL
GASTEIGER

@<TRIPOS>ATOM
      1  N         36.9410    1.4640   -3.7810 N.3     7  ILE7       -0.1245
      2  CA        37.3520    0.2470   -4.4660 C.3     7  ILE7        0.1561
      3  C         38.7880   -0.0400   -4.0760 C.2     7  ILE7        0.2260
      4  O         39.6940    0.6990   -4.4540 O.2     7  ILE7       -0.2867
      5  CB        37.2810    0.3880   -6.0010 C.3     7  ILE7        0.0252
      6  CG1       35.8960    0.8680   -6.4560 C.3     7  ILE7        0.0019
      7  CG2       37.6340   -0.9360   -6.6580 C.3     7  ILE7        0.0019
      8  CD1       34.7840   -0.0800   -6.1190 C.3     7  ILE7        0.0001
      9  N         33.9690   -7.4800   -6.4450 N.3    33  VAL33      -0.1231
     10  CA        33.8890   -6.9940   -7.8170 C.3    33  VAL33       0.1692
     11  C         35.1580   -7.3090   -8.6040 C.2    33  VAL33       0.2592
     12  O         36.1520   -7.7820   -8.0420 O.2    33  VAL33      -0.2718
     13  CB        33.6450   -5.4790   -7.8470 C.3    33  VAL33       0.0266
     14  CG1       32.2810   -5.1410   -7.2410 C.3    33  VAL33       0.0020
     15  CG2       34.7630   -4.7470   -7.1090 C.3    33  VAL33       0.0020
     16  N         35.1140   -7.0580   -9.9100 N.am   34  LYS34      -0.1966
     17  CA        36.2710   -7.2820  -10.7760 C.3    34  LYS34       0.1728
     18  C         36.7680   -5.9760  -11.3770 C.2    34  LYS34       0.2617
     19  O         35.9980   -5.2230  -11.9770 O.2    34  LYS34      -0.2715
     20  CB        35.9360   -8.2600  -11.9070 C.3    34  LYS34       0.0311
     21  CG        35.6030   -9.6670  -11.4280 C.3    34  LYS34       0.0038
     22  CD        34.9850  -10.4960  -12.5470 C.3    34  LYS34       0.0206
     23  CE        34.0220  -11.5330  -11.9810 C.3    34  LYS34       0.1093
     24  NZ        33.5220  -12.4480  -13.0390 N.3    34  LYS34      -0.1314
     25  N         38.0590   -5.7150  -11.2030 N.am   35  GLY35      -0.1940
     26  CA        38.7010   -4.5710  -11.8160 C.3    35  GLY35       0.2014
     27  C         39.4600   -5.0160  -13.0500 C.2    35  GLY35       0.2638
     28  O         39.7300   -6.2020  -13.2230 O.2    35  GLY35      -0.2714
     29  N         39.8050   -4.0720  -13.9150 N.am   36  PHE36      -0.1973
     30  CA        40.4720   -4.4130  -15.1680 C.3    36  PHE36       0.1639
     31  C         41.7050   -3.5570  -15.4370 C.2    36  PHE36       0.2290
     32  O         42.4000   -3.1370  -14.5130 O.2    36  PHE36      -0.2864
     33  CB        39.4970   -4.2900  -16.3390 C.3    36  PHE36       0.0560
     34  CG        38.4950   -5.4060  -16.4150 C.ar   36  PHE36      -0.0200
     35  CD1       38.8570   -6.6430  -16.9180 C.ar   36  PHE36      -0.0042
     36  CD2       37.1920   -5.2180  -15.9910 C.ar   36  PHE36      -0.0042
     37  CE1       37.9400   -7.6730  -16.9970 C.ar   36  PHE36      -0.0003
     38  CE2       36.2710   -6.2450  -16.0690 C.ar   36  PHE36      -0.0003
     39  CZ        36.6480   -7.4750  -16.5720 C.ar   36  PHE36      -0.0000
     40  N         41.3480   -8.1770  -12.2740 N.3    38  LEU38      -0.1245
     41  CA        41.8710   -8.2200  -10.9170 C.3    38  LEU38       0.1561
     42  C         40.7140   -8.1650   -9.9300 C.2    38  LEU38       0.2260
     43  O         39.8060   -7.3490  -10.0860 O.2    38  LEU38      -0.2867
     44  CB        42.8050   -7.0340  -10.6650 C.3    38  LEU38       0.0270
     45  CG        44.0740   -6.8960  -11.5050 C.3    38  LEU38       0.0019
     46  CD1       44.6640   -5.5040  -11.3290 C.3    38  LEU38       0.0001
     47  CD2       45.0770   -7.9580  -11.1040 C.3    38  LEU38       0.0001
     48  N         38.7410   -7.0810   -6.7670 N.3    40  LYS40      -0.1245
     49  CA        38.7210   -5.9010   -5.9230 C.3    40  LYS40       0.1561
     50  C         37.5930   -6.0450   -4.9240 C.2    40  LYS40       0.2260
     51  O         36.6820   -6.8590   -5.1040 O.2    40  LYS40      -0.2867
     52  CB        38.4950   -4.6290   -6.7440 C.3    40  LYS40       0.0271
     53  CG        39.5130   -4.3740   -7.8470 C.3    40  LYS40       0.0035
     54  CD        40.8880   -4.0300   -7.2980 C.3    40  LYS40       0.0206
     55  CE        41.8710   -3.7500   -8.4330 C.3    40  LYS40       0.1093
     56  NZ        43.1430   -3.1300   -7.9550 N.3    40  LYS40      -0.1314
     57  N         50.7080    0.8670   -7.5610 N.3    68  ILE68      -0.1231
     58  CA        49.6500    0.9480   -8.5590 C.3    68  ILE68       0.1692
     59  C         48.5160   -0.0010   -8.1720 C.2    68  ILE68       0.2593
     60  O         48.7550   -1.0820   -7.6320 O.2    68  ILE68      -0.2718
     61  CB        50.1860    0.6080   -9.9750 C.3    68  ILE68       0.0266
     62  CG1       49.1450    0.9340  -11.0490 C.3    68  ILE68       0.0019
     63  CG2       50.6290   -0.8500  -10.0570 C.3    68  ILE68       0.0020
     64  CD1       49.5530    0.5000  -12.4450 C.3    68  ILE68       0.0001
     65  N         47.2790    0.4240   -8.4190 N.am   69  GLY69      -0.1942
     66  CA        46.1170   -0.4030   -8.1510 C.3    69  GLY69       0.2014
     67  C         45.4620   -0.1700   -6.8020 C.2    69  GLY69       0.2639
     68  O         44.5630   -0.9170   -6.4180 O.2    69  GLY69      -0.2714
     69  N         45.8990    0.8660   -6.0860 N.am   70  ASP70      -0.1957
     70  CA        45.3900    1.1400   -4.7390 C.3    70  ASP70       0.1840
     71  C         43.8950    1.4510   -4.7350 C.2    70  ASP70       0.2623
     72  O         43.1770    1.1130   -3.7920 O.2    70  ASP70      -0.2715
     73  CB        46.1560    2.2950   -4.0950 C.3    70  ASP70       0.1450
     74  CG        47.3220    1.8220   -3.2410 C.2    70  ASP70       0.3671
     75  OD1       47.6260    0.6030   -3.2390 O.co2  70  ASP70      -0.2456
     76  OD2       47.9470    2.6770   -2.5720 O.co2  70  ASP70      -0.2456
     77  N         43.4350    2.1120   -5.7880 N.am   71  GLY71      -0.1940
     78  CA        42.0190    2.3570   -5.9620 C.3    71  GLY71       0.2014
     79  C         41.6030    3.7830   -5.6800 C.2    71  GLY71       0.2638
     80  O         42.4400    4.6860   -5.5660 O.2    71  GLY71      -0.2714
     81  N         40.2970    3.9840   -5.5580 N.am   72  LYS72      -0.1977
     82  CA        39.7540    5.3100   -5.3360 C.3    72  LYS72       0.1596
     83  C         38.6160    5.2840   -4.3400 C.2    72  LYS72       0.2287
     84  O         37.9900    4.2520   -4.0970 O.2    72  LYS72      -0.2864
     85  CB        39.2460    5.9150   -6.6480 C.3    72  LYS72       0.0298
     86  CG        40.3500    6.3250   -7.6040 C.3    72  LYS72       0.0038
     87  CD        39.8120    7.1720   -8.7390 C.3    72  LYS72       0.0206
     88  CE        40.9320    7.5500   -9.6880 C.3    72  LYS72       0.1093
     89  NZ        41.7200    6.3420  -10.0550 N.3    72  LYS72      -0.1314
     90  N         35.0060    7.4200   -3.5500 N.3    74  PHE74      -0.1241
     91  CA        34.0410    8.3730   -4.0780 C.3    74  PHE74       0.1605
     92  C         33.0160    8.7370   -3.0140 C.2    74  PHE74       0.2264
     93  O         32.6300    7.9010   -2.2020 O.2    74  PHE74      -0.2867
     94  CB        33.3350    7.7900   -5.3060 C.3    74  PHE74       0.0534
     95  CG        34.2770    7.2610   -6.3530 C.ar   74  PHE74      -0.0203
     96  CD1       35.1590    8.1100   -6.9990 C.ar   74  PHE74      -0.0042
     97  CD2       34.2960    5.9140   -6.6730 C.ar   74  PHE74      -0.0042
     98  CE1       36.0330    7.6300   -7.9520 C.ar   74  PHE74      -0.0003
     99  CE2       35.1690    5.4250   -7.6300 C.ar   74  PHE74      -0.0003
    100  CZ        36.0380    6.2850   -8.2690 C.ar   74  PHE74      -0.0000
@<TRIPOS>BOND
     1    37    35   ar
     2    37    39   ar
     3    35    34   ar
     4    39    38   ar
     5    34    33    1
     6    34    36   ar
     7    33    30    1
     8    38    36   ar
     9    31    30    1
    10    31    32    2
    11    30    29    1
    12    29    27   am
    13    28    27    2
    14    27    26    1
    15    24    23    1
    16    22    23    1
    17    22    21    1
    18    64    62    1
    19    40    41    1
    20    19    18    2
    21    20    21    1
    22    20    17    1
    23    26    25    1
    24    45    46    1
    25    45    47    1
    26    45    44    1
    27    18    25   am
    28    18    17    1
    29    62    61    1
    30    41    44    1
    31    41    42    1
    32    17    16    1
    33    43    42    2
    34    63    61    1
    35    89    88    1
    36    61    58    1
    37    16    11   am
    38    88    87    1
    39    87    86    1
    40    11    12    2
    41    11    10    1
    42    58    59    1
    43    58    57    1
    44    55    56    1
    45    55    54    1
    46    65    59   am
    47    65    66    1
    48   100    98   ar
    49   100    99   ar
    50    59    60    2
    51    66    67    1
    52    98    96   ar
    53    13    10    1
    54    13    14    1
    55    13    15    1
    56    53    54    1
    57    53    52    1
    58    10     9    1
    59    99    97   ar
    60    86    85    1
    61    96    95   ar
    62    67    68    2
    63    67    69   am
    64    48    49    1
    65    52    49    1
    66    97    95   ar
    67     7     5    1
    68    85    82    1
    69     6     8    1
    70     6     5    1
    71    95    94    1
    72    69    70    1
    73     5     2    1
    74    78    77    1
    75    78    79    1
    76    49    50    1
    77    77    71   am
    78    79    80    2
    79    79    81   am
    80    81    82    1
    81    82    83    1
    82    94    91    1
    83    51    50    2
    84    70    71    1
    85    70    73    1
    86    71    72    2
    87     2     3    1
    88     2     1    1
    89     4     3    2
    90    83    84    2
    91    73    74    1
    92    91    90    1
    93    91    92    1
    94    74    75   ar
    95    74    76   ar
    96    92    93    2
