@<TRIPOS>MOLECULE
tmp/4co4B00.pdb
 76 72 0 0 0
SMALL
GASTEIGER

@<TRIPOS>ATOM
      1  N         23.5020   -1.6290  -16.2900 N.3     7  ILE7       -0.1245
      2  CA        23.1450   -3.0330  -16.1460 C.3     7  ILE7        0.1561
      3  C         22.8910   -3.5810  -17.5280 C.2     7  ILE7        0.2260
      4  O         21.9420   -3.1750  -18.1870 O.2     7  ILE7       -0.2867
      5  CB        21.8470   -3.2120  -15.3250 C.3     7  ILE7        0.0252
      6  CG1       21.9480   -2.4800  -13.9860 C.3     7  ILE7        0.0019
      7  CG2       21.5400   -4.6850  -15.1290 C.3     7  ILE7        0.0019
      8  CD1       23.1160   -2.9280  -13.1420 C.3     7  ILE7        0.0001
      9  N         25.2070   -9.6080  -11.2730 N.3    33  VAL33      -0.1231
     10  CA        23.9930   -9.3340  -10.5150 C.3    33  VAL33       0.1692
     11  C         22.8200  -10.1260  -11.0810 C.2    33  VAL33       0.2592
     12  O         22.9400  -10.7600  -12.1360 O.2    33  VAL33      -0.2718
     13  CB        23.6520   -7.8330  -10.5320 C.3    33  VAL33       0.0266
     14  CG1       24.7800   -7.0260   -9.9100 C.3    33  VAL33       0.0020
     15  CG2       23.3700   -7.3640  -11.9530 C.3    33  VAL33       0.0020
     16  N         21.7000  -10.1030  -10.3660 N.am   34  LYS34      -0.1966
     17  CA        20.4730  -10.7590  -10.8110 C.3    34  LYS34       0.1728
     18  C         19.4780   -9.7020  -11.2500 C.2    34  LYS34       0.2617
     19  O         19.1790   -8.7680  -10.5030 O.2    34  LYS34      -0.2715
     20  CB        19.8630  -11.6130   -9.6980 C.3    34  LYS34       0.0311
     21  CG        20.7340  -12.7820   -9.2710 C.3    34  LYS34       0.0038
     22  CD        20.5680  -13.0960   -7.7920 C.3    34  LYS34       0.0206
     23  CE        21.5400  -14.1800   -7.3490 C.3    34  LYS34       0.1093
     24  NZ        21.4510  -15.3860   -8.2200 N.3    34  LYS34      -0.1314
     25  N         18.9600   -9.8530  -12.4620 N.am   35  GLY35      -0.1940
     26  CA        18.0380   -8.8860  -13.0180 C.3    35  GLY35       0.2014
     27  C         16.6170   -9.4000  -13.0940 C.2    35  GLY35       0.2638
     28  O         16.3420  -10.4010  -13.7550 O.2    35  GLY35      -0.2714
     29  N         15.7110   -8.7080  -12.4110 N.am   36  PHE36      -0.1973
     30  CA        14.2960   -9.0540  -12.4320 C.3    36  PHE36       0.1639
     31  C         13.5370   -8.1250  -13.3760 C.2    36  PHE36       0.2290
     32  O         14.0110   -7.0320  -13.6930 O.2    36  PHE36      -0.2864
     33  CB        13.7110   -8.9650  -11.0200 C.3    36  PHE36       0.0560
     34  CG        14.2090  -10.0390  -10.0830 C.ar   36  PHE36      -0.0200
     35  CD1       15.4110   -9.8970   -9.4080 C.ar   36  PHE36      -0.0042
     36  CD2       13.4670  -11.1900   -9.8760 C.ar   36  PHE36      -0.0042
     37  CE1       15.8640  -10.8890   -8.5410 C.ar   36  PHE36      -0.0003
     38  CE2       13.9120  -12.1800   -9.0170 C.ar   36  PHE36      -0.0003
     39  CZ        15.1110  -12.0280   -8.3470 C.ar   36  PHE36      -0.0000
     40  N         22.7150  -10.6950  -15.0600 N.3    40  LYS40      -0.1245
     41  CA        23.1000   -9.4530  -15.7240 C.3    40  LYS40       0.1561
     42  C         24.5020   -9.0710  -15.2750 C.2    40  LYS40       0.2260
     43  O         25.0310   -9.6200  -14.3010 O.2    40  LYS40      -0.2867
     44  CB        22.1340   -8.3120  -15.3900 C.3    40  LYS40       0.0271
     45  CG        20.6760   -8.5620  -15.7580 C.3    40  LYS40       0.0035
     46  CD        20.4540   -8.6520  -17.2690 C.3    40  LYS40       0.0206
     47  CE        18.9810   -8.8680  -17.5800 C.3    40  LYS40       0.1093
     48  NZ        18.6780   -8.8750  -19.0400 N.3    40  LYS40      -0.1314
     49  N         15.0930   -6.5350  -22.1830 N.3    69  GLY69      -0.1225
     50  CA        16.1580   -6.9030  -21.2620 C.3    69  GLY69       0.1811
     51  C         17.4920   -6.2010  -21.4600 C.2    69  GLY69       0.2280
     52  O         18.4510   -6.4720  -20.7320 O.2    69  GLY69      -0.2866
     53  N         18.4780   -3.3030  -20.7010 N.3    71  GLY71      -0.1210
     54  CA        18.9400   -2.6810  -19.4740 C.3    71  GLY71       0.1956
     55  C         18.9520   -1.1710  -19.4450 C.2    71  GLY71       0.2611
     56  O         18.3060   -0.5060  -20.2560 O.2    71  GLY71      -0.2717
     57  N         19.7090   -0.6310  -18.4950 N.am   72  LYS72      -0.1979
     58  CA        19.6650    0.7910  -18.1860 C.3    72  LYS72       0.1596
     59  C         21.0400    1.3310  -17.8640 C.2    72  LYS72       0.2287
     60  O         21.9180    0.6000  -17.4010 O.2    72  LYS72      -0.2864
     61  CB        18.7730    1.0330  -16.9590 C.3    72  LYS72       0.0298
     62  CG        17.3290    0.5700  -17.1100 C.3    72  LYS72       0.0038
     63  CD        16.5430    1.5600  -17.9380 C.3    72  LYS72       0.0206
     64  CE        15.2030    0.9870  -18.3620 C.3    72  LYS72       0.1093
     65  NZ        14.4960    0.3310  -17.2340 N.3    72  LYS72      -0.1314
     66  N         22.5470    4.4870  -15.5360 N.3    74  PHE74      -0.1241
     67  CA        22.2210    5.5290  -14.5650 C.3    74  PHE74       0.1605
     68  C         23.4510    6.3780  -14.2880 C.2    74  PHE74       0.2264
     69  O         24.5460    5.8590  -14.0980 O.2    74  PHE74      -0.2867
     70  CB        21.6990    4.9300  -13.2550 C.3    74  PHE74       0.0534
     71  CG        20.5070    4.0330  -13.4300 C.ar   74  PHE74      -0.0203
     72  CD1       19.3510    4.5080  -14.0220 C.ar   74  PHE74      -0.0042
     73  CD2       20.5370    2.7140  -12.9920 C.ar   74  PHE74      -0.0042
     74  CE1       18.2490    3.6870  -14.1890 C.ar   74  PHE74      -0.0003
     75  CE2       19.4350    1.8830  -13.1600 C.ar   74  PHE74      -0.0003
     76  CZ        18.2890    2.3740  -13.7570 C.ar   74  PHE74      -0.0000
@<TRIPOS>BOND
     1    49    50    1
     2    51    50    1
     3    51    52    2
     4    53    54    1
     5    56    55    2
     6    54    55    1
     7    55    57   am
     8    48    47    1
     9    57    58    1
    10    64    63    1
    11    64    65    1
    12     4     3    2
    13    58    59    1
    14    58    61    1
    15    63    62    1
    16    59    60    2
    17    47    46    1
    18     3     2    1
    19    46    45    1
    20    62    61    1
    21     1     2    1
    22     2     5    1
    23    45    44    1
    24    41    44    1
    25    41    42    1
    26    41    40    1
    27    66    67    1
    28     5     7    1
    29     5     6    1
    30    42    43    2
    31    67    68    1
    32    67    70    1
    33    68    69    2
    34    74    72   ar
    35    74    76   ar
    36    72    71   ar
    37     6     8    1
    38    76    75   ar
    39    28    27    2
    40    32    31    2
    41    71    70    1
    42    71    73   ar
    43    31    30    1
    44    75    73   ar
    45    27    26    1
    46    27    29   am
    47    26    25    1
    48    25    18   am
    49    30    29    1
    50    30    33    1
    51    12    11    2
    52    15    13    1
    53     9    10    1
    54    18    17    1
    55    18    19    2
    56    11    10    1
    57    11    16   am
    58    33    34    1
    59    17    16    1
    60    17    20    1
    61    13    10    1
    62    13    14    1
    63    34    36   ar
    64    34    35   ar
    65    36    38   ar
    66    20    21    1
    67    35    37   ar
    68    21    22    1
    69    38    39   ar
    70    37    39   ar
    71    24    23    1
    72    22    23    1
