@<TRIPOS>MOLECULE
tmp/4co4B01.pdb
 79 74 0 0 0
SMALL
GASTEIGER

@<TRIPOS>ATOM
      1  N         29.3300    9.1460  -11.5060 N.3     3  LEU3       -0.1245
      2  CA        29.3990    7.7010  -11.4850 C.3     3  LEU3        0.1561
      3  C         28.4420    7.2080  -12.5570 C.2     3  LEU3        0.2260
      4  O         27.2450    7.5030  -12.5050 O.2     3  LEU3       -0.2867
      5  CB        28.9680    7.1570  -10.1240 C.3     3  LEU3        0.0270
      6  CG        29.0360    5.6330  -10.0040 C.3     3  LEU3        0.0019
      7  CD1       30.4800    5.1580  -10.0940 C.3     3  LEU3        0.0001
      8  CD2       28.3890    5.1690   -8.7100 C.3     3  LEU3        0.0001
      9  N         39.6860    4.4510  -17.8550 N.3    26  GLN26      -0.1231
     10  CA        40.2830    3.4810  -16.9490 C.3    26  GLN26       0.1698
     11  C         39.4160    3.2590  -15.7130 C.2    26  GLN26       0.2593
     12  O         38.5210    4.0470  -15.4090 O.2    26  GLN26      -0.2718
     13  CB        41.6860    3.9310  -16.5220 C.3    26  GLN26       0.0381
     14  CG        42.7230    3.8020  -17.6160 C.3    26  GLN26       0.0905
     15  CD        42.8100    2.3800  -18.1470 C.2    26  GLN26       0.2608
     16  OE1       42.7600    1.4120  -17.3910 O.2    26  GLN26      -0.2717
     17  NE2       42.9240    2.2480  -19.4500 N.am   26  GLN26      -0.0878
     18  N         39.6910    2.1690  -15.0100 N.am   27  GLY27      -0.1942
     19  CA        39.0350    1.8720  -13.7540 C.3    27  GLY27       0.2014
     20  C         37.6270    1.3250  -13.8660 C.2    27  GLY27       0.2639
     21  O         36.7960    1.5600  -12.9960 O.2    27  GLY27      -0.2714
     22  N         37.3410    0.5960  -14.9330 N.am   28  LEU28      -0.1963
     23  CA        36.0580   -0.0780  -15.0330 C.3    28  LEU28       0.1728
     24  C         35.9530   -1.0640  -13.8740 C.2    28  LEU28       0.2616
     25  O         36.8940   -1.7990  -13.5850 O.2    28  LEU28      -0.2715
     26  CB        35.9460   -0.8030  -16.3780 C.3    28  LEU28       0.0311
     27  CG        34.6920   -1.6360  -16.6480 C.3    28  LEU28       0.0022
     28  CD1       33.4450   -0.7800  -16.4950 C.3    28  LEU28       0.0001
     29  CD2       34.7490   -2.2590  -18.0340 C.3    28  LEU28       0.0001
     30  N         34.8200   -1.0480  -13.1850 N.am   29  THR29      -0.1951
     31  CA        34.5330   -2.0530  -12.1790 C.3    29  THR29       0.1897
     32  C         33.3160   -2.8490  -12.6400 C.2    29  THR29       0.2313
     33  O         32.3520   -2.2820  -13.1470 O.2    29  THR29      -0.2863
     34  CB        34.2490   -1.4130  -10.8060 C.3    29  THR29       0.1794
     35  OG1       35.3680   -0.6120  -10.3990 O.3    29  THR29      -0.2208
     36  CG2       34.0180   -2.4770   -9.7720 C.3    29  THR29       0.0378
     37  N         30.5210   -0.2730  -13.7080 N.3    44  GLU44      -0.1231
     38  CA        30.5870    1.0160  -13.0400 C.3    44  GLU44       0.1699
     39  C         31.9020    1.7130  -13.2950 C.2    44  GLU44       0.2592
     40  O         32.9780    1.1270  -13.1420 O.2    44  GLU44      -0.2718
     41  CB        30.4090    0.8610  -11.5340 C.3    44  GLU44       0.0402
     42  CG        28.9950    0.5800  -11.1120 C.3    44  GLU44       0.1161
     43  CD        28.7810    0.8490   -9.6450 C.2    44  GLU44       0.3649
     44  OE1       29.7750    0.8610   -8.8890 O.co2  44  GLU44      -0.2457
     45  OE2       27.6230    1.0580   -9.2500 O.co2  44  GLU44      -0.2457
     46  N         31.8150    2.9830  -13.6640 N.am   45  VAL45      -0.1966
     47  CA        33.0110    3.7880  -13.8200 C.3    45  VAL45       0.1727
     48  C         32.7630    5.2350  -13.4010 C.2    45  VAL45       0.2616
     49  O         31.6890    5.8010  -13.6400 O.2    45  VAL45      -0.2715
     50  CB        33.5570    3.7140  -15.2600 C.3    45  VAL45       0.0290
     51  CG1       32.5880    4.3620  -16.2500 C.3    45  VAL45       0.0023
     52  CG2       34.9300    4.3580  -15.3370 C.3    45  VAL45       0.0023
     53  N         33.7560    5.8230  -12.7430 N.am   46  ALA46      -0.1977
     54  CA        33.6970    7.2280  -12.3770 C.3    46  ALA46       0.1597
     55  C         34.4640    8.0470  -13.4020 C.2    46  ALA46       0.2287
     56  O         35.6120    7.7340  -13.7320 O.2    46  ALA46      -0.2864
     57  CB        34.2530    7.4390  -10.9810 C.3    46  ALA46       0.0319
     58  N         42.2340    9.7220   -4.6640 N.3    83  ARG83      -0.1245
     59  CA        43.1260    8.6880   -5.1630 C.3    83  ARG83       0.1563
     60  C         43.8510    8.0680   -3.9730 C.2    83  ARG83       0.2260
     61  O         44.6370    8.7310   -3.3070 O.2    83  ARG83      -0.2867
     62  CB        44.1280    9.2880   -6.1510 C.3    83  ARG83       0.0307
     63  CG        44.9260    8.2640   -6.9480 C.3    83  ARG83       0.0489
     64  CD        45.3450    8.8060   -8.3140 C.3    83  ARG83       0.2205
     65  NE        45.9850   10.1150   -8.2170 N.pl3  83  ARG83      -0.0865
     66  CZ        45.4170   11.2560   -8.5970 C.cat  83  ARG83       0.5346
     67  NH1       44.2200   11.2490   -9.1730 N.pl3  83  ARG83       0.1354
     68  NH2       46.0540   12.4050   -8.4180 N.pl3  83  ARG83       0.1354
     69  N         46.2110    5.9670   -3.6480 N.3    85  ARG85      -0.1245
     70  CA        47.6670    5.8440   -3.7600 C.3    85  ARG85       0.1563
     71  C         48.4160    7.0870   -3.2780 C.2    85  ARG85       0.2260
     72  O         49.4970    6.9850   -2.6950 O.2    85  ARG85      -0.2867
     73  CB        48.0530    5.5220   -5.2080 C.3    85  ARG85       0.0307
     74  CG        49.5270    5.2290   -5.4490 C.3    85  ARG85       0.0489
     75  CD        49.7750    5.0260   -6.9410 C.3    85  ARG85       0.2205
     76  NE        51.1360    4.5850   -7.2300 N.pl3  85  ARG85      -0.0865
     77  CZ        51.6300    4.4380   -8.4560 C.cat  85  ARG85       0.5346
     78  NH1       50.8720    4.7030   -9.5130 N.pl3  85  ARG85       0.1354
     79  NH2       52.8820    4.0290   -8.6270 N.pl3  85  ARG85       0.1354
@<TRIPOS>BOND
     1    17    15   am
     2    15    14    1
     3    15    16    2
     4    29    27    1
     5     9    10    1
     6    14    13    1
     7    10    13    1
     8    10    11    1
     9    27    28    1
    10    27    26    1
    11    26    23    1
    12    51    50    1
    13    11    12    2
    14    11    18   am
    15    52    50    1
    16    50    47    1
    17    23    22    1
    18    23    24    1
    19    18    19    1
    20    22    20   am
    21    24    25    2
    22    24    30   am
    23    20    19    1
    24    20    21    2
    25    47    46    1
    26    47    48    1
    27    56    55    2
    28    37    38    1
    29    46    39   am
    30    49    48    2
    31    55    54    1
    32    48    53   am
    33    39    40    2
    34    39    38    1
    35    30    31    1
    36    33    32    2
    37    38    41    1
    38    53    54    1
    39    32    31    1
    40     3     4    2
    41     3     2    1
    42    54    57    1
    43    31    34    1
    44    41    42    1
    45     1     2    1
    46     2     5    1
    47    42    43    1
    48    34    35    1
    49    34    36    1
    50     5     6    1
    51     7     6    1
    52     6     8    1
    53    43    45   ar
    54    43    44   ar
    55    78    77    1
    56    67    66    1
    57    79    77    1
    58    66    68    1
    59    66    65    2
    60    77    76    2
    61    64    65    1
    62    64    63    1
    63    76    75    1
    64    63    62    1
    65    75    74    1
    66    62    59    1
    67    74    73    1
    68    73    70    1
    69    59    58    1
    70    59    60    1
    71    60    61    2
    72    70    69    1
    73    70    71    1
    74    71    72    2
