@<TRIPOS>MOLECULE
tmp/4codD00.pdb
 145 138 0 0 0
SMALL
GASTEIGER

@<TRIPOS>ATOM
      1  N         28.1690   64.1800  -73.8220 N.3    95  GLY95      -0.1210
      2  CA        26.9770   63.5380  -74.3500 C.3    95  GLY95       0.1956
      3  C         27.2900   62.7520  -75.6000 C.2    95  GLY95       0.2612
      4  O         28.2250   63.0970  -76.3250 O.2    95  GLY95      -0.2717
      5  N         26.5060   61.6970  -75.8670 N.am   96  PHE96      -0.1962
      6  CA        26.6150   60.8410  -77.0510 C.3    96  PHE96       0.1771
      7  C         25.4740   59.8650  -77.1310 C.2    96  PHE96       0.2619
      8  O         25.0460   59.3510  -76.1060 O.2    96  PHE96      -0.2715
      9  CB        27.9510   60.0540  -77.0960 C.3    96  PHE96       0.0574
     10  CG        28.0590   59.1080  -78.2720 C.ar   96  PHE96      -0.0200
     11  CD1       28.1910   59.5960  -79.5720 C.ar   96  PHE96      -0.0042
     12  CD2       27.9610   57.7340  -78.0900 C.ar   96  PHE96      -0.0042
     13  CE1       28.2510   58.7210  -80.6630 C.ar   96  PHE96      -0.0003
     14  CE2       28.0250   56.8590  -79.1830 C.ar   96  PHE96      -0.0003
     15  CZ        28.1650   57.3600  -80.4610 C.ar   96  PHE96      -0.0000
     16  N         25.0390   59.5580  -78.3560 N.am   97  MET97      -0.1977
     17  CA        24.0350   58.5530  -78.6840 C.3    97  MET97       0.1605
     18  C         24.3870   57.9520  -80.0490 C.2    97  MET97       0.2287
     19  O         24.5100   58.7160  -81.0090 O.2    97  MET97      -0.2864
     20  CB        22.6190   59.1530  -78.7010 C.3    97  MET97       0.0413
     21  CG        21.5200   58.1360  -78.9790 C.3    97  MET97       0.0598
     22  SD        21.3430   56.7960  -77.7620 S.3    97  MET97      -0.1393
     23  CE        20.6730   57.6980  -76.3560 C.3    97  MET97       0.0692
     24  N         24.1480   56.1190  -83.8780 N.3    99  GLN99      -0.1245
     25  CA        23.2970   56.3260  -85.0700 C.3    99  GLN99       0.1566
     26  C         21.9400   55.5950  -85.0440 C.2    99  GLN99       0.2260
     27  O         20.9680   56.0920  -85.6180 O.2    99  GLN99      -0.2867
     28  CB        24.0570   55.9720  -86.3510 C.3    99  GLN99       0.0367
     29  CG        24.7530   57.1580  -87.0040 C.3    99  GLN99       0.0905
     30  CD        25.5300   56.7970  -88.2600 C.2    99  GLN99       0.2608
     31  OE1       25.7920   55.6220  -88.5600 O.2    99  GLN99      -0.2717
     32  NE2       25.9400   57.8150  -89.0180 N.am   99  GLN99      -0.0878
     33  N         19.7450   57.8170  -82.9290 N.3   102  MET102     -0.1230
     34  CA        19.7170   59.2080  -83.3700 C.3   102  MET102      0.1702
     35  C         19.8850   59.3940  -84.8830 C.2   102  MET102      0.2592
     36  O         20.9030   58.9760  -85.4490 O.2   102  MET102     -0.2718
     37  CB        20.8320   59.9540  -82.6500 C.3   102  MET102      0.0401
     38  CG        20.5730   61.3740  -82.5230 C.3   102  MET102      0.0596
     39  SD        21.7700   62.1040  -81.4250 S.3   102  MET102     -0.1393
     40  CE        21.0320   63.6350  -81.2600 C.3   102  MET102      0.0692
     41  N         18.9270   60.0730  -85.5120 N.am  103  GLY103     -0.1957
     42  CA        19.0030   60.3490  -86.9410 C.3   103  GLY103      0.1869
     43  C         17.8080   59.9460  -87.7670 C.2   103  GLY103      0.2309
     44  O         16.7440   60.5610  -87.6420 O.2   103  GLY103     -0.2863
     45  N         19.2500   69.7470  -73.4960 N.3   148  PHE148     -0.1241
     46  CA        18.4890   70.1370  -74.6840 C.3   148  PHE148      0.1605
     47  C         17.0440   69.7230  -74.4170 C.2   148  PHE148      0.2264
     48  O         16.7560   68.5230  -74.4400 O.2   148  PHE148     -0.2867
     49  CB        19.0370   69.4540  -75.9490 C.3   148  PHE148      0.0534
     50  CG        18.3550   69.8920  -77.2270 C.ar  148  PHE148     -0.0203
     51  CD1       18.5590   71.1690  -77.7420 C.ar  148  PHE148     -0.0042
     52  CD2       17.5020   69.0310  -77.9100 C.ar  148  PHE148     -0.0042
     53  CE1       17.9240   71.5800  -78.9150 C.ar  148  PHE148     -0.0003
     54  CE2       16.8430   69.4540  -79.0660 C.ar  148  PHE148     -0.0003
     55  CZ        17.0830   70.7200  -79.5770 C.ar  148  PHE148     -0.0000
     56  N         14.0720   63.0570  -85.3830 N.3   156  ALA156     -0.1231
     57  CA        15.4960   62.7210  -85.4460 C.3   156  ALA156      0.1694
     58  C         16.2150   62.4950  -84.1190 C.2   156  ALA156      0.2592
     59  O         17.0140   61.5590  -84.0270 O.2   156  ALA156     -0.2718
     60  CB        16.2460   63.7720  -86.2580 C.3   156  ALA156      0.0304
     61  N         15.9790   63.3700  -83.1220 N.am  157  TYR157     -0.1976
     62  CA        16.6150   63.3410  -81.8000 C.3   157  TYR157      0.1639
     63  C         16.3410   62.0410  -81.0740 C.2   157  TYR157      0.2290
     64  O         17.2450   61.4720  -80.4550 O.2   157  TYR157     -0.2864
     65  CB        16.2000   64.5590  -80.9850 C.3   157  TYR157      0.0560
     66  CG        16.8610   65.8410  -81.4380 C.ar  157  TYR157     -0.0198
     67  CD1       16.2810   66.6420  -82.4180 C.ar  157  TYR157     -0.0009
     68  CD2       18.0510   66.2750  -80.8590 C.ar  157  TYR157     -0.0009
     69  CE1       16.8730   67.8400  -82.8180 C.ar  157  TYR157      0.0417
     70  CE2       18.6630   67.4590  -81.2650 C.ar  157  TYR157      0.0417
     71  CZ        18.0610   68.2480  -82.2310 C.ar  157  TYR157      0.1957
     72  OH        18.6390   69.4400  -82.5890 O.3   157  TYR157     -0.2866
     73  N         18.1900   60.4840  -77.9150 N.3   160  MET160     -0.1245
     74  CA        18.9690   61.5060  -77.2080 C.3   160  MET160      0.1570
     75  C         17.9990   62.3190  -76.3710 C.2   160  MET160      0.2261
     76  O         18.3220   62.6470  -75.2260 O.2   160  MET160     -0.2867
     77  CB        19.7580   62.3940  -78.1660 C.3   160  MET160      0.0387
     78  CG        20.5090   63.5200  -77.4750 C.3   160  MET160      0.0595
     79  SD        21.7520   62.9880  -76.2730 S.3   160  MET160     -0.1393
     80  CE        23.0710   62.5030  -77.3680 C.3   160  MET160      0.0692
     81  N         18.2500   62.9270  -72.4550 N.3   164  LYS164     -0.1245
     82  CA        18.1770   64.2630  -71.8440 C.3   164  LYS164      0.1561
     83  C         17.1150   64.3160  -70.7570 C.2   164  LYS164      0.2260
     84  O         17.3580   64.8910  -69.6840 O.2   164  LYS164     -0.2867
     85  CB        17.9770   65.3820  -72.8930 C.3   164  LYS164      0.0271
     86  CG        19.1790   65.6300  -73.8000 C.3   164  LYS164      0.0035
     87  CD        20.4790   65.9420  -73.0070 C.3   164  LYS164      0.0206
     88  CE        21.5900   66.4460  -73.9040 C.3   164  LYS164      0.1093
     89  NZ        22.8640   66.6710  -73.1590 N.3   164  LYS164     -0.1314
     90  N         29.9060   69.2710  -83.3010 N.3   196  LEU196     -0.1231
     91  CA        30.0690   67.9300  -83.8720 C.3   196  LEU196      0.1693
     92  C         28.8750   67.0410  -83.5640 C.2   196  LEU196      0.2592
     93  O         28.6540   66.0370  -84.2390 O.2   196  LEU196     -0.2718
     94  CB        31.3790   67.2700  -83.4100 C.3   196  LEU196      0.0284
     95  CG        32.6540   67.7510  -84.1030 C.3   196  LEU196      0.0019
     96  CD1       33.8650   67.0570  -83.5370 C.3   196  LEU196      0.0001
     97  CD2       32.5930   67.5320  -85.6080 C.3   196  LEU196      0.0001
     98  N         28.0940   67.4400  -82.5600 N.am  197  ALA197     -0.1966
     99  CA        26.8770   66.7920  -82.1050 C.3   197  ALA197      0.1728
    100  C         25.7800   66.8300  -83.1790 C.2   197  ALA197      0.2616
    101  O         24.9070   65.9570  -83.1890 O.2   197  ALA197     -0.2715
    102  CB        26.3900   67.4820  -80.8360 C.3   197  ALA197      0.0334
    103  N         25.8540   67.8130  -84.1000 N.am  198  MET198     -0.1963
    104  CA        24.8710   68.0290  -85.1650 C.3   198  MET198      0.1736
    105  C         25.3930   67.8700  -86.5960 C.2   198  MET198      0.2617
    106  O         24.6030   67.5570  -87.4840 O.2   198  MET198     -0.2715
    107  CB        24.2340   69.4120  -85.0120 C.3   198  MET198      0.0427
    108  CG        23.4740   69.5850  -83.7160 C.3   198  MET198      0.0599
    109  SD        21.9520   70.5310  -83.8920 S.3   198  MET198     -0.1393
    110  CE        22.5940   72.1180  -84.4820 C.3   198  MET198      0.0692
    111  N         26.7090   68.0930  -86.8130 N.am  199  SER199     -0.1936
    112  CA        27.4530   68.0730  -88.0830 C.3   199  SER199      0.2055
    113  C         27.0690   66.9860  -89.1280 C.2   199  SER199      0.2643
    114  O         27.1900   67.2520  -90.3300 O.2   199  SER199     -0.2714
    115  CB        28.9510   67.9970  -87.8110 C.3   199  SER199      0.2130
    116  OG        29.2550   66.9140  -86.9520 O.3   199  SER199     -0.2179
    117  N         26.6320   65.7860  -88.6970 N.am  200  ALA200     -0.1963
    118  CA        26.2470   64.7380  -89.6540 C.3   200  ALA200      0.1728
    119  C         24.8920   65.0300  -90.3190 C.2   200  ALA200      0.2616
    120  O         24.7860   64.9890  -91.5550 O.2   200  ALA200     -0.2715
    121  CB        26.2210   63.3790  -88.9760 C.3   200  ALA200      0.0334
    122  N         23.8650   65.3300  -89.4930 N.am  201  ILE201     -0.1977
    123  CA        22.5080   65.6450  -89.9420 C.3   201  ILE201      0.1596
    124  C         22.4440   66.9980  -90.7100 C.2   201  ILE201      0.2287
    125  O         21.6870   67.0980  -91.6780 O.2   201  ILE201     -0.2864
    126  CB        21.4800   65.5490  -88.7730 C.3   201  ILE201      0.0276
    127  CG1       20.0370   65.4480  -89.3090 C.3   201  ILE201      0.0022
    128  CG2       21.6510   66.6720  -87.7260 C.3   201  ILE201      0.0022
    129  CD1       19.1330   64.6210  -88.5210 C.3   201  ILE201      0.0001
    130  N         22.8350   62.1210  -93.5260 N.3   206  LEU206     -0.1245
    131  CA        21.7010   61.2320  -93.2500 C.3   206  LEU206      0.1561
    132  C         20.5650   61.4240  -94.3050 C.2   206  LEU206      0.2260
    133  O         19.4070   61.0100  -94.1020 O.2   206  LEU206     -0.2867
    134  CB        21.2050   61.4040  -91.8000 C.3   206  LEU206      0.0270
    135  CG        22.2330   61.3970  -90.6500 C.3   206  LEU206      0.0019
    136  CD1       21.5230   61.3700  -89.3410 C.3   206  LEU206      0.0001
    137  CD2       23.1640   60.1920  -90.6930 C.3   206  LEU206      0.0001
    138  N         16.1210   69.0620  -89.5940 N.3   214  ILE214     -0.1245
    139  CA        16.9300   69.9450  -88.7540 C.3   214  ILE214      0.1561
    140  C         16.7400   71.3900  -89.1730 C.2   214  ILE214      0.2260
    141  O         16.5260   72.2320  -88.3110 O.2   214  ILE214     -0.2867
    142  CB        18.4080   69.4750  -88.6910 C.3   214  ILE214      0.0252
    143  CG1       18.5440   68.2420  -87.7690 C.3   214  ILE214      0.0019
    144  CG2       19.4000   70.5900  -88.3000 C.3   214  ILE214      0.0019
    145  CD1       18.1460   68.3690  -86.2760 C.3   214  ILE214      0.0001
@<TRIPOS>BOND
     1   132   133    2
     2   132   131    1
     3   130   131    1
     4   131   134    1
     5   134   135    1
     6   125   124    2
     7   120   119    2
     8   124   123    1
     9   137   135    1
    10   135   136    1
    11   114   113    2
    12   119   118    1
    13   119   122   am
    14   123   122    1
    15   123   126    1
    16   118   121    1
    17   118   117    1
    18   138   139    1
    19   127   126    1
    20   127   129    1
    21   140   139    1
    22   140   141    2
    23   113   117   am
    24   113   112    1
    25    32    30   am
    26   126   128    1
    27   139   142    1
    28   142   144    1
    29   142   143    1
    30    31    30    2
    31    30    29    1
    32   112   115    1
    33   112   111    1
    34   115   116    1
    35   143   145    1
    36    43    44    2
    37    43    42    1
    38   106   105    2
    39    29    28    1
    40    42    41    1
    41   111   105   am
    42   105   104    1
    43    28    25    1
    44    60    57    1
    45    27    26    2
    46    97    95    1
    47    41    35   am
    48    36    35    2
    49    57    56    1
    50    57    58    1
    51   104   107    1
    52   104   103    1
    53    25    26    1
    54    25    24    1
    55   107   108    1
    56    35    34    1
    57   110   109    1
    58    93    92    2
    59    58    59    2
    60    58    61   am
    61    95    96    1
    62    95    94    1
    63   103   100   am
    64   109   108    1
    65    91    92    1
    66    91    94    1
    67    91    90    1
    68    92    98   am
    69    34    33    1
    70    34    37    1
    71   101   100    2
    72   100    99    1
    73    61    62    1
    74    69    67   ar
    75    69    71   ar
    76    37    38    1
    77    72    71    1
    78    98    99    1
    79    38    39    1
    80    67    66   ar
    81    71    70   ar
    82    99   102    1
    83    62    63    1
    84    62    65    1
    85    66    65    1
    86    66    68   ar
    87    39    40    1
    88    70    68   ar
    89    63    64    2
    90    19    18    2
    91    13    15   ar
    92    13    11   ar
    93    15    14   ar
    94    18    17    1
    95    55    54   ar
    96    55    53   ar
    97    11    10   ar
    98    14    12   ar
    99    54    52   ar
   100    21    20    1
   101    21    22    1
   102    53    51   ar
   103    20    17    1
   104    17    16    1
   105    16     7   am
   106    10    12   ar
   107    10     9    1
   108    77    78    1
   109    77    74    1
   110    73    74    1
   111    52    50   ar
   112    22    23    1
   113    51    50   ar
   114    78    79    1
   115    80    79    1
   116    50    49    1
   117    74    75    1
   118     7     6    1
   119     7     8    2
   120     9     6    1
   121     6     5    1
   122    75    76    2
   123     4     3    2
   124    49    46    1
   125     5     3   am
   126     3     2    1
   127    46    47    1
   128    46    45    1
   129    48    47    2
   130     2     1    1
   131    88    89    1
   132    88    87    1
   133    86    87    1
   134    86    85    1
   135    85    82    1
   136    81    82    1
   137    82    83    1
   138    83    84    2
