@<TRIPOS>MOLECULE
tmp/4cofA03.pdb
 114 109 0 0 0
SMALL
GASTEIGER

@<TRIPOS>ATOM
      1  N         -3.3370  -27.2980  142.8930 N.3   149  ASN149     -0.1240
      2  CA        -3.7540  -27.8040  141.5940 C.3   149  ASN149      0.1653
      3  C         -4.1630  -26.6030  140.7390 C.2   149  ASN149      0.2266
      4  O         -5.1310  -25.9160  141.0720 O.2   149  ASN149     -0.2867
      5  CB        -4.8570  -28.8630  141.7460 C.3   149  ASN149      0.1155
      6  CG        -5.6730  -29.2380  140.5190 C.2   149  ASN149      0.2627
      7  OD1       -6.1640  -28.3730  139.7670 O.2   149  ASN149     -0.2716
      8  ND2       -5.8910  -30.5530  140.3270 N.am  149  ASN149     -0.0877
      9  N         -5.0890  -25.1410  136.7960 N.3   151  THR151     -0.1218
     10  CA        -5.5670  -25.6400  135.5080 C.3   151  THR151      0.1862
     11  C         -5.6480  -24.5700  134.4360 C.2   151  THR151      0.2287
     12  O         -5.6200  -23.3830  134.7340 O.2   151  THR151     -0.2866
     13  CB        -6.9710  -26.2730  135.6520 C.3   151  THR151      0.1770
     14  OG1       -7.9370  -25.2560  135.9470 O.3   151  THR151     -0.2211
     15  CG2       -7.0260  -27.4060  136.6750 C.3   151  THR151      0.0375
     16  N         -8.3800  -23.9900  131.3880 N.3   153  GLU153     -0.1245
     17  CA        -9.6760  -24.4070  130.8490 C.3   153  GLU153      0.1567
     18  C         -9.8680  -23.8500  129.4560 C.2   153  GLU153      0.2260
     19  O        -10.0060  -22.6360  129.3000 O.2   153  GLU153     -0.2867
     20  CB       -10.8300  -23.9790  131.7750 C.3   153  GLU153      0.0388
     21  CG       -10.7310  -24.5050  133.1990 C.3   153  GLU153      0.1160
     22  CD       -10.7320  -26.0140  133.3480 C.2   153  GLU153      0.3649
     23  OE1      -11.6770  -26.6680  132.8460 O.co2 153  GLU153     -0.2457
     24  OE2       -9.7900  -26.5420  133.9840 O.co2 153  GLU153     -0.2457
     25  N          2.8120  -33.7290  138.8730 N.3   190  GLU190     -0.1231
     26  CA         1.9470  -34.4460  137.9320 C.3   190  GLU190      0.1699
     27  C          1.1670  -33.4750  137.0390 C.2   190  GLU190      0.2592
     28  O          0.9470  -32.3240  137.4270 O.2   190  GLU190     -0.2718
     29  CB         0.9460  -35.3090  138.7300 C.3   190  GLU190      0.0402
     30  CG         0.4050  -36.4970  137.9540 C.3   190  GLU190      0.1161
     31  CD        -0.9810  -36.9830  138.3350 C.2   190  GLU190      0.3649
     32  OE1       -1.4490  -36.6610  139.4530 O.co2 190  GLU190     -0.2457
     33  OE2       -1.5920  -37.7080  137.5140 O.co2 190  GLU190     -0.2457
     34  N          0.7120  -33.9500  135.8620 N.am  191  HIS191     -0.1962
     35  CA        -0.1530  -33.1640  134.9720 C.3   191  HIS191      0.1787
     36  C         -1.1770  -34.0820  134.3020 C.2   191  HIS191      0.2620
     37  O         -0.8520  -35.2340  134.0290 O.2   191  HIS191     -0.2715
     38  CB         0.6340  -32.3140  133.9580 C.3   191  HIS191      0.0785
     39  CG         1.1870  -33.0620  132.7950 C.ar  191  HIS191      0.0821
     40  ND1        0.5100  -33.1020  131.5890 N.ar  191  HIS191     -0.2267
     41  CD2        2.3470  -33.7490  132.6770 C.ar  191  HIS191      0.1154
     42  CE1        1.2740  -33.8100  130.7740 C.ar  191  HIS191      0.1986
     43  NE2        2.3910  -34.2230  131.3830 N.ar  191  HIS191     -0.2212
     44  N         -2.4280  -33.6050  134.1290 N.am  192  ARG192     -0.1963
     45  CA        -3.5140  -34.4030  133.5450 C.3   192  ARG192      0.1729
     46  C         -4.2940  -33.6540  132.4380 C.2   192  ARG192      0.2616
     47  O         -4.6150  -32.4680  132.5920 O.2   192  ARG192     -0.2715
     48  CB        -4.5000  -34.8910  134.6340 C.3   192  ARG192      0.0348
     49  CG        -3.9190  -35.9250  135.6050 C.3   192  ARG192      0.0492
     50  CD        -4.9560  -36.4040  136.6050 C.3   192  ARG192      0.2205
     51  NE        -4.3660  -36.7670  137.8970 N.pl3 192  ARG192     -0.0865
     52  CZ        -5.0360  -36.8240  139.0470 C.cat 192  ARG192      0.5346
     53  NH1       -6.3310  -36.5380  139.0870 N.pl3 192  ARG192      0.1354
     54  NH2       -4.4130  -37.1610  140.1700 N.pl3 192  ARG192      0.1354
     55  N         -4.6130  -34.3730  131.3230 N.am  193  LEU193     -0.1963
     56  CA        -5.4220  -33.8460  130.2140 C.3   193  LEU193      0.1728
     57  C         -6.8210  -34.3970  130.3430 C.2   193  LEU193      0.2616
     58  O         -6.9820  -35.5670  130.6870 O.2   193  LEU193     -0.2715
     59  CB        -4.8300  -34.1730  128.8390 C.3   193  LEU193      0.0311
     60  CG        -3.3510  -33.8620  128.6360 C.3   193  LEU193      0.0022
     61  CD1       -2.9350  -34.1510  127.2300 C.3   193  LEU193      0.0001
     62  CD2       -3.0380  -32.4190  128.9610 C.3   193  LEU193      0.0001
     63  N         -7.8310  -33.5510  130.1490 N.am  194  VAL194     -0.1977
     64  CA        -9.2400  -33.9370  130.2950 C.3   194  VAL194      0.1596
     65  C        -10.0550  -33.3660  129.1190 C.2   194  VAL194      0.2287
     66  O         -9.7980  -32.2460  128.6740 O.2   194  VAL194     -0.2864
     67  CB        -9.7970  -33.4740  131.6820 C.3   194  VAL194      0.0276
     68  CG1      -11.3240  -33.4780  131.7390 C.3   194  VAL194      0.0022
     69  CG2       -9.2320  -34.3100  132.8210 C.3   194  VAL194      0.0022
     70  N        -14.2190  -32.9190  127.9510 N.3   196  ARG196     -0.1245
     71  CA       -15.5990  -32.8950  128.4540 C.3   196  ARG196      0.1563
     72  C        -16.5240  -32.1570  127.5090 C.2   196  ARG196      0.2260
     73  O        -16.0780  -31.6070  126.5050 O.2   196  ARG196     -0.2867
     74  CB       -15.6660  -32.1730  129.8080 C.3   196  ARG196      0.0307
     75  CG       -15.0640  -32.8730  131.0010 C.3   196  ARG196      0.0489
     76  CD       -14.7130  -31.8550  132.0850 C.3   196  ARG196      0.2205
     77  NE       -15.8890  -31.1860  132.6530 N.pl3 196  ARG196     -0.0865
     78  CZ       -15.8590  -30.0260  133.3010 C.cat 196  ARG196      0.5346
     79  NH1      -14.7120  -29.3690  133.4570 N.pl3 196  ARG196      0.1354
     80  NH2      -16.9760  -29.5050  133.7950 N.pl3 196  ARG196      0.1354
     81  N         -9.2240  -29.5880  129.1660 N.3   209  SER209     -0.1217
     82  CA        -8.7020  -29.1400  130.4560 C.3   209  SER209      0.1889
     83  C         -7.2840  -29.6490  130.7010 C.2   209  SER209      0.2288
     84  O         -7.0420  -30.8550  130.5990 O.2   209  SER209     -0.2866
     85  CB        -9.6440  -29.6050  131.5630 C.3   209  SER209      0.2089
     86  OG        -9.1430  -29.3460  132.8610 O.3   209  SER209     -0.2183
     87  N         -4.2590  -29.7400  133.5990 N.3   211  SER211     -0.1202
     88  CA        -4.0830  -29.6060  135.0630 C.3   211  SER211      0.2020
     89  C         -2.6510  -29.8670  135.5190 C.2   211  SER211      0.2619
     90  O         -1.9880  -30.7360  134.9760 O.2   211  SER211     -0.2717
     91  CB        -5.0060  -30.5790  135.8030 C.3   211  SER211      0.2103
     92  OG        -6.1630  -30.9650  135.0700 O.3   211  SER211     -0.2182
     93  N         -2.1840  -29.1290  136.5190 N.am  212  PHE212     -0.1961
     94  CA        -0.8700  -29.3320  137.1460 C.3   212  PHE212      0.1771
     95  C         -1.0320  -29.5490  138.6320 C.2   212  PHE212      0.2619
     96  O         -2.0000  -29.0520  139.2190 O.2   212  PHE212     -0.2715
     97  CB         0.0660  -28.1290  136.9520 C.3   212  PHE212      0.0574
     98  CG         0.2150  -27.6160  135.5530 C.ar  212  PHE212     -0.0200
     99  CD1        1.0600  -28.2560  134.6470 C.ar  212  PHE212     -0.0042
    100  CD2       -0.4490  -26.4630  135.1450 C.ar  212  PHE212     -0.0042
    101  CE1        1.2000  -27.7770  133.3330 C.ar  212  PHE212     -0.0003
    102  CE2       -0.3010  -25.9750  133.8410 C.ar  212  PHE212     -0.0003
    103  CZ         0.5180  -26.6400  132.9400 C.ar  212  PHE212     -0.0000
    104  N         -0.0720  -30.2620  139.2470 N.am  213  ARG213     -0.1977
    105  CA         0.0120  -30.4370  140.6920 C.3   213  ARG213      0.1597
    106  C          1.3430  -29.8980  141.1040 C.2   213  ARG213      0.2287
    107  O          2.3770  -30.5030  140.8100 O.2   213  ARG213     -0.2864
    108  CB        -0.1830  -31.8790  141.1410 C.3   213  ARG213      0.0334
    109  CG        -1.4770  -32.0470  141.9100 C.3   213  ARG213      0.0492
    110  CD        -1.3350  -32.6330  143.3120 C.3   213  ARG213      0.2205
    111  NE        -0.4250  -33.7830  143.4370 N.pl3 213  ARG213     -0.0865
    112  CZ        -0.6510  -35.0090  142.9620 C.cat 213  ARG213      0.5346
    113  NH1       -1.7470  -35.2660  142.2510 N.pl3 213  ARG213      0.1354
    114  NH2        0.2300  -35.9790  143.1700 N.pl3 213  ARG213      0.1354
@<TRIPOS>BOND
     1    73    72    2
     2    61    60    1
     3    72    71    1
     4    70    71    1
     5    71    74    1
     6    60    59    1
     7    60    62    1
     8    66    65    2
     9    59    56    1
    10    65    64    1
    11    81    82    1
    12    19    18    2
    13    18    17    1
    14    74    75    1
    15    63    64    1
    16    63    57   am
    17    56    57    1
    18    56    55    1
    19    64    67    1
    20    57    58    2
    21    82    83    1
    22    82    85    1
    23    84    83    2
    24    42    43   ar
    25    42    40   ar
    26    17    16    1
    27    17    20    1
    28    75    76    1
    29    55    46   am
    30    43    41   ar
    31    85    86    1
    32    40    39   ar
    33    67    68    1
    34    67    69    1
    35    20    21    1
    36    76    77    1
    37    46    47    2
    38    46    45    1
    39    77    78    2
    40    41    39   ar
    41    39    38    1
    42    23    22   ar
    43   103   101   ar
    44   103   102   ar
    45    21    22    1
    46    78    79    1
    47    78    80    1
    48   101    99   ar
    49    22    24   ar
    50    45    44    1
    51    45    48    1
    52    87    88    1
    53   102   100   ar
    54    38    35    1
    55    37    36    2
    56    44    36   am
    57    36    35    1
    58    11    12    2
    59    11    10    1
    60    48    49    1
    61    99    98   ar
    62    35    34    1
    63    90    89    2
    64    88    89    1
    65    88    91    1
    66    92    91    1
    67   100    98   ar
    68    10    13    1
    69    10     9    1
    70    89    93   am
    71    98    97    1
    72    49    50    1
    73    13    14    1
    74    13    15    1
    75    34    27   am
    76    93    94    1
    77    50    51    1
    78    97    94    1
    79    27    28    2
    80    27    26    1
    81    94    95    1
    82    33    31   ar
    83    51    52    2
    84    26    29    1
    85    26    25    1
    86    30    31    1
    87    30    29    1
    88    31    32   ar
    89    95    96    2
    90    95   104   am
    91    52    53    1
    92    52    54    1
    93   104   105    1
    94     7     6    2
    95     8     6   am
    96     6     5    1
    97   105   106    1
    98   105   108    1
    99     3     4    2
   100     3     2    1
   101   107   106    2
   102   108   109    1
   103     2     5    1
   104     2     1    1
   105   109   110    1
   106   113   112    1
   107   112   114    1
   108   112   111    2
   109   110   111    1
