@<TRIPOS>MOLECULE
tmp/4cohA01.pdb
 211 198 0 0 0
SMALL
GASTEIGER

@<TRIPOS>ATOM
      1  N         23.3510    0.2750   -7.9880 N.3    16  ILE16      -0.1245
      2  CA        23.2120   -0.6780   -9.0970 C.3    16  ILE16       0.1561
      3  C         23.6670   -2.0770   -8.6400 C.2    16  ILE16       0.2260
      4  O         23.1800   -3.0960   -9.1140 O.2    16  ILE16      -0.2867
      5  CB        24.0130   -0.2500  -10.3810 C.3    16  ILE16       0.0252
      6  CG1       23.7320   -1.1970  -11.5460 C.3    16  ILE16       0.0019
      7  CG2       25.5710   -0.2430  -10.1330 C.3    16  ILE16       0.0019
      8  CD1       24.3190   -0.6460  -12.9600 C.3    16  ILE16       0.0001
      9  N         20.9900   -3.4620   -5.9730 N.3    19  PHE19      -0.1241
     10  CA        19.8360   -3.9190   -6.7700 C.3    19  PHE19       0.1605
     11  C         20.2420   -5.2690   -7.3680 C.2    19  PHE19       0.2264
     12  O         19.5280   -6.2380   -7.2710 O.2    19  PHE19      -0.2867
     13  CB        19.4810   -2.9030   -7.8910 C.3    19  PHE19       0.0534
     14  CG        18.2950   -3.3200   -8.7160 C.ar   19  PHE19      -0.0203
     15  CD1       18.4250   -4.2880   -9.6900 C.ar   19  PHE19      -0.0042
     16  CD2       17.0330   -2.7740   -8.4660 C.ar   19  PHE19      -0.0042
     17  CE1       17.3010   -4.6970  -10.4550 C.ar   19  PHE19      -0.0003
     18  CE2       15.8940   -3.1770   -9.1980 C.ar   19  PHE19      -0.0003
     19  CZ        16.0350   -4.1380  -10.1900 C.ar   19  PHE19      -0.0000
     20  N         15.9650    5.9200   -6.3740 N.3    41  ILE41      -0.1245
     21  CA        17.2720    5.3020   -6.1470 C.3    41  ILE41       0.1561
     22  C         18.2400    5.8970   -7.1690 C.2    41  ILE41       0.2260
     23  O         17.8660    6.7420   -8.0000 O.2    41  ILE41      -0.2867
     24  CB        17.1970    3.7420   -6.2880 C.3    41  ILE41       0.0252
     25  CG1       16.7330    3.3560   -7.7040 C.3    41  ILE41       0.0019
     26  CG2       16.2650    3.1590   -5.2050 C.3    41  ILE41       0.0019
     27  CD1       16.9180    1.8660   -8.0970 C.3    41  ILE41       0.0001
     28  N         21.1630    4.9140  -10.1140 N.3    43  ILE43      -0.1245
     29  CA        21.8270    3.8850  -10.9160 C.3    43  ILE43       0.1561
     30  C         22.9650    4.5900  -11.6300 C.2    43  ILE43       0.2260
     31  O         22.7750    5.2910  -12.5940 O.2    43  ILE43      -0.2867
     32  CB        20.8790    3.1470  -11.9240 C.3    43  ILE43       0.0252
     33  CG1       19.6920    2.5030  -11.1950 C.3    43  ILE43       0.0019
     34  CG2       21.6620    2.0690  -12.6860 C.3    43  ILE43       0.0019
     35  CD1       20.0810    1.2940  -10.2040 C.3    43  ILE43       0.0001
     36  N         16.5340    7.2430  -10.6830 N.3    48  VAL48      -0.1245
     37  CA        15.4450    6.3570  -11.1180 C.3    48  VAL48       0.1561
     38  C         14.3320    6.4010  -10.0700 C.2    48  VAL48       0.2260
     39  O         14.5230    5.9470   -8.9540 O.2    48  VAL48      -0.2867
     40  CB        15.9400    4.8710  -11.3300 C.3    48  VAL48       0.0252
     41  CG1       14.8230    4.0090  -11.8570 C.3    48  VAL48       0.0019
     42  CG2       17.1940    4.8190  -12.3270 C.3    48  VAL48       0.0019
     43  N         15.9100    3.9210  -22.8970 N.3    73  VAL73      -0.1231
     44  CA        16.4660    2.7880  -22.1010 C.3    73  VAL73       0.1692
     45  C         16.8310    1.5540  -22.9260 C.2    73  VAL73       0.2592
     46  O         17.2920    0.5970  -22.3500 O.2    73  VAL73      -0.2718
     47  CB        15.5260    2.3810  -20.8810 C.3    73  VAL73       0.0266
     48  CG1       15.4700    3.5770  -19.8660 C.3    73  VAL73       0.0020
     49  CG2       14.0800    1.9750  -21.3650 C.3    73  VAL73       0.0020
     50  N         16.6720    1.6030  -24.2520 N.am   74  TYR74      -0.1976
     51  CA        16.9540    0.4830  -25.1640 C.3    74  TYR74       0.1639
     52  C         18.0660    0.7370  -26.1600 C.2    74  TYR74       0.2290
     53  O         18.1710    0.0400  -27.1830 O.2    74  TYR74      -0.2864
     54  CB        15.7430    0.2110  -26.0010 C.3    74  TYR74       0.0560
     55  CG        14.5950   -0.3090  -25.2190 C.ar   74  TYR74      -0.0198
     56  CD1       14.7700   -1.3600  -24.3150 C.ar   74  TYR74      -0.0009
     57  CD2       13.3290    0.2030  -25.3890 C.ar   74  TYR74      -0.0009
     58  CE1       13.7060   -1.8660  -23.6020 C.ar   74  TYR74       0.0417
     59  CE2       12.2540   -0.3030  -24.6780 C.ar   74  TYR74       0.0417
     60  CZ        12.4610   -1.3340  -23.7980 C.ar   74  TYR74       0.1957
     61  OH        11.4340   -1.8490  -23.0900 O.3    74  TYR74      -0.2866
     62  N         20.9700   -0.0660  -26.0060 N.3    76  ILE76      -0.1231
     63  CA        21.6790   -1.3280  -26.2280 C.3    76  ILE76       0.1692
     64  C         21.0450   -2.2400  -27.3180 C.2    76  ILE76       0.2591
     65  O         21.6990   -3.1450  -27.8050 O.2    76  ILE76      -0.2718
     66  CB        21.9070   -2.1380  -24.9180 C.3    76  ILE76       0.0266
     67  CG1       20.5980   -2.8110  -24.4280 C.3    76  ILE76       0.0019
     68  CG2       22.6510   -1.2540  -23.7960 C.3    76  ILE76       0.0020
     69  CD1       20.8610   -3.8330  -23.2770 C.3    76  ILE76       0.0001
     70  N         19.7800   -2.0210  -27.7050 N.am   77  MET77      -0.1979
     71  CA        19.1530   -3.0050  -28.6270 C.3    77  MET77       0.1605
     72  C         19.4640   -2.6750  -30.1010 C.2    77  MET77       0.2287
     73  O         19.2480   -3.4920  -31.0010 O.2    77  MET77      -0.2864
     74  CB        17.6340   -3.0620  -28.3810 C.3    77  MET77       0.0413
     75  CG        17.2780   -3.5910  -26.9480 C.3    77  MET77       0.0598
     76  SD        18.1290   -5.1570  -26.4920 S.3    77  MET77      -0.1393
     77  CE        17.6640   -6.3790  -27.7250 C.3    77  MET77       0.0692
     78  N         18.1720   -5.0720  -33.1440 N.3    81  PHE81      -0.1241
     79  CA        16.9710   -4.7840  -33.9840 C.3    81  PHE81       0.1605
     80  C         17.4250   -4.1360  -35.3060 C.2    81  PHE81       0.2264
     81  O         16.8130   -4.3820  -36.3220 O.2    81  PHE81      -0.2867
     82  CB        15.8870   -3.9600  -33.2330 C.3    81  PHE81       0.0534
     83  CG        15.3660   -4.6470  -31.9820 C.ar   81  PHE81      -0.0203
     84  CD1       15.4460   -6.0400  -31.8460 C.ar   81  PHE81      -0.0042
     85  CD2       14.8010   -3.9240  -30.9630 C.ar   81  PHE81      -0.0042
     86  CE1       14.9580   -6.7000  -30.6630 C.ar   81  PHE81      -0.0003
     87  CE2       14.3020   -4.5690  -29.7890 C.ar   81  PHE81      -0.0003
     88  CZ        14.4010   -5.9380  -29.6450 C.ar   81  PHE81      -0.0000
     89  N         13.4380    1.1120  -31.7600 N.3    87  TYR87      -0.1241
     90  CA        13.7470    2.1650  -30.7800 C.3    87  TYR87       0.1605
     91  C         14.7640    3.1760  -31.2450 C.2    87  TYR87       0.2264
     92  O         14.8940    4.2360  -30.6250 O.2    87  TYR87      -0.2867
     93  CB        14.1180    1.5670  -29.4430 C.3    87  TYR87       0.0534
     94  CG        12.9420    0.8000  -28.8610 C.ar   87  TYR87      -0.0201
     95  CD1       11.8430    1.4560  -28.2930 C.ar   87  TYR87      -0.0009
     96  CD2       12.9060   -0.5870  -28.9180 C.ar   87  TYR87      -0.0009
     97  CE1       10.7410    0.7250  -27.7920 C.ar   87  TYR87       0.0417
     98  CE2       11.8410   -1.3010  -28.3900 C.ar   87  TYR87       0.0417
     99  CZ        10.7860   -0.6480  -27.8170 C.ar   87  TYR87       0.1957
    100  OH         9.7600   -1.4410  -27.3170 O.3    87  TYR87      -0.2866
    101  N          6.1990   -1.4080  -34.6850 N.3    98  LEU98      -0.1245
    102  CA         5.6430   -2.2760  -33.6490 C.3    98  LEU98       0.1561
    103  C          4.2240   -2.5760  -33.9710 C.2    98  LEU98       0.2260
    104  O          3.7550   -3.6400  -33.6480 O.2    98  LEU98      -0.2867
    105  CB         5.7380   -1.6890  -32.2310 C.3    98  LEU98       0.0270
    106  CG         7.2180   -1.5200  -31.7960 C.3    98  LEU98       0.0019
    107  CD1        7.2990   -1.0000  -30.4190 C.3    98  LEU98       0.0001
    108  CD2        8.1090   -2.7570  -31.9400 C.3    98  LEU98       0.0001
    109  N         23.5780   -5.4980  -20.2580 N.3   181  PRO181     -0.2102
    110  CA        22.3470   -4.8270  -19.7950 C.3   181  PRO181      0.1504
    111  C         22.6600   -3.5600  -19.0320 C.2   181  PRO181      0.2575
    112  O         22.0220   -2.5460  -19.2830 O.2   181  PRO181     -0.2718
    113  CB        21.6960   -5.8790  -18.8860 C.3   181  PRO181      0.0282
    114  CG        22.1950   -7.2200  -19.4820 C.3   181  PRO181      0.0208
    115  CD        23.6300   -6.9260  -19.8720 C.3   181  PRO181      0.0893
    116  N         23.6620   -3.5940  -18.1470 N.am  182  ALA182     -0.1980
    117  CA        23.9840   -2.4150  -17.3190 C.3   182  ALA182      0.1597
    118  C         24.5420   -1.2430  -18.1490 C.2   182  ALA182      0.2287
    119  O         24.5580   -0.1010  -17.6550 O.2   182  ALA182     -0.2864
    120  CB        24.9960   -2.7840  -16.1890 C.3   182  ALA182      0.0319
    121  N         23.0180    0.2900  -20.4120 N.3   184  VAL184     -0.1231
    122  CA        21.9540    1.3020  -20.4990 C.3   184  VAL184      0.1692
    123  C         22.3050    2.5440  -19.6360 C.2   184  VAL184      0.2592
    124  O         22.0710    3.6780  -20.0310 O.2   184  VAL184     -0.2718
    125  CB        20.5600    0.7420  -20.0320 C.3   184  VAL184      0.0266
    126  CG1       19.4700    1.8570  -20.1140 C.3   184  VAL184      0.0020
    127  CG2       20.1410   -0.4310  -20.8820 C.3   184  VAL184      0.0020
    128  N         22.9040    2.3210  -18.4720 N.am  185  PHE185     -0.1976
    129  CA        23.1860    3.3830  -17.5240 C.3   185  PHE185      0.1639
    130  C         24.6620    3.6900  -17.3520 C.2   185  PHE185      0.2290
    131  O         25.0060    4.7110  -16.8260 O.2   185  PHE185     -0.2864
    132  CB        22.6120    2.9740  -16.1590 C.3   185  PHE185      0.0560
    133  CG        21.1200    3.0880  -16.0970 C.ar  185  PHE185     -0.0200
    134  CD1       20.5280    4.2930  -15.7860 C.ar  185  PHE185     -0.0042
    135  CD2       20.3180    2.0140  -16.4220 C.ar  185  PHE185     -0.0042
    136  CE1       19.1300    4.4130  -15.7630 C.ar  185  PHE185     -0.0003
    137  CE2       18.9280    2.1310  -16.4080 C.ar  185  PHE185     -0.0003
    138  CZ        18.3470    3.3460  -16.0900 C.ar  185  PHE185     -0.0000
    139  N         12.9230   -9.0230  -33.2960 N.3   251  ALA251     -0.1245
    140  CA        12.2670   -8.6010  -32.0750 C.3   251  ALA251      0.1562
    141  C         11.2160   -9.5920  -31.6130 C.2   251  ALA251      0.2260
    142  O         11.0810   -9.8090  -30.4210 O.2   251  ALA251     -0.2867
    143  CB        11.6510   -7.2300  -32.2460 C.3   251  ALA251      0.0290
    144  N         13.0740  -12.8230  -30.2930 N.3   254  PHE254     -0.1227
    145  CA        13.8380  -12.4380  -29.1340 C.3   254  PHE254      0.1736
    146  C         12.9170  -12.1600  -27.9120 C.2   254  PHE254      0.2595
    147  O         13.2320  -12.6020  -26.7820 O.2   254  PHE254     -0.2718
    148  CB        14.6100  -11.2040  -29.5040 C.3   254  PHE254      0.0547
    149  CG        15.8380  -10.9600  -28.7090 C.ar  254  PHE254     -0.0202
    150  CD1       15.7590  -10.3910  -27.4350 C.ar  254  PHE254     -0.0042
    151  CD2       17.1020  -11.2010  -29.2640 C.ar  254  PHE254     -0.0042
    152  CE1       16.9050  -10.1430  -26.6780 C.ar  254  PHE254     -0.0003
    153  CE2       18.2620  -10.9330  -28.5160 C.ar  254  PHE254     -0.0003
    154  CZ        18.1560  -10.4080  -27.2330 C.ar  254  PHE254     -0.0000
    155  N         11.7880  -11.4480  -28.1270 N.am  255  ALA255     -0.1980
    156  CA        10.8730  -11.0940  -27.0330 C.3   255  ALA255      0.1597
    157  C         10.3080  -12.2680  -26.2930 C.2   255  ALA255      0.2287
    158  O         10.2360  -12.2520  -25.0600 O.2   255  ALA255     -0.2864
    159  CB         9.7630  -10.1950  -27.4960 C.3   255  ALA255      0.0319
    160  N         11.0950  -15.1330  -21.9140 N.3   259  THR259     -0.1218
    161  CA         9.8510  -14.8840  -21.1770 C.3   259  THR259      0.1862
    162  C          8.8700  -16.0400  -21.2560 C.2   259  THR259      0.2287
    163  O          8.3010  -16.4450  -20.2200 O.2   259  THR259     -0.2866
    164  CB         9.1580  -13.5580  -21.6230 C.3   259  THR259      0.1770
    165  OG1        8.8810  -13.6150  -23.0280 O.3   259  THR259     -0.2211
    166  CG2       10.0320  -12.3750  -21.3440 C.3   259  THR259      0.0375
    167  N         10.1480  -10.1500  -16.4620 N.3   320  LEU320     -0.1245
    168  CA        10.6790   -8.7750  -16.6170 C.3   320  LEU320      0.1561
    169  C         10.4810   -8.0300  -15.3150 C.2   320  LEU320      0.2260
    170  O          9.3190   -7.7670  -14.8860 O.2   320  LEU320     -0.2867
    171  CB        10.1070   -7.9610  -17.8580 C.3   320  LEU320      0.0270
    172  CG        10.3160   -8.6470  -19.2280 C.3   320  LEU320      0.0019
    173  CD1        9.5920   -7.9690  -20.4050 C.3   320  LEU320      0.0001
    174  CD2       11.7620   -8.8330  -19.5980 C.3   320  LEU320      0.0001
    175  N         11.4580   -4.8950  -14.2430 N.3   322  MET322     -0.1245
    176  CA        11.3510   -3.4650  -14.1640 C.3   322  MET322      0.1570
    177  C         11.0560   -2.9770  -15.5480 C.2   322  MET322      0.2261
    178  O         11.7320   -3.4130  -16.4950 O.2   322  MET322     -0.2867
    179  CB        12.6910   -2.8890  -13.7110 C.3   322  MET322      0.0387
    180  CG        12.7990   -1.3320  -13.6440 C.3   322  MET322      0.0595
    181  SD        13.4820   -0.8030  -11.9910 S.3   322  MET322     -0.1393
    182  CE        12.8540   -2.2870  -11.1800 C.3   322  MET322      0.0692
    183  N         10.7370    0.8730  -17.6740 N.3   324  MET324     -0.1245
    184  CA        11.3020    2.2230  -17.4720 C.3   324  MET324      0.1570
    185  C         10.9530    3.2280  -18.5770 C.2   324  MET324      0.2261
    186  O         10.5620    2.8390  -19.6680 O.2   324  MET324     -0.2867
    187  CB        12.8470    2.1940  -17.2810 C.3   324  MET324      0.0387
    188  CG        13.3230    1.2530  -16.1560 C.3   324  MET324      0.0595
    189  SD        15.1050    1.4760  -15.8630 S.3   324  MET324     -0.1393
    190  CE        15.7880    0.5250  -17.2230 C.3   324  MET324      0.0692
    191  N          1.9750   -5.4470  -23.6140 N.3   386  CYS386     -0.1235
    192  CA         2.5980   -6.4590  -24.4150 C.3   386  CYS386      0.1677
    193  C          1.7730   -6.8540  -25.6330 C.2   386  CYS386      0.2270
    194  O          0.6420   -7.3140  -25.4680 O.2   386  CYS386     -0.2867
    195  CB         2.8170   -7.7440  -23.6210 C.3   386  CYS386      0.0956
    196  SG         3.8510   -8.8730  -24.5160 S.3   386  CYS386     -0.0801
    197  N         19.1940  -10.9220  -17.1300 N.3   424  MET424     -0.1230
    198  CA        18.3300   -9.8270  -17.4740 C.3   424  MET424      0.1702
    199  C         16.8350  -10.2170  -17.5600 C.2   424  MET424      0.2592
    200  O         15.9680   -9.4070  -17.2650 O.2   424  MET424     -0.2718
    201  CB        18.8480   -9.1080  -18.7700 C.3   424  MET424      0.0401
    202  CG        18.5790   -9.7150  -20.0980 C.3   424  MET424      0.0596
    203  SD        19.6610   -8.8880  -21.3850 S.3   424  MET424     -0.1393
    204  CE        18.6790   -7.5750  -21.9730 C.3   424  MET424      0.0692
    205  N         16.5460  -11.4180  -18.0520 N.am  425  VAL425     -0.1980
    206  CA        15.1820  -12.0240  -17.9830 C.3   425  VAL425      0.1595
    207  C         15.3310  -13.1460  -16.9550 C.2   425  VAL425      0.2287
    208  O         16.2620  -13.9720  -17.0410 O.2   425  VAL425     -0.2864
    209  CB        14.6590  -12.6240  -19.3630 C.3   425  VAL425      0.0276
    210  CG1       13.2160  -13.2010  -19.1820 C.3   425  VAL425      0.0022
    211  CG2       14.6340  -11.5630  -20.4710 C.3   425  VAL425      0.0022
@<TRIPOS>BOND
     1    81    80    2
     2    80    79    1
     3   101   102    1
     4    79    82    1
     5    79    78    1
     6   103   102    1
     7   103   104    2
     8   102   105    1
     9   139   140    1
    10    82    83    1
    11   143   140    1
    12   105   106    1
    13   140   141    1
    14    83    84   ar
    15    83    85   ar
    16   108   106    1
    17    84    86   ar
    18   106   107    1
    19    89    90    1
    20   141   142    2
    21    91    90    1
    22    91    92    2
    23    73    72    2
    24    85    87   ar
    25    90    93    1
    26    86    88   ar
    27   144   145    1
    28    72    71    1
    29    87    88   ar
    30   148   145    1
    31   148   149    1
    32    93    94    1
    33   151   149   ar
    34   151   153   ar
    35   145   146    1
    36    96    94   ar
    37    96    98   ar
    38    94    95   ar
    39   149   150   ar
    40    71    74    1
    41    71    70    1
    42   153   154   ar
    43    98    99   ar
    44    74    75    1
    45    95    97   ar
    46   155   146   am
    47   155   156    1
    48   146   147    2
    49    99    97   ar
    50    99   100    1
    51    65    64    2
    52    77    76    1
    53    70    64   am
    54   159   156    1
    55   150   152   ar
    56    64    63    1
    57   154   152   ar
    58    53    52    2
    59   156   157    1
    60    75    76    1
    61   157   158    2
    62    63    62    1
    63    63    66    1
    64    52    51    1
    65    54    55    1
    66    54    51    1
    67   193   194    2
    68   193   192    1
    69    57    55   ar
    70    57    59   ar
    71    55    56   ar
    72    51    50    1
    73    66    67    1
    74    66    68    1
    75    59    60   ar
    76   196   195    1
    77    67    69    1
    78   192   195    1
    79   192   191    1
    80    56    58   ar
    81    50    45   am
    82    60    58   ar
    83    60    61    1
    84   165   164    1
    85    45    46    2
    86    45    44    1
    87    43    44    1
    88    44    47    1
    89   204   203    1
    90   160   161    1
    91   164   166    1
    92   164   161    1
    93   203   202    1
    94    49    47    1
    95   162   161    1
    96   162   163    2
    97   127   125    1
    98    47    48    1
    99   122   121    1
   100   122   125    1
   101   122   123    1
   102   211   209    1
   103   173   172    1
   104   109   115    1
   105   109   110    1
   106   126   125    1
   107   202   201    1
   108   124   123    2
   109   115   114    1
   110   110   111    1
   111   110   113    1
   112   186   185    2
   113   123   128   am
   114   174   172    1
   115   114   113    1
   116   209   210    1
   117   209   206    1
   118   112   111    2
   119   172   171    1
   120   111   116   am
   121   201   198    1
   122   185   184    1
   123   128   129    1
   124   118   119    2
   125   118   117    1
   126   116   117    1
   127   205   206    1
   128   205   199   am
   129   206   207    1
   130   171   168    1
   131   183   184    1
   132   199   198    1
   133   199   200    2
   134   129   130    1
   135   129   132    1
   136   198   197    1
   137   184   187    1
   138   130   131    2
   139   117   120    1
   140   187   188    1
   141   190   189    1
   142   208   207    2
   143   168   167    1
   144   168   169    1
   145   178   177    2
   146   135   137   ar
   147   135   133   ar
   148   137   138   ar
   149   132   133    1
   150   188   189    1
   151   133   134   ar
   152   138   136   ar
   153   134   136   ar
   154   177   176    1
   155   169   170    2
   156   175   176    1
   157   176   179    1
   158   179   180    1
   159   180   181    1
   160     8     6    1
   161    34    32    1
   162    31    30    2
   163    42    40    1
   164   181   182    1
   165    32    33    1
   166    32    29    1
   167    41    40    1
   168    30    29    1
   169     6     5    1
   170    40    37    1
   171    33    35    1
   172    37    36    1
   173    37    38    1
   174    29    28    1
   175    17    19   ar
   176    17    15   ar
   177     5     7    1
   178     5     2    1
   179    19    18   ar
   180    38    39    2
   181    15    14   ar
   182    18    16   ar
   183     4     3    2
   184     2     3    1
   185     2     1    1
   186    14    16   ar
   187    14    13    1
   188    27    25    1
   189    23    22    2
   190    13    10    1
   191    25    24    1
   192    11    12    2
   193    11    10    1
   194    22    21    1
   195    10     9    1
   196    20    21    1
   197    24    21    1
   198    24    26    1
