@<TRIPOS>MOLECULE
tmp/4cojB01.pdb
 195 192 0 0 0
SMALL
GASTEIGER

@<TRIPOS>ATOM
      1  N          7.9750    5.9970    1.8360 N.3    98  TYR98      -0.1241
      2  CA         7.9170    6.3560    3.2430 C.3    98  TYR98       0.1605
      3  C          7.4080    5.1910    4.0730 C.2    98  TYR98       0.2264
      4  O          6.2420    4.8210    4.0020 O.2    98  TYR98      -0.2867
      5  CB         7.0300    7.5790    3.4560 C.3    98  TYR98       0.0534
      6  CG         7.1340    8.1380    4.8500 C.ar   98  TYR98      -0.0201
      7  CD1        6.3440    7.6430    5.8750 C.ar   98  TYR98      -0.0009
      8  CD2        8.0320    9.1520    5.1440 C.ar   98  TYR98      -0.0009
      9  CE1        6.4430    8.1450    7.1550 C.ar   98  TYR98       0.0417
     10  CE2        8.1400    9.6630    6.4220 C.ar   98  TYR98       0.0417
     11  CZ         7.3430    9.1550    7.4240 C.ar   98  TYR98       0.1957
     12  OH         7.4440    9.6590    8.6990 O.3    98  TYR98      -0.2866
     13  N          6.0470    4.0380    7.2520 N.3   100  HIS100     -0.1226
     14  CA         5.3430    4.6680    8.3610 C.3   100  HIS100      0.1752
     15  C          5.6360    3.9520    9.6720 C.2   100  HIS100      0.2596
     16  O          5.8220    2.7390    9.6870 O.2   100  HIS100     -0.2718
     17  CB         3.8400    4.6880    8.0870 C.3   100  HIS100      0.0759
     18  CG         3.4440    5.6240    6.9890 C.ar  100  HIS100      0.0818
     19  ND1        3.0970    6.9380    7.2220 N.ar  100  HIS100     -0.2268
     20  CD2        3.3440    5.4390    5.6510 C.ar  100  HIS100      0.1154
     21  CE1        2.7960    7.5200    6.0760 C.ar  100  HIS100      0.1986
     22  NE2        2.9380    6.6330    5.1070 N.ar  100  HIS100     -0.2212
     23  N          5.6730    4.7070   10.7690 N.am  101  ASP101     -0.1960
     24  CA         6.0460    4.1570   12.0710 C.3   101  ASP101      0.1840
     25  C          7.3200    3.3230   11.9650 C.2   101  ASP101      0.2622
     26  O          7.3810    2.1950   12.4530 O.2   101  ASP101     -0.2715
     27  CB         4.9060    3.3120   12.6300 C.3   101  ASP101      0.1450
     28  CG         3.5700    4.0230   12.5610 C.2   101  ASP101      0.3671
     29  OD1        3.4070    5.0480   13.2670 O.co2 101  ASP101     -0.2456
     30  OD2        2.6820    3.5530   11.8100 O.co2 101  ASP101     -0.2456
     31  N          8.3310    3.8800   11.3130 N.am  102  ARG102     -0.1963
     32  CA         9.5300    3.1190   10.9700 C.3   102  ARG102      0.1729
     33  C         10.3240    2.6620   12.1910 C.2   102  ARG102      0.2616
     34  O         11.1060    1.7180   12.1090 O.2   102  ARG102     -0.2715
     35  CB        10.4270    3.9480   10.0550 C.3   102  ARG102      0.0348
     36  CG        10.8750    5.2740   10.6410 C.3   102  ARG102      0.0492
     37  CD        11.3890    6.1720    9.5430 C.3   102  ARG102      0.2205
     38  NE        11.9430    7.4170   10.0530 N.pl3 102  ARG102     -0.0865
     39  CZ        11.2480    8.5380   10.2170 C.cat 102  ARG102      0.5346
     40  NH1        9.9580    8.5850    9.9130 N.pl3 102  ARG102      0.1354
     41  NH2       11.8490    9.6210   10.6860 N.pl3 102  ARG102      0.1354
     42  N         10.1180    3.3300   13.3200 N.am  103  HIS103     -0.1973
     43  CA        10.8000    2.9600   14.5590 C.3   103  HIS103      0.1656
     44  C         10.1400    1.7480   15.2160 C.2   103  HIS103      0.2291
     45  O         10.6490    1.2230   16.2020 O.2   103  HIS103     -0.2864
     46  CB        10.8360    4.1440   15.5330 C.3   103  HIS103      0.0771
     47  CG         9.5380    4.8830   15.6380 C.ar  103  HIS103      0.0820
     48  ND1        8.5780    4.5740   16.5790 N.ar  103  HIS103     -0.2267
     49  CD2        9.0400    5.9120   14.9140 C.ar  103  HIS103      0.1154
     50  CE1        7.5440    5.3830   16.4310 C.ar  103  HIS103      0.1986
     51  NE2        7.7970    6.2040   15.4280 N.ar  103  HIS103     -0.2212
     52  N          0.4550   -2.2300   12.9370 N.3   110  TYR110     -0.1227
     53  CA         0.0020   -0.8520   12.7910 C.3   110  TYR110      0.1736
     54  C         -1.3020   -0.5520   13.5290 C.2   110  TYR110      0.2595
     55  O         -1.3000    0.1960   14.5090 O.2   110  TYR110     -0.2718
     56  CB        -0.1390   -0.5420   11.3010 C.3   110  TYR110      0.0548
     57  CG        -0.7590    0.7880   10.9580 C.ar  110  TYR110     -0.0200
     58  CD1       -0.4760    1.9260   11.6990 C.ar  110  TYR110     -0.0009
     59  CD2       -1.5960    0.9120    9.8560 C.ar  110  TYR110     -0.0009
     60  CE1       -1.0320    3.1460   11.3700 C.ar  110  TYR110      0.0417
     61  CE2       -2.1550    2.1270    9.5150 C.ar  110  TYR110      0.0417
     62  CZ        -1.8680    3.2420   10.2750 C.ar  110  TYR110      0.1957
     63  OH        -2.4250    4.4510    9.9310 O.3   110  TYR110     -0.2866
     64  N         -2.4110   -1.1240   13.0680 N.am  111  CYS111     -0.1970
     65  CA        -3.7190   -0.7630   13.6110 C.3   111  CYS111      0.1712
     66  C         -4.7900   -1.8260   13.3810 C.2   111  CYS111      0.2296
     67  O         -4.6000   -2.7690   12.6090 O.2   111  CYS111     -0.2864
     68  CB        -4.1900    0.5510   12.9930 C.3   111  CYS111      0.0983
     69  SG        -4.8910    0.3430   11.3450 S.3   111  CYS111     -0.0798
     70  N          1.1200    0.6180   16.4960 N.3   157  SER157     -0.1202
     71  CA         1.6050    1.9590   16.1850 C.3   157  SER157      0.2020
     72  C          0.4820    2.9660   15.9780 C.2   157  SER157      0.2619
     73  O          0.6800    4.1650   16.1710 O.2   157  SER157     -0.2717
     74  CB         2.4810    1.9250   14.9330 C.3   157  SER157      0.2103
     75  OG         3.5940    1.0700   15.1110 O.3   157  SER157     -0.2182
     76  N         -0.6870    2.4720   15.5780 N.am  158  GLY158     -0.1942
     77  CA        -1.7820    3.3250   15.1500 C.3   158  GLY158      0.2014
     78  C         -3.0440    3.2290   15.9860 C.2   158  GLY158      0.2638
     79  O         -2.9970    3.0520   17.2040 O.2   158  GLY158     -0.2714
     80  N         -4.1810    3.3350   15.3090 N.am  159  ALA159     -0.1977
     81  CA        -5.4670    3.5120   15.9690 C.3   159  ALA159      0.1597
     82  C         -6.0060    2.2490   16.6400 C.2   159  ALA159      0.2287
     83  O         -5.8960    1.1480   16.1020 O.2   159  ALA159     -0.2864
     84  CB        -6.4800    4.0260   14.9610 C.3   159  ALA159      0.0319
     85  N         -0.0510    6.6590   26.0030 N.3   207  ARG207     -0.1245
     86  CA         1.1160    6.3220   25.1810 C.3   207  ARG207      0.1563
     87  C          2.3020    7.2010   25.5790 C.2   207  ARG207      0.2260
     88  O          3.2170    7.4230   24.7840 O.2   207  ARG207     -0.2867
     89  CB         0.7970    6.4700   23.6840 C.3   207  ARG207      0.0307
     90  CG        -0.1580    5.3930   23.1610 C.3   207  ARG207      0.0489
     91  CD        -0.2390    5.3620   21.6360 C.3   207  ARG207      0.2205
     92  NE        -0.7260    6.6240   21.0830 N.pl3 207  ARG207     -0.0865
     93  CZ        -1.0120    6.8220   19.7990 C.cat 207  ARG207      0.5346
     94  NH1       -0.8680    5.8360   18.9230 N.pl3 207  ARG207      0.1354
     95  NH2       -1.4450    8.0100   19.3910 N.pl3 207  ARG207      0.1354
     96  N          1.8290   10.9170   24.3690 N.3   210  GLN210     -0.1245
     97  CA         0.5170   11.3670   23.9120 C.3   210  GLN210      0.1566
     98  C         -0.5810   10.4030   24.3500 C.2   210  GLN210      0.2260
     99  O         -0.3030    9.3330   24.8960 O.2   210  GLN210     -0.2867
    100  CB         0.5070   11.4960   22.3880 C.3   210  GLN210      0.0367
    101  CG         0.7580   10.1660   21.6660 C.3   210  GLN210      0.0905
    102  CD         1.0220   10.3360   20.1790 C.2   210  GLN210      0.2608
    103  OE1        0.8740   11.4300   19.6300 O.2   210  GLN210     -0.2717
    104  NE2        1.4220    9.2500   19.5200 N.am  210  GLN210     -0.0878
    105  N         -4.7250    6.7390   20.1210 N.3   213  TYR213     -0.1241
    106  CA        -5.5610    7.1100   19.0010 C.3   213  TYR213      0.1605
    107  C         -6.7020    6.1240   18.9670 C.2   213  TYR213      0.2264
    108  O         -6.4850    4.9380   18.7280 O.2   213  TYR213     -0.2867
    109  CB        -4.7810    7.0990   17.6860 C.3   213  TYR213      0.0534
    110  CG        -5.5080    7.8270   16.5800 C.ar  213  TYR213     -0.0201
    111  CD1       -6.5730    7.2320   15.9150 C.ar  213  TYR213     -0.0009
    112  CD2       -5.1450    9.1150   16.2160 C.ar  213  TYR213     -0.0009
    113  CE1       -7.2450    7.8920   14.9160 C.ar  213  TYR213      0.0417
    114  CE2       -5.8110    9.7850   15.2110 C.ar  213  TYR213      0.0417
    115  CZ        -6.8610    9.1680   14.5660 C.ar  213  TYR213      0.1957
    116  OH        -7.5390    9.8280   13.5700 O.3   213  TYR213     -0.2866
    117  N        -10.2140   12.8060   21.3150 N.3   268  PHE268     -0.1241
    118  CA       -10.6160   11.4130   21.2070 C.3   268  PHE268      0.1605
    119  C        -11.8540   11.1140   22.0440 C.2   268  PHE268      0.2264
    120  O        -12.1290   11.8130   23.0180 O.2   268  PHE268     -0.2867
    121  CB        -9.4570   10.5140   21.6210 C.3   268  PHE268      0.0534
    122  CG        -8.2200   10.7310   20.8050 C.ar  268  PHE268     -0.0203
    123  CD1       -8.1770   10.3450   19.4770 C.ar  268  PHE268     -0.0042
    124  CD2       -7.1060   11.3340   21.3600 C.ar  268  PHE268     -0.0042
    125  CE1       -7.0420   10.5540   18.7170 C.ar  268  PHE268     -0.0003
    126  CE2       -5.9670   11.5440   20.6060 C.ar  268  PHE268     -0.0003
    127  CZ        -5.9360   11.1520   19.2840 C.ar  268  PHE268     -0.0000
    128  N         -7.4040    5.1100    7.8690 N.3   324  SER324     -0.1202
    129  CA        -6.5390    5.3940    9.0020 C.3   324  SER324      0.2020
    130  C         -7.1830    6.4020    9.9500 C.2   324  SER324      0.2618
    131  O         -6.9940    6.3300   11.1630 O.2   324  SER324     -0.2717
    132  CB        -5.1830    5.9080    8.5130 C.3   324  SER324      0.2103
    133  OG        -4.6190    5.0050    7.5820 O.3   324  SER324     -0.2182
    134  N         -7.9450    7.3350    9.3940 N.am  325  ILE325     -0.1979
    135  CA        -8.5730    8.3790   10.1960 C.3   325  ILE325      0.1595
    136  C         -9.6990    7.8070   11.0540 C.2   325  ILE325      0.2287
    137  O         -9.8540    8.1760   12.2190 O.2   325  ILE325     -0.2864
    138  CB        -9.1130    9.5080    9.2940 C.3   325  ILE325      0.0276
    139  CG1       -7.9360   10.2030    8.6030 C.3   325  ILE325      0.0022
    140  CG2       -9.9420   10.5290   10.0980 C.3   325  ILE325      0.0022
    141  CD1       -8.3240   11.0590    7.4160 C.3   325  ILE325      0.0001
    142  N         -2.9880    8.6100    2.3980 N.3   463  VAL463     -0.1231
    143  CA        -2.8080    8.7040    3.8430 C.3   463  VAL463      0.1678
    144  C         -2.7730   10.1480    4.3340 C.2   463  VAL463      0.2434
    145  O         -2.4850   11.0620    3.5570 O.2   463  VAL463     -0.2733
    146  CB        -1.5170    8.0020    4.2930 C.3   463  VAL463      0.0265
    147  CG1       -1.5710    6.5240    3.9470 C.3   463  VAL463      0.0020
    148  CG2       -0.3020    8.6530    3.6580 C.3   463  VAL463      0.0020
    149  N         -3.0740   10.3560    5.6300 N.am  464  PRO464     -0.2718
    150  CA        -3.0150   11.6890    6.2400 C.3   464  PRO464      0.1535
    151  C         -1.6510   12.3440    6.0770 C.2   464  PRO464      0.2598
    152  O         -1.5830   13.5380    5.7980 O.2   464  PRO464     -0.2715
    153  CB        -3.3180   11.4090    7.7160 C.3   464  PRO464      0.0310
    154  CG        -4.1360   10.1760    7.6980 C.3   464  PRO464      0.0237
    155  CD        -3.5750    9.3460    6.5820 C.3   464  PRO464      0.0939
    156  N         -0.5890   11.5620    6.2600 N.am  465  ALA465     -0.1964
    157  CA         0.7850   12.0270    6.0580 C.3   465  ALA465      0.1728
    158  C          1.0750   13.3120    6.8220 C.2   465  ALA465      0.2616
    159  O          1.5390   14.2970    6.2490 O.2   465  ALA465     -0.2715
    160  CB         1.0590   12.2300    4.5770 C.3   465  ALA465      0.0334
    161  N          0.7930   13.2980    8.1170 N.am  466  GLU466     -0.1963
    162  CA         1.0480   14.4520    8.9690 C.3   466  GLU466      0.1733
    163  C          2.5240   14.8420    8.9550 C.2   466  GLU466      0.2616
    164  O          2.8590   16.0270    8.9690 O.2   466  GLU466     -0.2715
    165  CB         0.5920   14.1500   10.3940 C.3   466  GLU466      0.0429
    166  CG         0.6980   15.3200   11.3520 C.3   466  GLU466      0.1163
    167  CD         0.1140   14.9960   12.7120 C.2   466  GLU466      0.3649
    168  OE1       -0.6350   13.9950   12.8100 O.co2 466  GLU466     -0.2457
    169  OE2        0.4080   15.7320   13.6810 O.co2 466  GLU466     -0.2457
    170  N          3.3990   13.8400    8.9220 N.am  467  LYS467     -0.1963
    171  CA         4.8410   14.0700    8.8760 C.3   467  LYS467      0.1728
    172  C          5.4200   13.7890    7.4890 C.2   467  LYS467      0.2616
    173  O          6.2120   14.5800    6.9690 O.2   467  LYS467     -0.2715
    174  CB         5.5540   13.2040    9.9190 C.3   467  LYS467      0.0311
    175  CG         5.3130   13.6490   11.3530 C.3   467  LYS467      0.0038
    176  CD         6.0660   12.7820   12.3570 C.3   467  LYS467      0.0206
    177  CE         5.4550   11.3940   12.4920 C.3   467  LYS467      0.1093
    178  NZ         4.1190   11.4110   13.1700 N.3   467  LYS467     -0.1314
    179  N          5.0220   12.6650    6.8970 N.am  468  ALA468     -0.1977
    180  CA         5.5860   12.2250    5.6210 C.3   468  ALA468      0.1597
    181  C          5.4060   13.2760    4.5290 C.2   468  ALA468      0.2287
    182  O          6.2280   13.3820    3.6190 O.2   468  ALA468     -0.2864
    183  CB         4.9580   10.9120    5.1920 C.3   468  ALA468      0.0319
    184  N         -8.9170   14.5140   11.8720 N.3   586  TYR586     -0.1241
    185  CA        -9.3980   14.5270   13.2500 C.3   586  TYR586      0.1605
    186  C         -9.0790   15.8810   13.8830 C.2   586  TYR586      0.2264
    187  O         -8.1710   16.5820   13.4370 O.2   586  TYR586     -0.2867
    188  CB        -8.7880   13.3710   14.0570 C.3   586  TYR586      0.0534
    189  CG        -7.2830   13.4220   14.2390 C.ar  586  TYR586     -0.0201
    190  CD1       -6.4230   13.2240   13.1670 C.ar  586  TYR586     -0.0009
    191  CD2       -6.7220   13.6410   15.4930 C.ar  586  TYR586     -0.0009
    192  CE1       -5.0500   13.2620   13.3340 C.ar  586  TYR586      0.0417
    193  CE2       -5.3500   13.6780   15.6680 C.ar  586  TYR586      0.0417
    194  CZ        -4.5220   13.4900   14.5840 C.ar  586  TYR586      0.1957
    195  OH        -3.1600   13.5280   14.7510 O.3   586  TYR586     -0.2866
@<TRIPOS>BOND
     1     1     2    1
     2   142   143    1
     3     2     5    1
     4     2     3    1
     5     5     6    1
     6   145   144    2
     7   182   181    2
     8   148   146    1
     9   143   146    1
    10   143   144    1
    11   147   146    1
    12     4     3    2
    13   144   149   am
    14   181   180    1
    15   160   157    1
    16     6     8   ar
    17     6     7   ar
    18    22    20   ar
    19    22    21   ar
    20     8    10   ar
    21   183   180    1
    22   180   179    1
    23   149   150    1
    24   149   155    1
    25    20    18   ar
    26   152   151    2
    27     7     9   ar
    28   157   156    1
    29   157   158    1
    30    21    19   ar
    31   151   150    1
    32   151   156   am
    33   150   153    1
    34   159   158    2
    35    10    11   ar
    36   155   154    1
    37   158   161   am
    38   179   172   am
    39   173   172    2
    40    18    19   ar
    41    18    17    1
    42     9    11   ar
    43    13    14    1
    44   141   139    1
    45    11    12    1
    46   172   171    1
    47   133   132    1
    48   154   153    1
    49   128   129    1
    50    17    14    1
    51   161   162    1
    52    14    15    1
    53   132   129    1
    54   139   138    1
    55   171   170    1
    56   171   174    1
    57   170   163   am
    58   163   162    1
    59   163   164    2
    60   162   165    1
    61   129   130    1
    62   138   140    1
    63   138   135    1
    64   134   130   am
    65   134   135    1
    66    61    59   ar
    67    61    62   ar
    68    37    38    1
    69    37    36    1
    70    15    16    2
    71    15    23   am
    72    59    57   ar
    73    40    39    1
    74   174   175    1
    75    63    62    1
    76   130   131    2
    77    38    39    2
    78    35    36    1
    79    35    32    1
    80   135   136    1
    81    39    41    1
    82    62    60   ar
    83   165   166    1
    84    23    24    1
    85    57    56    1
    86    57    58   ar
    87    32    31    1
    88    32    33    1
    89   136   137    2
    90    56    53    1
    91    31    25   am
    92    69    68    1
    93   166   167    1
    94   175   176    1
    95    60    58   ar
    96    30    28   ar
    97   184   185    1
    98    25    24    1
    99    25    26    2
   100    24    27    1
   101    34    33    2
   102    33    42   am
   103   176   177    1
   104   177   178    1
   105    28    27    1
   106    28    29   ar
   107    67    66    2
   108   167   168   ar
   109   167   169   ar
   110    53    52    1
   111    53    54    1
   112    68    65    1
   113    64    54   am
   114    64    65    1
   115   190   192   ar
   116   190   189   ar
   117   185   186    1
   118   185   188    1
   119    42    43    1
   120   192   194   ar
   121    66    65    1
   122   187   186    2
   123    54    55    2
   124   116   115    1
   125   188   189    1
   126   189   191   ar
   127    43    44    1
   128    43    46    1
   129   115   113   ar
   130   115   114   ar
   131   194   195    1
   132   194   193   ar
   133    49    51   ar
   134    49    47   ar
   135   113   111   ar
   136    74    75    1
   137    74    71    1
   138    84    81    1
   139    77    76    1
   140    77    78    1
   141   114   112   ar
   142    44    45    2
   143    80    81    1
   144    80    78   am
   145    51    50   ar
   146   191   193   ar
   147    46    47    1
   148    76    72   am
   149    47    48   ar
   150   111   110   ar
   151    81    82    1
   152    72    73    2
   153    72    71    1
   154    78    79    2
   155    83    82    2
   156    71    70    1
   157   112   110   ar
   158    50    48   ar
   159   110   109    1
   160   109   106    1
   161   125   127   ar
   162   125   123   ar
   163   108   107    2
   164    94    93    1
   165   107   106    1
   166   106   105    1
   167   127   126   ar
   168    95    93    1
   169   123   122   ar
   170   104   102   am
   171   103   102    2
   172    93    92    2
   173   102   101    1
   174   126   124   ar
   175   122   124   ar
   176   122   121    1
   177    92    91    1
   178   118   117    1
   179   118   121    1
   180   118   119    1
   181    91    90    1
   182   101   100    1
   183   119   120    2
   184   100    97    1
   185    90    89    1
   186    89    86    1
   187    97    98    1
   188    97    96    1
   189    98    99    2
   190    88    87    2
   191    86    87    1
   192    86    85    1
