@<TRIPOS>MOLECULE
tmp/4cojB00.pdb
 112 110 0 0 0
SMALL
GASTEIGER

@<TRIPOS>ATOM
      1  N        -10.2190  -10.0380   31.3080 N.3   124  LEU124     -0.1245
      2  CA        -8.8190   -9.7340   31.0170 C.3   124  LEU124      0.1561
      3  C         -7.9050  -10.8420   31.5370 C.2   124  LEU124      0.2260
      4  O         -7.3280  -10.7260   32.6180 O.2   124  LEU124     -0.2867
      5  CB        -8.4230   -8.3870   31.6320 C.3   124  LEU124      0.0270
      6  CG        -9.3530   -7.2090   31.3220 C.3   124  LEU124      0.0019
      7  CD1       -8.8810   -5.9600   32.0380 C.3   124  LEU124      0.0001
      8  CD2       -9.4380   -6.9610   29.8350 C.3   124  LEU124      0.0001
      9  N         -2.0540   -8.9570   36.7000 N.3   130  ILE130     -0.1231
     10  CA        -3.2600   -9.3780   37.4060 C.3   130  ILE130      0.1692
     11  C         -4.3210   -9.7900   36.3890 C.2   130  ILE130      0.2592
     12  O         -4.2940   -9.3400   35.2430 O.2   130  ILE130     -0.2718
     13  CB        -3.8080   -8.2630   38.3290 C.3   130  ILE130      0.0266
     14  CG1       -4.8760   -8.8250   39.2700 C.3   130  ILE130      0.0019
     15  CG2       -4.3590   -7.0910   37.5160 C.3   130  ILE130      0.0020
     16  CD1       -5.2330   -7.8920   40.4070 C.3   130  ILE130      0.0001
     17  N         -5.2490  -10.6460   36.8070 N.am  131  LYS131     -0.1966
     18  CA        -6.2640  -11.1800   35.9040 C.3   131  LYS131      0.1728
     19  C         -7.6750  -10.8130   36.3530 C.2   131  LYS131      0.2617
     20  O         -8.0270  -10.9490   37.5270 O.2   131  LYS131     -0.2715
     21  CB        -6.1150  -12.6970   35.7880 C.3   131  LYS131      0.0311
     22  CG        -4.8040  -13.1160   35.1270 C.3   131  LYS131      0.0038
     23  CD        -4.6720  -14.6260   35.0280 C.3   131  LYS131      0.0206
     24  CE        -3.4410  -15.0290   34.2230 C.3   131  LYS131      0.1093
     25  NZ        -2.1590  -14.7040   34.9220 N.3   131  LYS131     -0.1314
     26  N         -8.4670  -10.3360   35.3950 N.am  132  SER132     -0.1936
     27  CA        -9.8390   -9.9090   35.6410 C.3   132  SER132      0.2055
     28  C        -10.8360  -10.8720   35.0170 C.2   132  SER132      0.2643
     29  O        -10.7250  -11.2260   33.8440 O.2   132  SER132     -0.2714
     30  CB       -10.0750   -8.5060   35.0790 C.3   132  SER132      0.2130
     31  OG        -9.1510   -7.5740   35.6080 O.3   132  SER132     -0.2179
     32  N        -11.8130  -11.2910   35.8110 N.am  133  GLU133     -0.1963
     33  CA       -12.9060  -12.1120   35.3130 C.3   133  GLU133      0.1718
     34  C        -13.7570  -11.2720   34.3750 C.2   133  GLU133      0.2458
     35  O        -13.6300  -10.0480   34.3590 O.2   133  GLU133     -0.2730
     36  CB       -13.7570  -12.6430   36.4660 C.3   133  GLU133      0.0428
     37  CG       -12.9870  -13.4320   37.5150 C.3   133  GLU133      0.1163
     38  CD       -12.7080  -14.8650   37.1010 C.2   133  GLU133      0.3649
     39  OE1      -12.7100  -15.1510   35.8850 O.co2 133  GLU133     -0.2457
     40  OE2      -12.4930  -15.7090   37.9990 O.co2 133  GLU133     -0.2457
     41  N        -14.6200  -11.9230   33.5820 N.am  134  PRO134     -0.2716
     42  CA       -15.5710  -11.1740   32.7530 C.3   134  PRO134      0.1536
     43  C        -16.3950  -10.1920   33.5830 C.2   134  PRO134      0.2598
     44  O        -16.8430  -10.5400   34.6760 O.2   134  PRO134     -0.2715
     45  CB       -16.4470  -12.2730   32.1530 C.3   134  PRO134      0.0310
     46  CG       -15.5540  -13.4650   32.0960 C.3   134  PRO134      0.0237
     47  CD       -14.6650  -13.3690   33.3050 C.3   134  PRO134      0.0939
     48  N        -16.5740   -8.9780   33.0700 N.am  135  ALA135     -0.1964
     49  CA       -17.2320   -7.9100   33.8170 C.3   135  ALA135      0.1728
     50  C        -18.6670   -8.2740   34.1730 C.2   135  ALA135      0.2616
     51  O        -19.2990   -9.0870   33.4950 O.2   135  ALA135     -0.2715
     52  CB       -17.2060   -6.6210   33.0220 C.3   135  ALA135      0.0334
     53  N        -19.1710   -7.6570   35.2390 N.am  136  LYS136     -0.1963
     54  CA       -20.5360   -7.8880   35.6980 C.3   136  LYS136      0.1728
     55  C        -21.3110   -6.5870   35.8720 C.2   136  LYS136      0.2616
     56  O        -22.5170   -6.6130   36.1290 O.2   136  LYS136     -0.2715
     57  CB       -20.5260   -8.6470   37.0210 C.3   136  LYS136      0.0311
     58  CG       -19.9010  -10.0260   36.9510 C.3   136  LYS136      0.0038
     59  CD       -19.9610  -10.6990   38.3140 C.3   136  LYS136      0.0206
     60  CE       -19.3760  -12.0960   38.2850 C.3   136  LYS136      0.1093
     61  NZ       -19.5780  -12.7860   39.5870 N.3   136  LYS136     -0.1314
     62  N        -20.6220   -5.4560   35.7450 N.am  137  HIS137     -0.1973
     63  CA       -21.2440   -4.1540   35.9640 C.3   137  HIS137      0.1656
     64  C        -20.7530   -3.1210   34.9590 C.2   137  HIS137      0.2291
     65  O        -19.7020   -3.2880   34.3410 O.2   137  HIS137     -0.2864
     66  CB       -20.9640   -3.6610   37.3840 C.3   137  HIS137      0.0771
     67  CG       -21.2400   -4.6820   38.4430 C.ar  137  HIS137      0.0820
     68  ND1      -22.4600   -4.7910   39.0730 N.ar  137  HIS137     -0.2267
     69  CD2      -20.4540   -5.6490   38.9770 C.ar  137  HIS137      0.1154
     70  CE1      -22.4150   -5.7770   39.9520 C.ar  137  HIS137      0.1986
     71  NE2      -21.2080   -6.3130   39.9130 N.ar  137  HIS137     -0.2212
     72  N        -19.5470   -0.1830   35.5570 N.3   139  SER139     -0.1202
     73  CA       -18.2930    0.4170   36.0040 C.3   139  SER139      0.2020
     74  C        -17.0890   -0.4250   35.5810 C.2   139  SER139      0.2619
     75  O        -16.1210    0.1070   35.0400 O.2   139  SER139     -0.2717
     76  CB       -18.3020    0.6170   37.5270 C.3   139  SER139      0.2103
     77  OG       -18.5200   -0.5980   38.2280 O.3   139  SER139     -0.2182
     78  N        -17.1630   -1.7340   35.8100 N.am  140  THR140     -0.1952
     79  CA       -16.0820   -2.6450   35.4490 C.3   140  THR140      0.1897
     80  C        -15.9250   -2.7820   33.9360 C.2   140  THR140      0.2313
     81  O        -14.8050   -2.8890   33.4280 O.2   140  THR140     -0.2863
     82  CB       -16.3030   -4.0460   36.0410 C.3   140  THR140      0.1794
     83  OG1      -17.6070   -4.1230   36.6280 O.3   140  THR140     -0.2208
     84  CG2      -15.2550   -4.3410   37.1050 C.3   140  THR140      0.0378
     85  N        -14.1170    0.1110   32.7460 N.3   143  GLN143     -0.1231
     86  CA       -12.7610    0.0330   33.2580 C.3   143  GLN143      0.1698
     87  C        -11.9720   -1.0270   32.4850 C.2   143  GLN143      0.2592
     88  O        -10.7640   -0.8920   32.2960 O.2   143  GLN143     -0.2718
     89  CB       -12.7940   -0.2730   34.7590 C.3   143  GLN143      0.0381
     90  CG       -11.6260    0.2590   35.5740 C.3   143  GLN143      0.0905
     91  CD       -11.4860    1.7750   35.5440 C.2   143  GLN143      0.2608
     92  OE1      -12.4650    2.5060   35.6950 O.2   143  GLN143     -0.2717
     93  NE2      -10.2540    2.2540   35.3440 N.am  143  GLN143     -0.0878
     94  N        -12.6630   -2.0680   32.0240 N.am  144  HIS144     -0.1976
     95  CA       -12.0520   -3.0810   31.1630 C.3   144  HIS144      0.1656
     96  C        -11.6730   -2.5150   29.7940 C.2   144  HIS144      0.2291
     97  O        -10.6160   -2.8360   29.2460 O.2   144  HIS144     -0.2864
     98  CB       -12.9960   -4.2650   30.9630 C.3   144  HIS144      0.0771
     99  CG       -12.9820   -5.2540   32.0840 C.ar  144  HIS144      0.0820
    100  ND1      -13.4460   -6.5430   31.9380 N.ar  144  HIS144     -0.2267
    101  CD2      -12.5580   -5.1480   33.3650 C.ar  144  HIS144      0.1154
    102  CE1      -13.3110   -7.1890   33.0820 C.ar  144  HIS144      0.1986
    103  NE2      -12.7740   -6.3660   33.9640 N.ar  144  HIS144     -0.2212
    104  N         -8.3950   -0.6380   30.2430 N.3   147  GLN147     -0.1245
    105  CA        -7.2200   -1.4980   30.3270 C.3   147  GLN147      0.1566
    106  C         -6.9000   -2.0810   28.9560 C.2   147  GLN147      0.2260
    107  O         -5.7360   -2.3050   28.6270 O.2   147  GLN147     -0.2867
    108  CB        -7.4230   -2.6280   31.3410 C.3   147  GLN147      0.0367
    109  CG        -7.7630   -2.1720   32.7650 C.3   147  GLN147      0.0905
    110  CD        -7.0660   -0.8850   33.1580 C.2   147  GLN147      0.2608
    111  OE1       -5.8540   -0.7430   32.9890 O.2   147  GLN147     -0.2717
    112  NE2       -7.8320    0.0670   33.6780 N.am  147  GLN147     -0.0878
@<TRIPOS>BOND
     1   107   106    2
     2   106   105    1
     3    97    96    2
     4    96    95    1
     5     8     6    1
     6   104   105    1
     7   105   108    1
     8    98    95    1
     9    98    99    1
    10     2     1    1
    11     2     3    1
    12     2     5    1
    13    95    94    1
    14     6     5    1
    15     6     7    1
    16   108   109    1
    17     3     4    2
    18   100    99   ar
    19   100   102   ar
    20    94    87   am
    21    99   101   ar
    22    46    45    1
    23    46    47    1
    24    45    42    1
    25    88    87    2
    26    87    86    1
    27    85    86    1
    28    42    41    1
    29    42    43    1
    30   109   110    1
    31   111   110    2
    32    52    49    1
    33    48    43   am
    34    48    49    1
    35   102   103   ar
    36   110   112   am
    37    86    89    1
    38    47    41    1
    39   101   103   ar
    40    81    80    2
    41    51    50    2
    42    41    34   am
    43    43    44    2
    44    49    50    1
    45    29    28    2
    46    80    79    1
    47    50    53   am
    48    24    25    1
    49    24    23    1
    50    65    64    2
    51    35    34    2
    52    34    33    1
    53    89    90    1
    54    64    63    1
    55    28    27    1
    56    28    32   am
    57    23    22    1
    58    75    74    2
    59    30    31    1
    60    30    27    1
    61    22    21    1
    62    53    54    1
    63    12    11    2
    64    33    32    1
    65    33    36    1
    66    93    91   am
    67    26    27    1
    68    26    19   am
    69    79    78    1
    70    79    82    1
    71    91    90    1
    72    91    92    2
    73    72    73    1
    74    74    78   am
    75    74    73    1
    76    54    55    1
    77    54    57    1
    78    62    55   am
    79    62    63    1
    80    21    18    1
    81    55    56    2
    82    39    38   ar
    83    18    19    1
    84    18    17    1
    85    63    66    1
    86    73    76    1
    87    82    83    1
    88    82    84    1
    89    19    20    2
    90    11    17   am
    91    11    10    1
    92    36    37    1
    93     9    10    1
    94    58    57    1
    95    58    59    1
    96    38    37    1
    97    38    40   ar
    98    66    67    1
    99    10    13    1
   100    15    13    1
   101    76    77    1
   102    60    59    1
   103    60    61    1
   104    13    14    1
   105    67    69   ar
   106    67    68   ar
   107    69    71   ar
   108    68    70   ar
   109    14    16    1
   110    71    70   ar
