@<TRIPOS>MOLECULE
tmp/4cokA00.pdb
 161 154 0 0 0
SMALL
GASTEIGER

@<TRIPOS>ATOM
      1  N         10.6780   -4.1650  -34.1030 N.3    82  ASN82      -0.1240
      2  CA        10.3440   -4.3230  -32.6570 C.3    82  ASN82       0.1653
      3  C          9.9400   -5.7870  -32.4380 C.2    82  ASN82       0.2266
      4  O         10.4830   -6.5330  -31.5990 O.2    82  ASN82      -0.2867
      5  CB         9.2290   -3.3510  -32.3680 C.3    82  ASN82       0.1155
      6  CG         9.0680   -3.1380  -30.8660 C.2    82  ASN82       0.2627
      7  OD1        9.4730   -4.0220  -30.0660 O.2    82  ASN82      -0.2716
      8  ND2        8.4870   -2.0330  -30.4790 N.am   82  ASN82      -0.0877
      9  N         13.6900   -9.3070  -13.9170 N.3   284  TYR284     -0.1241
     10  CA        12.2770   -9.6430  -13.6100 C.3   284  TYR284      0.1605
     11  C         12.2240  -11.0650  -13.0640 C.2   284  TYR284      0.2264
     12  O         11.4920  -11.2890  -12.0650 O.2   284  TYR284     -0.2867
     13  CB        11.4230   -9.5410  -14.8730 C.3   284  TYR284      0.0534
     14  CG        10.9500   -8.1280  -15.1940 C.ar  284  TYR284     -0.0201
     15  CD1       11.4190   -7.0090  -14.4950 C.ar  284  TYR284     -0.0009
     16  CD2        9.9830   -7.9560  -16.2180 C.ar  284  TYR284     -0.0009
     17  CE1       10.8490   -5.7560  -14.7470 C.ar  284  TYR284      0.0417
     18  CE2        9.4580   -6.7240  -16.4910 C.ar  284  TYR284      0.0417
     19  CZ         9.8800   -5.6540  -15.7490 C.ar  284  TYR284      0.1957
     20  OH         9.3110   -4.4120  -16.0020 O.3   284  TYR284     -0.2866
     21  N          1.7380   -9.2600  -20.8740 N.3   378  THR378     -0.1203
     22  CA         2.4220   -8.4950  -19.7900 C.3   378  THR378      0.1994
     23  C          1.4320   -7.6260  -19.0750 C.2   378  THR378      0.2618
     24  O          0.6290   -6.9070  -19.6870 O.2   378  THR378     -0.2717
     25  CB         3.4930   -7.5970  -20.4380 C.3   378  THR378      0.1784
     26  OG1        4.4610   -8.4810  -21.0690 O.3   378  THR378     -0.2211
     27  CG2        4.2430   -6.6670  -19.4020 C.3   378  THR378      0.0376
     28  N          1.4820   -7.7580  -17.7440 N.am  379  GLY379     -0.1942
     29  CA         0.4200   -7.0940  -16.9300 C.3   379  GLY379      0.2014
     30  C          0.0960   -8.0050  -15.7850 C.2   379  GLY379      0.2639
     31  O          0.8080   -9.0290  -15.5480 O.2   379  GLY379     -0.2714
     32  N         -0.9840   -7.7530  -15.0700 N.am  380  ASP380     -0.1957
     33  CA        -1.3410   -8.7610  -14.0460 C.3   380  ASP380      0.1840
     34  C         -1.6940  -10.0930  -14.6860 C.2   380  ASP380      0.2622
     35  O         -1.6290  -11.1230  -13.9910 O.2   380  ASP380     -0.2715
     36  CB        -2.5410   -8.3260  -13.1670 C.3   380  ASP380      0.1450
     37  CG        -2.5100   -9.0030  -11.7160 C.2   380  ASP380      0.3671
     38  OD1       -1.4710   -9.4750  -11.1900 O.co2 380  ASP380     -0.2456
     39  OD2       -3.6230   -9.0850  -11.1990 O.co2 380  ASP380     -0.2456
     40  N         -1.9480  -10.1270  -16.0010 N.am  381  SER381     -0.1950
     41  CA        -2.1960  -11.4690  -16.5920 C.3   381  SER381      0.1924
     42  C         -0.9650  -12.3880  -16.4720 C.2   381  SER381      0.2314
     43  O         -1.1570  -13.6190  -16.4870 O.2   381  SER381     -0.2863
     44  CB        -2.6060  -11.3660  -18.1120 C.3   381  SER381      0.2116
     45  OG        -3.9140  -10.7440  -18.1170 O.3   381  SER381     -0.2180
     46  N          8.6070   -8.5360  -23.3810 N.3   403  GLY403     -0.1210
     47  CA         7.5780   -7.8740  -22.5350 C.3   403  GLY403      0.1956
     48  C          6.9790   -6.6560  -23.2380 C.2   403  GLY403      0.2612
     49  O          6.8890   -5.6270  -22.6100 O.2   403  GLY403     -0.2717
     50  N          6.6370   -6.7670  -24.5020 N.am  404  HIS404     -0.1961
     51  CA         6.0350   -5.6010  -25.2290 C.3   404  HIS404      0.1787
     52  C          4.5570   -5.7210  -25.0710 C.2   404  HIS404      0.2620
     53  O          3.9150   -6.6960  -25.5820 O.2   404  HIS404     -0.2715
     54  CB         6.3440   -5.8420  -26.7320 C.3   404  HIS404      0.0785
     55  CG         5.8250   -4.7430  -27.6400 C.ar  404  HIS404      0.0821
     56  ND1        4.4730   -4.5060  -27.8020 N.ar  404  HIS404     -0.2267
     57  CD2        6.4840   -3.8500  -28.4320 C.ar  404  HIS404      0.1154
     58  CE1        4.3290   -3.4810  -28.6360 C.ar  404  HIS404      0.1986
     59  NE2        5.5300   -3.0630  -29.0150 N.ar  404  HIS404     -0.2212
     60  N          3.9220   -4.8080  -24.3680 N.am  405  ILE405     -0.1977
     61  CA         2.4460   -4.8540  -24.1850 C.3   405  ILE405      0.1596
     62  C          1.7660   -4.8040  -25.5160 C.2   405  ILE405      0.2287
     63  O          2.1730   -4.0520  -26.3690 O.2   405  ILE405     -0.2864
     64  CB         1.8930   -3.7970  -23.1610 C.3   405  ILE405      0.0276
     65  CG1        2.2540   -2.3520  -23.5640 C.3   405  ILE405      0.0022
     66  CG2        2.3990   -4.2050  -21.7220 C.3   405  ILE405      0.0022
     67  CD1        1.2730   -1.3630  -22.7850 C.3   405  ILE405      0.0001
     68  N         -4.8380   -7.3420  -20.9480 N.3   429  GLY429     -0.1210
     69  CA        -5.3210   -6.1850  -20.1860 C.3   429  GLY429      0.1956
     70  C         -5.7800   -5.0970  -21.1590 C.2   429  GLY429      0.2612
     71  O         -5.3800   -5.0800  -22.3440 O.2   429  GLY429     -0.2717
     72  N         -6.6150   -4.2080  -20.6370 N.am  430  ASP430     -0.1959
     73  CA        -7.1920   -3.1150  -21.4670 C.3   430  ASP430      0.1840
     74  C         -6.0320   -2.2000  -22.0400 C.2   430  ASP430      0.2623
     75  O         -6.0940   -1.7730  -23.1990 O.2   430  ASP430     -0.2715
     76  CB        -8.1800   -2.2500  -20.5900 C.3   430  ASP430      0.1450
     77  CG        -7.5460   -1.6450  -19.3670 C.2   430  ASP430      0.3671
     78  OD1       -6.7010   -2.2390  -18.5900 O.co2 430  ASP430     -0.2456
     79  OD2       -7.8440   -0.4720  -19.0450 O.co2 430  ASP430     -0.2456
     80  N         -5.0200   -1.8540  -21.2290 N.am  431  GLY431     -0.1940
     81  CA        -3.9420   -0.8880  -21.6940 C.3   431  GLY431      0.2014
     82  C         -3.2120   -1.5830  -22.8370 C.2   431  GLY431      0.2639
     83  O         -2.9060   -0.9600  -23.8780 O.2   431  GLY431     -0.2714
     84  N         -2.9120   -2.8850  -22.6950 N.am  432  SER432     -0.1949
     85  CA        -2.1550   -3.5590  -23.7020 C.3   432  SER432      0.1924
     86  C         -2.9730   -3.7110  -24.9950 C.2   432  SER432      0.2314
     87  O         -2.4330   -3.6230  -26.1340 O.2   432  SER432     -0.2863
     88  CB        -1.8140   -5.0220  -23.2720 C.3   432  SER432      0.2116
     89  OG        -0.8600   -4.9200  -22.1870 O.3   432  SER432     -0.2180
     90  N         -2.7830   -1.2200  -27.8760 N.3   435  LEU435     -0.1245
     91  CA        -1.6520   -1.0120  -28.8520 C.3   435  LEU435      0.1561
     92  C         -1.8560   -1.7920  -30.1150 C.2   435  LEU435      0.2260
     93  O         -1.3080   -1.3750  -31.1510 O.2   435  LEU435     -0.2867
     94  CB        -0.3180   -1.5330  -28.2750 C.3   435  LEU435      0.0270
     95  CG         0.2750   -0.6000  -27.1800 C.3   435  LEU435      0.0019
     96  CD1       -0.1880   -0.9300  -25.6730 C.3   435  LEU435      0.0001
     97  CD2        1.8140   -0.6390  -27.2210 C.3   435  LEU435      0.0001
     98  N         -9.2090   -7.7390  -19.6810 N.3   455  ILE455     -0.1245
     99  CA        -9.3770   -7.3290  -18.2650 C.3   455  ILE455      0.1561
    100  C         -9.4710   -5.8150  -18.2070 C.2   455  ILE455      0.2260
    101  O         -8.4300   -5.1230  -18.3800 O.2   455  ILE455     -0.2867
    102  CB        -8.1990   -7.8400  -17.3820 C.3   455  ILE455      0.0252
    103  CG1       -8.1490   -9.4180  -17.3820 C.3   455  ILE455      0.0019
    104  CG2       -8.3960   -7.3090  -15.8700 C.3   455  ILE455      0.0019
    105  CD1       -7.2840  -10.0060  -18.4900 C.3   455  ILE455      0.0001
    106  N         -9.4960   -3.0190  -16.1760 N.3   457  ASN457     -0.1240
    107  CA        -9.3840   -2.3870  -14.8770 C.3   457  ASN457      0.1653
    108  C         -8.9920   -0.9150  -15.0590 C.2   457  ASN457      0.2266
    109  O         -8.4390   -0.2960  -14.1100 O.2   457  ASN457     -0.2867
    110  CB        -8.3630   -3.1300  -13.9890 C.3   457  ASN457      0.1155
    111  CG        -6.9840   -3.2810  -14.6820 C.2   457  ASN457      0.2627
    112  OD1       -6.6680   -2.5390  -15.6370 O.2   457  ASN457     -0.2716
    113  ND2       -6.1730   -4.2460  -14.2010 N.am  457  ASN457     -0.0877
    114  N         -6.7900    1.0430  -16.8780 N.3   459  GLY459     -0.1210
    115  CA        -5.4520    1.5840  -16.8590 C.3   459  GLY459      0.1956
    116  C         -4.4030    0.5020  -16.6920 C.2   459  GLY459      0.2612
    117  O         -4.6970   -0.7160  -16.8200 O.2   459  GLY459     -0.2717
    118  N         -3.1840    0.9470  -16.4620 N.am  460  TYR460     -0.1962
    119  CA        -2.0530    0.0690  -16.4500 C.3   460  TYR460      0.1771
    120  C         -1.7850   -0.3330  -14.9420 C.2   460  TYR460      0.2620
    121  O         -0.9690    0.2690  -14.2670 O.2   460  TYR460     -0.2715
    122  CB        -0.8030    0.7820  -16.8630 C.3   460  TYR460      0.0574
    123  CG        -0.7780    1.3500  -18.2800 C.ar  460  TYR460     -0.0198
    124  CD1       -1.4340    0.7190  -19.3320 C.ar  460  TYR460     -0.0009
    125  CD2        0.0080    2.5050  -18.5240 C.ar  460  TYR460     -0.0009
    126  CE1       -1.3790    1.2420  -20.7230 C.ar  460  TYR460      0.0417
    127  CE2        0.0950    3.0460  -19.8170 C.ar  460  TYR460      0.0417
    128  CZ        -0.6450    2.4500  -20.8980 C.ar  460  TYR460      0.1957
    129  OH        -0.5880    2.8720  -22.2150 O.3   460  TYR460     -0.2866
    130  N         -2.4750   -1.3640  -14.5010 N.am  461  THR461     -0.1937
    131  CA        -2.4220   -1.6520  -13.0540 C.3   461  THR461      0.2028
    132  C         -1.0440   -2.1460  -12.6810 C.2   461  THR461      0.2642
    133  O         -0.5780   -1.8390  -11.4690 O.2   461  THR461     -0.2714
    134  CB        -3.5930   -2.6670  -12.6960 C.3   461  THR461      0.1808
    135  OG1       -4.7970   -1.9260  -12.5730 O.3   461  THR461     -0.2208
    136  CG2       -3.3140   -3.4630  -11.3100 C.3   461  THR461      0.0379
    137  N         -0.3750   -2.9220  -13.5510 N.am  462  ILE462     -0.1963
    138  CA         0.9600   -3.3980  -13.2060 C.3   462  ILE462      0.1727
    139  C          1.8890   -2.2060  -12.9000 C.2   462  ILE462      0.2616
    140  O          2.7620   -2.2830  -11.9790 O.2   462  ILE462     -0.2715
    141  CB         1.5300   -4.3440  -14.2070 C.3   462  ILE462      0.0290
    142  CG1        2.9230   -4.9320  -13.7710 C.3   462  ILE462      0.0022
    143  CG2        1.6540   -3.6720  -15.6030 C.3   462  ILE462      0.0023
    144  CD1        3.3130   -6.2750  -14.6230 C.3   462  ILE462      0.0001
    145  N          1.6800   -1.1110  -13.6230 N.am  463  GLU463     -0.1977
    146  CA         2.5470    0.0280  -13.4480 C.3   463  GLU463      0.1602
    147  C          2.1460    0.7850  -12.1980 C.2   463  GLU463      0.2287
    148  O          3.0310    1.3060  -11.4900 O.2   463  GLU463     -0.2864
    149  CB         2.5120    0.9450  -14.6820 C.3   463  GLU463      0.0415
    150  CG         3.8780    1.4310  -15.0350 C.3   463  GLU463      0.1163
    151  CD         4.8780    0.2790  -15.2270 C.2   463  GLU463      0.3649
    152  OE1        4.6380   -0.5960  -16.1210 O.co2 463  GLU463     -0.2457
    153  OE2        5.9070    0.2460  -14.4860 O.co2 463  GLU463     -0.2457
    154  N          4.3920   -0.5520   -9.5900 N.3   466  ILE466     -0.1245
    155  CA         5.8260   -0.3650   -9.5570 C.3   466  ILE466      0.1561
    156  C          5.9140    1.1530   -9.1110 C.2   466  ILE466      0.2260
    157  O          6.6780    1.4780   -8.2000 O.2   466  ILE466     -0.2867
    158  CB         6.4120   -0.6770  -11.0680 C.3   466  ILE466      0.0252
    159  CG1        6.2660   -2.2020  -11.4360 C.3   466  ILE466      0.0019
    160  CG2        7.8570    0.1550  -11.3710 C.3   466  ILE466      0.0019
    161  CD1        6.5840   -2.4710  -12.9980 C.3   466  ILE466      0.0001
@<TRIPOS>BOND
     1     1     2    1
     2     2     3    1
     3     2     5    1
     4     3     4    2
     5     5     6    1
     6    93    92    2
     7     6     8   am
     8     6     7    2
     9    92    91    1
    10    59    58   ar
    11    59    57   ar
    12    91    94    1
    13    91    90    1
    14    58    56   ar
    15    57    55   ar
    16    94    95    1
    17    56    55   ar
    18    55    54    1
    19    97    95    1
    20    95    96    1
    21    54    51    1
    22    63    62    2
    23    87    86    2
    24    53    52    2
    25    62    61    1
    26    51    52    1
    27    51    50    1
    28    52    60   am
    29    86    85    1
    30    50    48   am
    31    60    61    1
    32    61    64    1
    33    83    82    2
    34    85    88    1
    35    85    84    1
    36    65    64    1
    37    65    67    1
    38    46    47    1
    39    88    89    1
    40    48    49    2
    41    48    47    1
    42    75    74    2
    43    64    66    1
    44    82    84   am
    45    82    81    1
    46    71    70    2
    47   129   128    1
    48    74    73    1
    49    74    80   am
    50    81    80    1
    51    73    72    1
    52    73    76    1
    53    70    72   am
    54    70    69    1
    55    26    25    1
    56    68    69    1
    57   128   126   ar
    58   128   127   ar
    59    21    22    1
    60   126   124   ar
    61    76    77    1
    62    25    22    1
    63    25    27    1
    64   127   125   ar
    65    22    23    1
    66    24    23    2
    67    98    99    1
    68    77    79   ar
    69    77    78   ar
    70   124   123   ar
    71    23    28   am
    72   125   123   ar
    73   105   103    1
    74   101   100    2
    75   123   122    1
    76    99   100    1
    77    99   102    1
    78    45    44    1
    79    44    41    1
    80    28    29    1
    81   103   102    1
    82   102   104    1
    83    29    30    1
    84   114   115    1
    85   122   119    1
    86   115   116    1
    87   117   116    2
    88   116   118   am
    89    41    42    1
    90    41    40    1
    91    18    16   ar
    92    18    19   ar
    93    43    42    2
    94   118   119    1
    95   119   120    1
    96    16    14   ar
    97   106   107    1
    98   152   151   ar
    99    20    19    1
   100    40    34   am
   101    30    31    2
   102    30    32   am
   103    19    17   ar
   104   112   111    2
   105   143   141    1
   106   151   150    1
   107   151   153   ar
   108    14    13    1
   109    14    15   ar
   110    32    33    1
   111   108   107    1
   112   108   109    2
   113   150   149    1
   114   120   130   am
   115   120   121    2
   116   107   110    1
   117    13    10    1
   118    17    15   ar
   119    34    33    1
   120    34    35    2
   121   111   113   am
   122   111   110    1
   123   149   146    1
   124   144   142    1
   125   130   131    1
   126   141   142    1
   127   141   138    1
   128    33    36    1
   129     9    10    1
   130   145   146    1
   131   145   139   am
   132    10    11    1
   133   137   138    1
   134   137   132   am
   135   146   147    1
   136   138   139    1
   137    36    37    1
   138    11    12    2
   139   131   134    1
   140   131   132    1
   141   161   159    1
   142   139   140    2
   143   134   135    1
   144   134   136    1
   145   132   133    2
   146   147   148    2
   147    37    39   ar
   148    37    38   ar
   149   159   158    1
   150   160   158    1
   151   158   155    1
   152   154   155    1
   153   155   156    1
   154   156   157    2
