@<TRIPOS>MOLECULE
tmp/4comA01.pdb
 99 91 0 0 0
SMALL
GASTEIGER

@<TRIPOS>ATOM
      1  N         44.0650   -7.2670    5.8620 N.3   140  SER140     -0.1217
      2  CA        42.7720   -6.6930    5.4300 C.3   140  SER140      0.1889
      3  C         41.5350   -7.5500    5.8120 C.2   140  SER140      0.2288
      4  O         40.5110   -7.0360    6.3380 O.2   140  SER140     -0.2866
      5  CB        42.7930   -6.3750    3.9050 C.3   140  SER140      0.2089
      6  OG        43.7300   -5.3190    3.6380 O.3   140  SER140     -0.2183
      7  N         40.9800   -7.5250    9.7160 N.3   143  ILE143     -0.1231
      8  CA        40.2590   -6.2960   10.0980 C.3   143  ILE143      0.1692
      9  C         38.7180   -6.3460    9.7400 C.2   143  ILE143      0.2591
     10  O         37.8230   -6.0060   10.5920 O.2   143  ILE143     -0.2718
     11  CB        40.9730   -5.0250    9.5270 C.3   143  ILE143      0.0266
     12  CG1       42.4030   -4.8850   10.0860 C.3   143  ILE143      0.0019
     13  CG2       40.2010   -3.7510    9.8350 C.3   143  ILE143      0.0020
     14  CD1       42.5170   -4.5740   11.6100 C.3   143  ILE143      0.0001
     15  N         38.4080   -6.7640    8.4980 N.am  144  GLN144     -0.1979
     16  CA        36.9870   -7.0260    8.1190 C.3   144  GLN144      0.1601
     17  C         36.2580   -7.9320    9.1650 C.2   144  GLN144      0.2287
     18  O         35.1200   -7.6030    9.6370 O.2   144  GLN144     -0.2864
     19  CB        36.9020   -7.7020    6.7330 C.3   144  GLN144      0.0394
     20  CG        35.4510   -7.9690    6.2340 C.3   144  GLN144      0.0908
     21  CD        35.3580   -9.0110    5.1070 C.2   144  GLN144      0.2608
     22  OE1       36.3440   -9.3550    4.4470 O.2   144  GLN144     -0.2717
     23  NE2       34.1540   -9.5220    4.8970 N.am  144  GLN144     -0.0878
     24  N         35.5290   -6.1590   12.5940 N.3   147  ILE147     -0.1231
     25  CA        34.3590   -5.2840   12.4690 C.3   147  ILE147      0.1692
     26  C         33.0060   -6.0660   12.4530 C.2   147  ILE147      0.2591
     27  O         32.0480   -5.7380   13.2150 O.2   147  ILE147     -0.2718
     28  CB        34.4830   -4.3310   11.2280 C.3   147  ILE147      0.0266
     29  CG1       35.6670   -3.3730   11.4270 C.3   147  ILE147      0.0019
     30  CG2       33.2120   -3.5250   11.0140 C.3   147  ILE147      0.0020
     31  CD1       36.2070   -2.6960   10.1390 C.3   147  ILE147      0.0001
     32  N         32.9260   -7.0870   11.5880 N.am  148  GLN148     -0.1979
     33  CA        31.6960   -7.9190   11.5230 C.3   148  GLN148      0.1601
     34  C         31.3330   -8.5610   12.8990 C.2   148  GLN148      0.2287
     35  O         30.1360   -8.5490   13.3140 O.2   148  GLN148     -0.2864
     36  CB        31.8190   -8.9850   10.4370 C.3   148  GLN148      0.0394
     37  CG        31.8260   -8.4020    9.0090 C.3   148  GLN148      0.0908
     38  CD        32.1570   -9.4340    7.9600 C.2   148  GLN148      0.2608
     39  OE1       33.2460   -9.9940    7.9360 O.2   148  GLN148     -0.2717
     40  NE2       31.2020   -9.6910    7.0690 N.am  148  GLN148     -0.0878
     41  N         29.7980   -5.9060   15.2980 N.3   151  MET151     -0.1245
     42  CA        28.4040   -5.6040   14.9140 C.3   151  MET151      0.1570
     43  C         27.4100   -6.7450   15.2240 C.2   151  MET151      0.2261
     44  O         26.3090   -6.4770   15.7260 O.2   151  MET151     -0.2867
     45  CB        28.3320   -5.2040   13.4340 C.3   151  MET151      0.0387
     46  CG        29.1060   -3.9450   13.0620 C.3   151  MET151      0.0595
     47  SD        28.8180   -2.4680   14.0900 S.3   151  MET151     -0.1393
     48  CE        30.3190   -1.5460   13.7220 C.3   151  MET151      0.0692
     49  N         24.2030   -7.0490   18.8040 N.3   155  ASN155     -0.1240
     50  CA        22.7870   -7.3940   18.6600 C.3   155  ASN155      0.1653
     51  C         22.4020   -8.7680   19.2650 C.2   155  ASN155      0.2266
     52  O         21.2500   -9.2130   19.1020 O.2   155  ASN155     -0.2867
     53  CB        22.3540   -7.3070   17.1690 C.3   155  ASN155      0.1155
     54  CG        22.4440   -5.8780   16.6150 C.2   155  ASN155      0.2627
     55  OD1       21.7430   -4.9590   17.0840 O.2   155  ASN155     -0.2716
     56  ND2       23.2920   -5.6830   15.6090 N.am  155  ASN155     -0.0877
     57  N         44.8170    0.9030    8.2190 N.3   195  HIS195     -0.1241
     58  CA        43.9670   -0.0420    8.9390 C.3   195  HIS195      0.1621
     59  C         43.4720    0.4640   10.3080 C.2   195  HIS195      0.2264
     60  O         42.3050    0.1950   10.6790 O.2   195  HIS195     -0.2867
     61  CB        44.6460   -1.4230    8.9740 C.3   195  HIS195      0.0745
     62  CG        44.6570   -2.0980    7.6370 C.ar  195  HIS195      0.0817
     63  ND1       45.6260   -1.8560    6.6870 N.ar  195  HIS195     -0.2268
     64  CD2       43.7760   -2.9510    7.0610 C.ar  195  HIS195      0.1154
     65  CE1       45.3630   -2.5560    5.5980 C.ar  195  HIS195      0.1986
     66  NE2       44.2410   -3.2250    5.7970 N.ar  195  HIS195     -0.2212
     67  N         40.3860    2.7230    9.1760 N.3   198  ILE198     -0.1245
     68  CA        39.1940    1.9600    8.7710 C.3   198  ILE198      0.1561
     69  C         38.4130    1.3480    9.9690 C.2   198  ILE198      0.2260
     70  O         37.1660    1.4340   10.0600 O.2   198  ILE198     -0.2867
     71  CB        39.6080    0.8800    7.7090 C.3   198  ILE198      0.0252
     72  CG1       39.9720    1.5770    6.3890 C.3   198  ILE198      0.0019
     73  CG2       38.4830   -0.1070    7.4570 C.3   198  ILE198      0.0019
     74  CD1       40.6550    0.6970    5.3860 C.3   198  ILE198      0.0001
     75  N         34.7420    3.1100   11.3840 N.3   202  SER202     -0.1217
     76  CA        33.6640    2.1180   11.4260 C.3   202  SER202      0.1889
     77  C         32.9530    1.9730   12.7800 C.2   202  SER202      0.2288
     78  O         31.7170    1.8000   12.8170 O.2   202  SER202     -0.2866
     79  CB        34.1700    0.7540   10.9450 C.3   202  SER202      0.2089
     80  OG        34.4720    0.8160    9.5580 O.3   202  SER202     -0.2183
     81  N         24.9710    2.6700   11.8230 N.3   207  ILE207     -0.1231
     82  CA        24.1550    2.3400   10.6380 C.3   207  ILE207      0.1692
     83  C         22.6620    2.4620   10.9550 C.2   207  ILE207      0.2591
     84  O         21.9120    3.0580   10.1630 O.2   207  ILE207     -0.2718
     85  CB        24.4650    0.9220   10.0870 C.3   207  ILE207      0.0266
     86  CG1       25.9020    0.8380    9.5340 C.3   207  ILE207      0.0019
     87  CG2       23.4410    0.5260    9.0510 C.3   207  ILE207      0.0020
     88  CD1       26.2910    2.0000    8.6470 C.3   207  ILE207      0.0001
     89  N         22.2360    1.8990   12.0920 N.am  208  ARG208     -0.1980
     90  CA        20.8720    2.1070   12.6680 C.3   208  ARG208      0.1597
     91  C         20.9090    2.8450   14.0020 C.2   208  ARG208      0.2287
     92  O         21.8090    2.6210   14.8170 O.2   208  ARG208     -0.2864
     93  CB        20.1750    0.8000   12.9780 C.3   208  ARG208      0.0334
     94  CG        19.9900   -0.1310   11.8310 C.3   208  ARG208      0.0492
     95  CD        19.3310   -1.3880   12.3450 C.3   208  ARG208      0.2205
     96  NE        18.8670   -2.2470   11.2690 N.pl3 208  ARG208     -0.0865
     97  CZ        18.1220   -3.3270   11.4550 C.cat 208  ARG208      0.5346
     98  NH1       17.7610   -3.6660   12.6920 N.pl3 208  ARG208      0.1354
     99  NH2       17.7300   -4.0540   10.4120 N.pl3 208  ARG208      0.1354
@<TRIPOS>BOND
     1     6     5    1
     2     5     2    1
     3    22    21    2
     4    23    21   am
     5    21    20    1
     6    74    72    1
     7     2     3    1
     8     2     1    1
     9    65    66   ar
    10    65    63   ar
    11    66    64   ar
    12     3     4    2
    13    20    19    1
    14    72    71    1
    15    63    62   ar
    16    19    16    1
    17    64    62   ar
    18    40    38   am
    19    73    71    1
    20    62    61    1
    21    71    68    1
    22    39    38    2
    23    38    37    1
    24    16    15    1
    25    16    17    1
    26    57    58    1
    27    15     9   am
    28    88    86    1
    29    68    67    1
    30    68    69    1
    31    58    61    1
    32    58    59    1
    33    37    36    1
    34    87    85    1
    35    17    18    2
    36    11    13    1
    37    11    12    1
    38    11     8    1
    39    86    85    1
    40    80    79    1
    41     7     8    1
    42     9     8    1
    43     9    10    2
    44    69    70    2
    45    12    14    1
    46    85    82    1
    47    31    29    1
    48    84    83    2
    49    59    60    2
    50    99    97    1
    51    36    33    1
    52    82    83    1
    53    82    81    1
    54    79    76    1
    55    83    89   am
    56    30    28    1
    57    28    29    1
    58    28    25    1
    59    96    97    2
    60    96    95    1
    61    75    76    1
    62    76    77    1
    63    97    98    1
    64    33    32    1
    65    33    34    1
    66    32    26   am
    67    94    95    1
    68    94    93    1
    69    89    90    1
    70    26    25    1
    71    26    27    2
    72    25    24    1
    73    90    93    1
    74    90    91    1
    75    77    78    2
    76    34    35    2
    77    46    45    1
    78    46    47    1
    79    45    42    1
    80    48    47    1
    81    91    92    2
    82    42    43    1
    83    42    41    1
    84    43    44    2
    85    56    54   am
    86    54    55    2
    87    54    53    1
    88    53    50    1
    89    50    49    1
    90    50    51    1
    91    52    51    2
