@<TRIPOS>MOLECULE
tmp/4comA00.pdb
 124 122 0 0 0
SMALL
GASTEIGER

@<TRIPOS>ATOM
      1  N         16.0230   -1.5000   40.7750 N.3    99  TYR99      -0.1241
      2  CA        16.0810   -1.1850   39.3110 C.3    99  TYR99       0.1605
      3  C         16.6840   -2.3410   38.4760 C.2    99  TYR99       0.2264
      4  O         17.8950   -2.6160   38.5690 O.2    99  TYR99      -0.2867
      5  CB        16.9120    0.0890   39.0760 C.3    99  TYR99       0.0534
      6  CG        16.8460    0.7320   37.6480 C.ar   99  TYR99      -0.0201
      7  CD1       17.7340    0.3570   36.6400 C.ar   99  TYR99      -0.0009
      8  CD2       15.9410    1.7530   37.3600 C.ar   99  TYR99      -0.0009
      9  CE1       17.7000    0.9520   35.3430 C.ar   99  TYR99       0.0417
     10  CE2       15.8870    2.3560   36.0730 C.ar   99  TYR99       0.0417
     11  CZ        16.7650    1.9410   35.0690 C.ar   99  TYR99       0.1957
     12  OH        16.7190    2.5630   33.8180 O.3    99  TYR99      -0.2866
     13  N         18.1420   -3.5030   35.1980 N.3   101  HIS101     -0.1226
     14  CA        18.8130   -2.9040   34.0280 C.3   101  HIS101      0.1752
     15  C         18.3950   -3.5940   32.6950 C.2   101  HIS101      0.2596
     16  O         17.9710   -4.7620   32.6790 O.2   101  HIS101     -0.2718
     17  CB        20.3450   -2.9090   34.2060 C.3   101  HIS101      0.0759
     18  CG        20.8330   -2.0310   35.3430 C.ar  101  HIS101      0.0818
     19  ND1       21.5010   -0.8350   35.1350 N.ar  101  HIS101     -0.2268
     20  CD2       20.7370   -2.1750   36.6890 C.ar  101  HIS101      0.1154
     21  CE1       21.8150   -0.2990   36.3130 C.ar  101  HIS101      0.1986
     22  NE2       21.3560   -1.0930   37.2670 N.ar  101  HIS101     -0.2212
     23  N         18.5130   -2.8490   31.6030 N.am  102  ASP102     -0.1974
     24  CA        18.1080   -3.3300   30.2570 C.3   102  ASP102      0.1709
     25  C         16.7420   -4.0810   30.2900 C.2   102  ASP102      0.2293
     26  O         16.6390   -5.1990   29.7660 O.2   102  ASP102     -0.2864
     27  CB        19.1880   -4.2710   29.6120 C.3   102  ASP102      0.1436
     28  CG        20.6310   -4.1010   30.1890 C.2   102  ASP102      0.3671
     29  OD1       21.2990   -3.0980   29.8540 O.co2 102  ASP102     -0.2456
     30  OD2       21.1200   -5.0290   30.9120 O.co2 102  ASP102     -0.2456
     31  N         23.7840   -9.5130   29.3150 N.3   111  TYR111     -0.1241
     32  CA        24.3770   -8.1590   29.4150 C.3   111  TYR111      0.1605
     33  C         25.7140   -7.9480   28.6720 C.2   111  TYR111      0.2264
     34  O         25.7450   -7.2250   27.6360 O.2   111  TYR111     -0.2867
     35  CB        24.4500   -7.7080   30.9360 C.3   111  TYR111      0.0534
     36  CG        25.0380   -6.3240   31.2400 C.ar  111  TYR111     -0.0201
     37  CD1       24.6080   -5.1820   30.6000 C.ar  111  TYR111     -0.0009
     38  CD2       26.0450   -6.1750   32.2200 C.ar  111  TYR111     -0.0009
     39  CE1       25.1650   -3.9280   30.8980 C.ar  111  TYR111      0.0417
     40  CE2       26.5840   -4.9510   32.5460 C.ar  111  TYR111      0.0417
     41  CZ        26.1830   -3.8350   31.8800 C.ar  111  TYR111      0.1957
     42  OH        26.7250   -2.6230   32.2580 O.3   111  TYR111     -0.2866
     43  N         23.1650   -6.6650   25.4880 N.3   158  SER158     -0.1202
     44  CA        22.7390   -5.2680   25.7640 C.3   158  SER158      0.2020
     45  C         23.8570   -4.2460   26.0700 C.2   158  SER158      0.2619
     46  O         23.6550   -3.0360   25.9070 O.2   158  SER158     -0.2717
     47  CB        21.7480   -5.2210   26.9510 C.3   158  SER158      0.2103
     48  OG        20.6390   -6.0980   26.7730 O.3   158  SER158     -0.2182
     49  N         25.0050   -4.7340   26.5350 N.am  159  GLY159     -0.1942
     50  CA        26.1160   -3.9110   26.9760 C.3   159  GLY159      0.2014
     51  C         27.4180   -3.9970   26.1830 C.2   159  GLY159      0.2638
     52  O         27.3930   -4.2110   24.9720 O.2   159  GLY159     -0.2714
     53  N         28.5540   -3.7980   26.8860 N.am  160  ALA160     -0.1977
     54  CA        29.8640   -3.6050   26.2500 C.3   160  ALA160      0.1597
     55  C         30.4020   -4.8330   25.5120 C.2   160  ALA160      0.2287
     56  O         30.2630   -5.9690   25.9990 O.2   160  ALA160     -0.2864
     57  CB        30.9100   -3.1300   27.3100 C.3   160  ALA160      0.0319
     58  N         28.8780    0.0670   22.1210 N.3   214  TYR214     -0.1241
     59  CA        29.9110    0.3800   23.1460 C.3   214  TYR214      0.1605
     60  C         31.0600   -0.6370   23.0790 C.2   214  TYR214      0.2264
     61  O         30.8610   -1.8390   23.3700 O.2   214  TYR214     -0.2867
     62  CB        29.2670    0.4240   24.5680 C.3   214  TYR214      0.0534
     63  CG        30.0900    1.0820   25.6910 C.ar  214  TYR214     -0.0201
     64  CD1       31.1880    0.4320   26.2720 C.ar  214  TYR214     -0.0009
     65  CD2       29.7640    2.3460   26.1840 C.ar  214  TYR214     -0.0009
     66  CE1       31.9320    1.0310   27.2870 C.ar  214  TYR214      0.0417
     67  CE2       30.5140    2.9460   27.2430 C.ar  214  TYR214      0.0417
     68  CZ        31.5950    2.2860   27.7790 C.ar  214  TYR214      0.1957
     69  OH        32.3670    2.8670   28.8300 O.3   214  TYR214     -0.2866
     70  N         31.6890   -1.9060   34.3820 N.3   326  SER326     -0.1217
     71  CA        30.8650   -1.5410   33.1790 C.3   326  SER326      0.1889
     72  C         31.4000   -0.3650   32.3450 C.2   326  SER326      0.2288
     73  O         30.8750   -0.0820   31.2520 O.2   326  SER326     -0.2866
     74  CB        29.3980   -1.2040   33.5660 C.3   326  SER326      0.2089
     75  OG        28.7490   -2.3050   34.1960 O.3   326  SER326     -0.2183
     76  N         27.3290    1.4680   40.0320 N.3   465  VAL465     -0.1231
     77  CA        27.0390    1.5040   38.6050 C.3   465  VAL465      0.1678
     78  C         27.0550    2.8980   37.9860 C.2   465  VAL465      0.2434
     79  O         26.7500    3.8920   38.6570 O.2   465  VAL465     -0.2733
     80  CB        25.6680    0.8130   38.2840 C.3   465  VAL465      0.0265
     81  CG1       25.7310   -0.6690   38.5340 C.3   465  VAL465      0.0020
     82  CG2       24.5390    1.4130   39.0840 C.3   465  VAL465      0.0020
     83  N         27.3590    2.9830   36.6710 N.am  466  PRO466     -0.2718
     84  CA        27.2460    4.2860   35.9810 C.3   466  PRO466      0.1535
     85  C         25.8540    4.9550   36.0980 C.2   466  PRO466      0.2598
     86  O         25.7820    6.1790   36.1660 O.2   466  PRO466     -0.2715
     87  CB        27.5790    3.9460   34.5210 C.3   466  PRO466      0.0310
     88  CG        28.4910    2.7390   34.6270 C.3   466  PRO466      0.0237
     89  CD        28.0210    1.9550   35.8310 C.3   466  PRO466      0.0939
     90  N         24.7740    4.1780   36.1010 N.am  467  ALA467     -0.1964
     91  CA        23.4150    4.7440   36.3590 C.3   467  ALA467      0.1728
     92  C         23.0080    5.9050   35.4320 C.2   467  ALA467      0.2616
     93  O         22.4640    6.9200   35.8780 O.2   467  ALA467     -0.2715
     94  CB        23.2900    5.1790   37.8480 C.3   467  ALA467      0.0334
     95  N         23.2580    5.7460   34.1330 N.am  468  GLU468     -0.1963
     96  CA        22.9230    6.7930   33.1660 C.3   468  GLU468      0.1733
     97  C         21.4550    7.2770   33.2310 C.2   468  GLU468      0.2616
     98  O         21.1960    8.5040   33.1970 O.2   468  GLU468     -0.2715
     99  CB        23.2240    6.3380   31.7170 C.3   468  GLU468      0.0429
    100  CG        24.6750    5.8920   31.4060 C.3   468  GLU468      0.1163
    101  CD        24.9400    5.7240   29.8830 C.2   468  GLU468      0.3649
    102  OE1       23.9970    5.9600   29.0810 O.co2 468  GLU468     -0.2457
    103  OE2       26.0820    5.3610   29.4980 O.co2 468  GLU468     -0.2457
    104  N         20.5110    6.3320   33.2620 N.am  469  LYS469     -0.1977
    105  CA        19.0740    6.6610   33.4190 C.3   469  LYS469      0.1596
    106  C         18.5380    6.4270   34.8630 C.2   469  LYS469      0.2287
    107  O         17.7060    7.2080   35.3210 O.2   469  LYS469     -0.2864
    108  CB        18.2120    5.8590   32.4500 C.3   469  LYS469      0.0298
    109  CG        18.2250    6.3580   30.9970 C.3   469  LYS469      0.0038
    110  CD        17.8880    5.2060   30.0400 C.3   469  LYS469      0.0206
    111  CE        17.7030    5.6960   28.5790 C.3   469  LYS469      0.1093
    112  NZ        18.9580    6.2650   27.9880 N.3   469  LYS469     -0.1314
    113  N         33.3410    7.8120   31.0070 N.3   590  TYR590     -0.1241
    114  CA        33.9310    7.8910   29.6670 C.3   590  TYR590      0.1605
    115  C         33.6060    9.2440   28.9810 C.2   590  TYR590      0.2264
    116  O         32.6020    9.8800   29.3010 O.2   590  TYR590     -0.2867
    117  CB        33.4870    6.6800   28.8150 C.3   590  TYR590      0.0534
    118  CG        32.0310    6.6220   28.4000 C.ar  590  TYR590     -0.0201
    119  CD1       31.0070    6.3440   29.3110 C.ar  590  TYR590     -0.0009
    120  CD2       31.6780    6.7930   27.0680 C.ar  590  TYR590     -0.0009
    121  CE1       29.6560    6.2700   28.8730 C.ar  590  TYR590      0.0417
    122  CE2       30.3740    6.7290   26.6580 C.ar  590  TYR590      0.0417
    123  CZ        29.3710    6.4660   27.5580 C.ar  590  TYR590      0.1957
    124  OH        28.0810    6.4080   27.0770 O.3   590  TYR590     -0.2866
@<TRIPOS>BOND
     1    58    59    1
     2    60    59    1
     3    60    61    2
     4    59    62    1
     5    62    63    1
     6    52    51    2
     7    43    44    1
     8    55    56    2
     9    55    54    1
    10    63    65   ar
    11    63    64   ar
    12    44    45    1
    13    44    47    1
    14    46    45    2
    15    45    49   am
    16    51    53   am
    17    51    50    1
    18    65    67   ar
    19    54    53    1
    20    54    57    1
    21    64    66   ar
    22    49    50    1
    23   122   120   ar
    24   122   123   ar
    25    48    47    1
    26   120   118   ar
    27   124   123    1
    28    67    68   ar
    29    66    68   ar
    30   123   121   ar
    31    34    33    2
    32    68    69    1
    33   112   111    1
    34   118   117    1
    35   118   119   ar
    36   111   110    1
    37    33    32    1
    38   117   114    1
    39   121   119   ar
    40   115   116    2
    41   115   114    1
    42   102   101   ar
    43    31    32    1
    44    32    35    1
    45   103   101   ar
    46    27    28    1
    47    27    24    1
    48   114   113    1
    49    26    25    2
    50    29    28   ar
    51   101   100    1
    52   110   109    1
    53    28    30   ar
    54    24    25    1
    55    24    23    1
    56    37    39   ar
    57    37    36   ar
    58    39    41   ar
    59    35    36    1
    60   109   108    1
    61    36    38   ar
    62    73    72    2
    63   100    99    1
    64    23    15   am
    65    99    96    1
    66    41    42    1
    67    41    40   ar
    68    38    40   ar
    69    72    71    1
    70   108   105    1
    71    16    15    2
    72    15    14    1
    73    96    97    1
    74    96    95    1
    75    71    74    1
    76    71    70    1
    77    98    97    2
    78    97   104   am
    79   104   105    1
    80   105   106    1
    81    74    75    1
    82    12    11    1
    83    14    17    1
    84    14    13    1
    85    95    92   am
    86    17    18    1
    87    87    88    1
    88    87    84    1
    89    88    89    1
    90   106   107    2
    91    11     9   ar
    92    11    10   ar
    93    19    18   ar
    94    19    21   ar
    95    18    20   ar
    96     9     7   ar
    97    92    93    2
    98    92    91    1
    99    89    83    1
   100    84    85    1
   101    84    83    1
   102    10     8   ar
   103    85    90   am
   104    85    86    2
   105    90    91    1
   106    21    22   ar
   107    91    94    1
   108     7     6   ar
   109    83    78   am
   110    20    22   ar
   111     8     6   ar
   112     6     5    1
   113    78    77    1
   114    78    79    2
   115    80    81    1
   116    80    77    1
   117    80    82    1
   118     3     4    2
   119     3     2    1
   120    77    76    1
   121     5     2    1
   122     2     1    1
