@<TRIPOS>MOLECULE
tmp/4coqB00.pdb
 104 101 0 0 0
SMALL
GASTEIGER

@<TRIPOS>ATOM
      1  N         22.4440   76.0070   27.5700 N.3    89  GLN89      -0.1245
      2  CA        22.0900   76.3850   28.9400 C.3    89  GLN89       0.1566
      3  C         20.7820   75.7260   29.3070 C.2    89  GLN89       0.2260
      4  O         20.0240   75.3010   28.4380 O.2    89  GLN89      -0.2867
      5  CB        21.9580   77.9250   29.0580 C.3    89  GLN89       0.0367
      6  CG        21.0110   78.5530   28.0230 C.3    89  GLN89       0.0905
      7  CD        19.6660   78.9900   28.5600 C.2    89  GLN89       0.2608
      8  OE1       19.1650   78.4700   29.5550 O.2    89  GLN89      -0.2717
      9  NE2       19.0610   79.9670   27.8760 N.am   89  GLN89      -0.0878
     10  N         17.4510   76.4350   32.3140 N.3    91  HIS91      -0.1241
     11  CA        16.9930   77.3640   33.3380 C.3    91  HIS91       0.1621
     12  C         15.5630   76.9740   33.7370 C.2    91  HIS91       0.2264
     13  O         14.9750   76.0060   33.1870 O.2    91  HIS91      -0.2867
     14  CB        17.0560   78.8040   32.7930 C.3    91  HIS91       0.0745
     15  CG        16.1320   79.0130   31.6390 C.ar   91  HIS91       0.0817
     16  ND1       16.5330   78.8710   30.3250 N.ar   91  HIS91      -0.2268
     17  CD2       14.8100   79.2820   31.6080 C.ar   91  HIS91       0.1154
     18  CE1       15.4950   79.0680   29.5340 C.ar   91  HIS91       0.1986
     19  NE2       14.4320   79.3010   30.2860 N.ar   91  HIS91      -0.2212
     20  N         11.4340   77.9220   35.4990 N.3    93  HIS93      -0.1241
     21  CA        10.2940   78.8140   35.7050 C.3    93  HIS93       0.1621
     22  C          9.3880   78.2130   36.7380 C.2    93  HIS93       0.2264
     23  O          9.2070   76.9830   36.8080 O.2    93  HIS93      -0.2867
     24  CB         9.4750   79.0030   34.4190 C.3    93  HIS93       0.0745
     25  CG        10.2600   79.4940   33.2410 C.ar   93  HIS93       0.0817
     26  ND1       10.3100   80.8260   32.8820 N.ar   93  HIS93      -0.2268
     27  CD2       11.0080   78.8260   32.3320 C.ar   93  HIS93       0.1154
     28  CE1       11.0520   80.9490   31.7930 C.ar   93  HIS93       0.1986
     29  NE2       11.4970   79.7510   31.4470 N.ar   93  HIS93      -0.2212
     30  N         13.7160   74.3700   31.2810 N.3   110  HIS110     -0.1241
     31  CA        13.9420   74.5180   29.8480 C.3   110  HIS110      0.1621
     32  C         15.3840   74.2780   29.4970 C.2   110  HIS110      0.2264
     33  O         16.2760   74.9190   30.0510 O.2   110  HIS110     -0.2867
     34  CB        13.6150   75.9270   29.4290 C.3   110  HIS110      0.0745
     35  CG        12.1660   76.2050   29.4390 C.ar  110  HIS110      0.0817
     36  ND1       11.7140   77.4920   29.4990 N.ar  110  HIS110     -0.2268
     37  CD2       11.0780   75.4070   29.3700 C.ar  110  HIS110      0.1154
     38  CE1       10.3830   77.4820   29.4520 C.ar  110  HIS110      0.1986
     39  NE2        9.9770   76.2200   29.4150 N.ar  110  HIS110     -0.2212
     40  N         17.9330   74.6230   26.5500 N.3   112  VAL112     -0.1245
     41  CA        18.0010   75.4440   25.3340 C.3   112  VAL112      0.1561
     42  C         19.1710   75.0270   24.4650 C.2   112  VAL112      0.2260
     43  O         20.3390   75.0060   24.9290 O.2   112  VAL112     -0.2867
     44  CB        18.1490   76.9270   25.7440 C.3   112  VAL112      0.0252
     45  CG1       18.1740   77.8360   24.5320 C.3   112  VAL112      0.0019
     46  CG2       16.9940   77.3230   26.6390 C.3   112  VAL112      0.0019
     47  N         16.9750   77.3690   17.1830 N.3   120  ILE120     -0.1245
     48  CA        16.8220   76.9930   18.5840 C.3   120  ILE120      0.1561
     49  C         15.7960   75.8770   18.7560 C.2   120  ILE120      0.2260
     50  O         14.7400   75.8910   18.1320 O.2   120  ILE120     -0.2867
     51  CB        16.4550   78.2230   19.4450 C.3   120  ILE120      0.0252
     52  CG1       17.5370   79.3040   19.2720 C.3   120  ILE120      0.0019
     53  CG2       16.2800   77.8360   20.9150 C.3   120  ILE120      0.0019
     54  CD1       17.1380   80.6670   19.7920 C.3   120  ILE120      0.0001
     55  N         14.0470   73.9800   22.2080 N.3   122  VAL122     -0.1245
     56  CA        13.9210   73.9590   23.6530 C.3   122  VAL122      0.1561
     57  C         13.2230   72.6720   24.0460 C.2   122  VAL122      0.2260
     58  O         12.1810   72.3410   23.4750 O.2   122  VAL122     -0.2867
     59  CB        13.1550   75.1550   24.2100 C.3   122  VAL122      0.0252
     60  CG1       13.2780   75.1810   25.7230 C.3   122  VAL122      0.0019
     61  CG2       13.7070   76.4620   23.6360 C.3   122  VAL122      0.0019
     62  N         10.6040   81.9470   21.5670 N.3   176  LEU176     -0.1231
     63  CA        11.1570   82.1290   22.9010 C.3   176  LEU176      0.1693
     64  C         10.0550   82.6420   23.8230 C.2   176  LEU176      0.2593
     65  O          9.1460   83.3780   23.3950 O.2   176  LEU176     -0.2718
     66  CB        12.3170   83.1310   22.8620 C.3   176  LEU176      0.0284
     67  CG        13.4110   82.8330   21.8240 C.3   176  LEU176      0.0019
     68  CD1       14.4630   83.9360   21.9330 C.3   176  LEU176      0.0001
     69  CD2       14.0590   81.4710   22.0250 C.3   176  LEU176      0.0001
     70  N         10.1350   82.2940   25.1110 N.am  177  THR177     -0.1939
     71  CA         9.0910   82.7770   26.0170 C.3   177  THR177      0.2028
     72  C          9.5230   84.0590   26.7150 C.2   177  THR177      0.2643
     73  O          8.7840   84.5670   27.5580 O.2   177  THR177     -0.2714
     74  CB         8.6800   81.7310   27.0630 C.3   177  THR177      0.1808
     75  OG1        9.7510   81.5160   27.9820 O.3   177  THR177     -0.2208
     76  CG2        8.2710   80.4000   26.4070 C.3   177  THR177      0.0379
     77  N         10.7270   84.5400   26.4120 N.am  178  THR178     -0.1937
     78  CA        11.1720   85.8400   26.9280 C.3   178  THR178      0.2013
     79  C         11.5310   86.7350   25.7460 C.2   178  THR178      0.2484
     80  O         11.8940   86.2330   24.6980 O.2   178  THR178     -0.2729
     81  CB        12.3900   85.6690   27.8650 C.3   178  THR178      0.1807
     82  OG1       13.4000   84.9020   27.2080 O.3   178  THR178     -0.2208
     83  CG2       12.0150   84.9400   29.1980 C.3   178  THR178      0.0379
     84  N         11.4700   88.0760   25.9190 N.am  179  PRO179     -0.2726
     85  CA        11.8300   88.9640   24.8200 C.3   179  PRO179      0.1402
     86  C         13.2160   88.6180   24.2930 C.2   179  PRO179      0.2269
     87  O         14.1490   88.3860   25.0910 O.2   179  PRO179     -0.2865
     88  CB        11.8240   90.3520   25.4820 C.3   179  PRO179      0.0296
     89  CG        10.8450   90.2110   26.5740 C.3   179  PRO179      0.0237
     90  CD        11.0320   88.8180   27.1070 C.3   179  PRO179      0.0939
     91  N          9.7550   73.3770   19.8420 N.3   187  TRP187     -0.1241
     92  CA         9.4570   72.9880   21.2280 C.3   187  TRP187      0.1605
     93  C          9.1870   71.5020   21.3570 C.2   187  TRP187      0.2264
     94  O          8.3390   70.9620   20.6220 O.2   187  TRP187     -0.2867
     95  CB         8.2590   73.7610   21.7100 C.3   187  TRP187      0.0550
     96  CG         8.6340   75.0990   22.2210 C.ar  187  TRP187      0.0003
     97  CD1        8.5870   76.3000   21.5480 C.ar  187  TRP187      0.0946
     98  CD2        9.1320   75.3860   23.5240 C.ar  187  TRP187      0.0152
     99  NE1        9.0300   77.3080   22.3600 N.ar  187  TRP187     -0.2442
    100  CE2        9.3590   76.7850   23.5860 C.ar  187  TRP187      0.0810
    101  CE3        9.3960   74.6010   24.6540 C.ar  187  TRP187      0.0012
    102  CZ2        9.8730   77.4050   24.7300 C.ar  187  TRP187      0.0191
    103  CZ3        9.8850   75.2090   25.8000 C.ar  187  TRP187      0.0001
    104  CH2       10.1240   76.6180   25.8270 C.ar  187  TRP187      0.0015
@<TRIPOS>BOND
     1    47    48    1
     2    50    49    2
     3    48    49    1
     4    48    51    1
     5    52    51    1
     6    52    54    1
     7    51    53    1
     8    91    92    1
     9    94    93    2
    10    92    93    1
    11    92    95    1
    12    97    96   ar
    13    97    99   ar
    14    62    63    1
    15    95    96    1
    16    67    68    1
    17    67    69    1
    18    67    66    1
    19    55    56    1
    20    96    98   ar
    21    99   100   ar
    22    66    63    1
    23    63    64    1
    24    65    64    2
    25    58    57    2
    26    98   100   ar
    27    98   101   ar
    28   100   102   ar
    29    61    59    1
    30    56    57    1
    31    56    59    1
    32    64    70   am
    33    59    60    1
    34    86    85    1
    35    86    87    2
    36    42    43    2
    37    42    41    1
    38    45    44    1
    39   101   103   ar
    40    80    79    2
    41   102   104   ar
    42    85    88    1
    43    85    84    1
    44    70    71    1
    45    41    44    1
    46    41    40    1
    47    88    89    1
    48    44    46    1
    49    79    84   am
    50    79    78    1
    51   103   104   ar
    52    84    90    1
    53    71    72    1
    54    71    74    1
    55    76    74    1
    56    77    72   am
    57    77    78    1
    58    89    90    1
    59    72    73    2
    60    78    81    1
    61    74    75    1
    62    82    81    1
    63     1     2    1
    64    81    83    1
    65     9     7   am
    66     6     7    1
    67     6     5    1
    68     4     3    2
    69     7     8    2
    70     2     5    1
    71     2     3    1
    72    37    39   ar
    73    37    35   ar
    74    39    38   ar
    75    34    35    1
    76    34    31    1
    77    35    36   ar
    78    38    36   ar
    79    32    31    1
    80    32    33    2
    81    18    19   ar
    82    18    16   ar
    83    31    30    1
    84    19    17   ar
    85    16    15   ar
    86    29    28   ar
    87    29    27   ar
    88    17    15   ar
    89    15    14    1
    90    28    26   ar
    91    10    11    1
    92    27    25   ar
    93    14    11    1
    94    26    25   ar
    95    13    12    2
    96    25    24    1
    97    11    12    1
    98    24    21    1
    99    20    21    1
   100    21    22    1
   101    22    23    2
