@<TRIPOS>MOLECULE
tmp/4couA00.pdb
 95 95 0 0 0
SMALL
GASTEIGER

@<TRIPOS>ATOM
      1  N         43.1050   33.5780    1.5360 N.3    35  CYS35      -0.1221
      2  CA        41.8600   34.0160    0.9030 C.3    35  CYS35       0.1808
      3  C         41.6040   35.5140    0.9670 C.2    35  CYS35       0.2601
      4  O         40.8970   36.0560    0.1200 O.2    35  CYS35      -0.2717
      5  CB        40.6670   33.2760    1.4980 C.3    35  CYS35       0.0970
      6  SG        40.2710   33.7040    3.2050 S.3    35  CYS35      -0.0800
      7  N         42.1820   36.1590    1.9770 N.am   36  TRP36      -0.1976
      8  CA        41.9330   37.5680    2.2730 C.3    36  TRP36       0.1640
      9  C         42.9570   38.4580    1.5870 C.2    36  TRP36       0.2290
     10  O         44.0990   38.0630    1.3590 O.2    36  TRP36      -0.2864
     11  CB        41.9160   37.8340    3.8030 C.3    36  TRP36       0.0576
     12  CG        42.9180   37.0220    4.5740 C.ar   36  TRP36       0.0006
     13  CD1       42.7220   35.7780    5.1220 C.ar   36  TRP36       0.0946
     14  CD2       44.2630   37.3710    4.8500 C.ar   36  TRP36       0.0152
     15  NE1       43.8630   35.3450    5.7290 N.ar   36  TRP36      -0.2442
     16  CE2       44.8330   36.3020    5.5810 C.ar   36  TRP36       0.0810
     17  CE3       45.0400   38.4840    4.5690 C.ar   36  TRP36       0.0012
     18  CZ2       46.1530   36.3160    6.0230 C.ar   36  TRP36       0.0191
     19  CZ3       46.3460   38.5050    5.0110 C.ar   36  TRP36       0.0001
     20  CH2       46.8960   37.4230    5.7240 C.ar   36  TRP36       0.0015
     21  N         34.7290   31.0620    7.9640 N.3    75  GLY75      -0.1210
     22  CA        35.8440   31.8350    7.4320 C.3    75  GLY75       0.1956
     23  C         35.9370   31.8330    5.9190 C.2    75  GLY75       0.2612
     24  O         35.2920   31.0310    5.2380 O.2    75  GLY75      -0.2717
     25  N         36.7650   32.7290    5.3910 N.am   76  CYS76      -0.1970
     26  CA        36.9620   32.8930    3.9520 C.3    76  CYS76       0.1712
     27  C         35.6500   32.9690    3.1720 C.2    76  CYS76       0.2296
     28  O         35.5490   32.4800    2.0450 O.2    76  CYS76      -0.2864
     29  CB        37.8800   31.7970    3.3850 C.3    76  CYS76       0.0983
     30  SG        39.6010   31.9230    3.9690 S.3    76  CYS76      -0.0798
     31  N         39.7770   43.2570   15.7920 N.3   121  ASP121     -0.1225
     32  CA        39.9230   42.1930   14.8120 C.3   121  ASP121      0.1805
     33  C         39.3370   42.7710   13.5250 C.2   121  ASP121      0.2597
     34  O         38.1270   42.9130   13.4520 O.2   121  ASP121     -0.2718
     35  CB        39.2070   40.9250   15.2710 C.3   121  ASP121      0.1424
     36  CG        39.3040   39.7900   14.2530 C.2   121  ASP121      0.3668
     37  OD1       39.6990   40.0720   13.0960 O.co2 121  ASP121     -0.2456
     38  OD2       38.9930   38.6150   14.5950 O.co2 121  ASP121     -0.2456
     39  N         40.1480   43.1420   12.5240 N.am  122  ASP122     -0.1974
     40  CA        41.5940   42.9100   12.4220 C.3   122  ASP122      0.1709
     41  C         42.5130   44.0760   12.7730 C.2   122  ASP122      0.2293
     42  O         43.6760   43.8420   13.1190 O.2   122  ASP122     -0.2864
     43  CB        41.9610   42.5240   10.9830 C.3   122  ASP122      0.1436
     44  CG        41.6000   41.1120   10.6700 C.2   122  ASP122      0.3671
     45  OD1       42.4370   40.2300   10.9270 O.co2 122  ASP122     -0.2456
     46  OD2       40.4560   40.8640   10.2130 O.co2 122  ASP122     -0.2456
     47  N         45.2150   42.3480   14.8170 N.3   155  TRP155     -0.1241
     48  CA        44.9590   40.9860   15.1890 C.3   155  TRP155      0.1605
     49  C         46.1170   40.1160   14.7280 C.2   155  TRP155      0.2264
     50  O         46.5630   40.2300   13.5950 O.2   155  TRP155     -0.2867
     51  CB        43.6430   40.4850   14.5650 C.3   155  TRP155      0.0550
     52  CG        43.3980   39.0550   14.9320 C.ar  155  TRP155      0.0003
     53  CD1       42.7480   38.6030   16.0360 C.ar  155  TRP155      0.0946
     54  CD2       43.8880   37.8900   14.2480 C.ar  155  TRP155      0.0152
     55  NE1       42.7870   37.2260   16.0840 N.ar  155  TRP155     -0.2442
     56  CE2       43.4910   36.7630   15.0070 C.ar  155  TRP155      0.0810
     57  CE3       44.6170   37.6880   13.0690 C.ar  155  TRP155      0.0012
     58  CZ2       43.8140   35.4540   14.6330 C.ar  155  TRP155      0.0191
     59  CZ3       44.9390   36.3840   12.6970 C.ar  155  TRP155      0.0001
     60  CH2       44.5200   35.2860   13.4740 C.ar  155  TRP155      0.0015
     61  N         39.4970   41.9580    7.7020 N.3   183  ARG183     -0.1231
     62  CA        39.9480   41.3010    6.4690 C.3   183  ARG183      0.1694
     63  C         39.1600   40.0390    6.1030 C.2   183  ARG183      0.2592
     64  O         39.1920   39.6170    4.9490 O.2   183  ARG183     -0.2718
     65  CB        41.4340   40.9290    6.5850 C.3   183  ARG183      0.0321
     66  CG        41.6970   39.6190    7.3010 C.3   183  ARG183      0.0489
     67  CD        43.1380   39.4250    7.7300 C.3   183  ARG183      0.2205
     68  NE        43.2970   38.0880    8.2660 N.pl3 183  ARG183     -0.0865
     69  CZ        44.4500   37.5510    8.6650 C.cat 183  ARG183      0.5346
     70  NH1       45.5800   38.2530    8.6190 N.pl3 183  ARG183      0.1354
     71  NH2       44.4570   36.2880    9.0920 N.pl3 183  ARG183      0.1354
     72  N         38.5090   39.4270    7.0840 N.am  184  ASP184     -0.1960
     73  CA        38.0160   38.0450    6.9890 C.3   184  ASP184      0.1840
     74  C         37.4220   37.6180    8.3090 C.2   184  ASP184      0.2622
     75  O         37.9140   38.0140    9.3680 O.2   184  ASP184     -0.2715
     76  CB        39.2160   37.1300    6.6830 C.3   184  ASP184      0.1450
     77  CG        38.8910   35.6310    6.6700 C.2   184  ASP184      0.3671
     78  OD1       37.8480   35.2150    6.1450 O.co2 184  ASP184     -0.2456
     79  OD2       39.7510   34.8550    7.1580 O.co2 184  ASP184     -0.2456
     80  N         36.3850   36.7900    8.2550 N.am  185  ASN185     -0.1958
     81  CA        35.9190   36.0900    9.4480 C.3   185  ASN185      0.1819
     82  C         35.4440   37.0550   10.5450 C.2   185  ASN185      0.2621
     83  O         34.7790   38.0310   10.2490 O.2   185  ASN185     -0.2715
     84  CB        37.0330   35.1430    9.9480 C.3   185  ASN185      0.1195
     85  CG        36.5020   34.0090   10.8190 C.2   185  ASN185      0.2630
     86  OD1       35.4290   33.4680   10.5710 O.2   185  ASN185     -0.2716
     87  ND2       37.2360   33.6710   11.8530 N.am  185  ASN185     -0.0877
     88  N         35.7570   36.7760   11.8080 N.am  186  ASP186     -0.1971
     89  CA        35.2590   37.5890   12.9100 C.3   186  ASP186      0.1709
     90  C         35.7530   39.0200   12.7900 C.2   186  ASP186      0.2293
     91  O         36.8220   39.2730   12.2370 O.2   186  ASP186     -0.2864
     92  CB        35.6890   37.0180   14.2660 C.3   186  ASP186      0.1436
     93  CG        35.0480   35.6730   14.5950 C.2   186  ASP186      0.3671
     94  OD1       34.2170   35.1430   13.8240 O.co2 186  ASP186     -0.2456
     95  OD2       35.3980   35.1380   15.6700 O.co2 186  ASP186     -0.2456
@<TRIPOS>BOND
     1     4     3    2
     2     2     3    1
     3     2     5    1
     4     2     1    1
     5     3     7   am
     6    10     9    2
     7     5     6    1
     8     9     8    1
     9     7     8    1
    10    28    27    2
    11     8    11    1
    12    27    26    1
    13     6    30    1
    14    29    26    1
    15    29    30    1
    16    11    12    1
    17    26    25    1
    18    17    14   ar
    19    17    19   ar
    20    12    14   ar
    21    12    13   ar
    22    14    16   ar
    23    64    63    2
    24    19    20   ar
    25    13    15   ar
    26    24    23    2
    27    25    23   am
    28    16    15   ar
    29    16    18   ar
    30    20    18   ar
    31    23    22    1
    32    63    62    1
    33    63    72   am
    34    78    77   ar
    35    62    65    1
    36    62    61    1
    37    65    66    1
    38    77    76    1
    39    77    79   ar
    40    76    73    1
    41    73    72    1
    42    73    74    1
    43    66    67    1
    44    22    21    1
    45    67    68    1
    46    80    74   am
    47    80    81    1
    48    68    69    2
    49    74    75    2
    50    70    69    1
    51    69    71    1
    52    81    84    1
    53    81    82    1
    54    84    85    1
    55    46    44   ar
    56    83    82    2
    57    82    88   am
    58    86    85    2
    59    44    45   ar
    60    44    43    1
    61    85    87   am
    62    43    40    1
    63    88    89    1
    64    91    90    2
    65    40    39    1
    66    40    41    1
    67    39    33   am
    68    59    57   ar
    69    59    60   ar
    70    41    42    2
    71    90    89    1
    72    89    92    1
    73    57    54   ar
    74    37    36   ar
    75    34    33    2
    76    60    58   ar
    77    33    32    1
    78    50    49    2
    79    94    93   ar
    80    54    52   ar
    81    54    56   ar
    82    36    38   ar
    83    36    35    1
    84    92    93    1
    85    51    52    1
    86    51    48    1
    87    93    95   ar
    88    58    56   ar
    89    49    48    1
    90    32    35    1
    91    32    31    1
    92    47    48    1
    93    52    53   ar
    94    56    55   ar
    95    53    55   ar
