@<TRIPOS>MOLECULE
tmp/4covA00.pdb
 107 107 0 0 0
SMALL
GASTEIGER

@<TRIPOS>ATOM
      1  N         -3.2440   28.0390  111.2930 N.3    40  CYS40      -0.1221
      2  CA        -1.9740   27.6430  110.6590 C.3    40  CYS40       0.1808
      3  C         -1.6710   26.1530  110.7750 C.2    40  CYS40       0.2601
      4  O         -0.9290   25.5990  109.9590 O.2    40  CYS40      -0.2717
      5  CB        -0.8020   28.4330  111.2400 C.3    40  CYS40       0.0970
      6  SG        -0.4250   28.1410  112.9830 S.3    40  CYS40      -0.0800
      7  N         -2.2630   25.5170  111.7800 N.am   41  TRP41      -0.1976
      8  CA        -1.9590   24.1300  112.1260 C.3    41  TRP41       0.1640
      9  C         -2.9320   23.1760  111.4480 C.2    41  TRP41       0.2290
     10  O         -4.0820   23.5250  111.1900 O.2    41  TRP41      -0.2864
     11  CB        -1.9870   23.9230  113.6490 C.3    41  TRP41       0.0576
     12  CG        -3.0100   24.7610  114.3560 C.ar   41  TRP41       0.0006
     13  CD1       -2.8450   26.0440  114.8150 C.ar   41  TRP41       0.0946
     14  CD2       -4.3580   24.4010  114.6560 C.ar   41  TRP41       0.0152
     15  NE1       -4.0040   26.4940  115.3850 N.ar   41  TRP41      -0.2442
     16  CE2       -4.9500   25.5050  115.3070 C.ar   41  TRP41       0.0810
     17  CE3       -5.1220   23.2480  114.4510 C.ar   41  TRP41       0.0012
     18  CZ2       -6.2740   25.4940  115.7470 C.ar   41  TRP41       0.0191
     19  CZ3       -6.4370   23.2360  114.8900 C.ar   41  TRP41       0.0001
     20  CH2       -6.9990   24.3520  115.5350 C.ar   41  TRP41       0.0015
     21  N          8.4550   20.1930  128.9350 N.3    74  TYR74      -0.1241
     22  CA         7.7740   21.3660  128.4150 C.3    74  TYR74       0.1605
     23  C          8.7110   22.0520  127.4320 C.2    74  TYR74       0.2264
     24  O          9.7590   22.5550  127.8200 O.2    74  TYR74      -0.2867
     25  CB         7.3590   22.3480  129.5170 C.3    74  TYR74       0.0534
     26  CG         6.2890   23.3000  129.0210 C.ar   74  TYR74      -0.0201
     27  CD1        6.5940   24.3100  128.1070 C.ar   74  TYR74      -0.0009
     28  CD2        4.9650   23.1590  129.4220 C.ar   74  TYR74      -0.0009
     29  CE1        5.6120   25.1590  127.6260 C.ar   74  TYR74       0.0417
     30  CE2        3.9770   24.0040  128.9470 C.ar   74  TYR74       0.0417
     31  CZ         4.3050   25.0030  128.0520 C.ar   74  TYR74       0.1957
     32  OH         3.3230   25.8400  127.5770 O.3    74  TYR74      -0.2866
     33  N          5.1900   31.1040  117.3070 N.3    80  GLY80      -0.1210
     34  CA         4.0380   30.2770  116.9440 C.3    80  GLY80       0.1956
     35  C          3.9050   30.1520  115.4360 C.2    80  GLY80       0.2612
     36  O          4.5130   30.9190  114.6830 O.2    80  GLY80      -0.2717
     37  N          3.1050   29.1830  114.9920 N.am   81  CYS81      -0.1970
     38  CA         2.8760   28.9290  113.5650 C.3    81  CYS81       0.1712
     39  C          4.1720   28.7950  112.7710 C.2    81  CYS81       0.2296
     40  O          4.2330   29.1420  111.5920 O.2    81  CYS81      -0.2864
     41  CB         1.9730   30.0110  112.9550 C.3    81  CYS81       0.0983
     42  SG         0.2880   29.9580  113.6000 S.3    81  CYS81      -0.0798
     43  N          0.2120   19.3280  125.8980 N.3   126  ASP126     -0.1225
     44  CA         0.0200   20.3010  124.8430 C.3   126  ASP126      0.1805
     45  C          0.6440   19.6550  123.5990 C.2   126  ASP126      0.2597
     46  O          1.8700   19.5740  123.5120 O.2   126  ASP126     -0.2718
     47  CB         0.7140   21.6190  125.2160 C.3   126  ASP126      0.1424
     48  CG         0.5840   22.6790  124.1430 C.2   126  ASP126      0.3668
     49  OD1        0.2120   22.3370  123.0070 O.co2 126  ASP126     -0.2456
     50  OD2        0.8640   23.8700  124.4280 O.co2 126  ASP126     -0.2456
     51  N         -0.1520   19.1760  122.6380 N.am  127  ASP127     -0.1974
     52  CA        -1.5990   19.3940  122.5330 C.3   127  ASP127      0.1709
     53  C         -2.4770   18.2540  122.9900 C.2   127  ASP127      0.2293
     54  O         -3.6020   18.4850  123.4200 O.2   127  ASP127     -0.2864
     55  CB        -1.9570   19.6700  121.0770 C.3   127  ASP127      0.1436
     56  CG        -1.6030   21.0640  120.6620 C.2   127  ASP127      0.3671
     57  OD1       -2.4450   21.9600  120.8650 O.co2 127  ASP127     -0.2456
     58  OD2       -0.4780   21.2710  120.1530 O.co2 127  ASP127     -0.2456
     59  N         -5.2570   20.0400  124.9630 N.3   160  TRP160     -0.1241
     60  CA        -5.1040   21.4620  125.2180 C.3   160  TRP160      0.1605
     61  C         -6.2370   22.2400  124.5540 C.2   160  TRP160      0.2264
     62  O         -6.5700   22.0010  123.3940 O.2   160  TRP160     -0.2867
     63  CB        -3.7520   21.9620  124.6980 C.3   160  TRP160      0.0550
     64  CG        -3.5250   23.3770  125.0710 C.ar  160  TRP160      0.0003
     65  CD1       -2.9230   23.8350  126.2010 C.ar  160  TRP160      0.0946
     66  CD2       -3.9510   24.5290  124.3410 C.ar  160  TRP160      0.0152
     67  NE1       -2.9270   25.2080  126.2140 N.ar  160  TRP160     -0.2442
     68  CE2       -3.5530   25.6600  125.0830 C.ar  160  TRP160      0.0810
     69  CE3       -4.6240   24.7160  123.1280 C.ar  160  TRP160      0.0012
     70  CZ2       -3.8120   26.9690  124.6540 C.ar  160  TRP160      0.0191
     71  CZ3       -4.8750   26.0220  122.6970 C.ar  160  TRP160      0.0001
     72  CH2       -4.4710   27.1250  123.4610 C.ar  160  TRP160      0.0015
     73  N          0.5380   20.1400  117.7360 N.3   188  ARG188     -0.1231
     74  CA         0.0680   20.6760  116.4640 C.3   188  ARG188      0.1694
     75  C          0.8330   21.9290  116.0340 C.2   188  ARG188      0.2592
     76  O          0.8490   22.2560  114.8510 O.2   188  ARG188     -0.2718
     77  CB        -1.4280   21.0060  116.5430 C.3   188  ARG188      0.0321
     78  CG        -1.7110   22.3520  117.1950 C.3   188  ARG188      0.0489
     79  CD        -3.1590   22.5430  117.6100 C.3   188  ARG188      0.2205
     80  NE        -3.3720   23.9190  118.0550 N.pl3 188  ARG188     -0.0865
     81  CZ        -4.5410   24.4370  118.4200 C.cat 188  ARG188      0.5346
     82  NH1       -5.6520   23.7100  118.4040 N.pl3 188  ARG188      0.1354
     83  NH2       -4.6010   25.7140  118.7900 N.pl3 188  ARG188      0.1354
     84  N          1.4560   22.6110  117.0000 N.am  189  ASP189     -0.1960
     85  CA         1.9200   23.9900  116.8140 C.3   189  ASP189      0.1840
     86  C          2.5120   24.5090  118.1180 C.2   189  ASP189      0.2622
     87  O          2.0380   24.1490  119.1940 O.2   189  ASP189     -0.2715
     88  CB         0.7110   24.8580  116.4110 C.3   189  ASP189      0.1450
     89  CG         1.0080   26.3510  116.3600 C.2   189  ASP189      0.3671
     90  OD1        2.1000   26.7650  115.9080 O.co2 189  ASP189     -0.2456
     91  OD2        0.0970   27.1150  116.7470 O.co2 189  ASP189     -0.2456
     92  N          3.5430   25.3500  118.0220 N.am  190  ASN190     -0.1958
     93  CA         3.9900   26.1500  119.1630 C.3   190  ASN190      0.1819
     94  C          4.4620   25.2750  120.3340 C.2   190  ASN190      0.2621
     95  O          5.1540   24.2910  120.0930 O.2   190  ASN190     -0.2715
     96  CB         2.8610   27.1040  119.5680 C.3   190  ASN190      0.1195
     97  CG         3.3580   28.3350  120.2970 C.2   190  ASN190      0.2630
     98  OD1        4.3780   28.9120  119.9320 O.2   190  ASN190     -0.2716
     99  ND2        2.6410   28.7410  121.3340 N.am  190  ASN190     -0.0877
    100  N          4.1130   25.6190  121.5790 N.am  191  ASP191     -0.1971
    101  CA         4.5740   24.8700  122.7480 C.3   191  ASP191      0.1709
    102  C          4.1420   23.4130  122.6630 C.2   191  ASP191      0.2293
    103  O          3.0630   23.1030  122.1630 O.2   191  ASP191     -0.2864
    104  CB         4.0190   25.4550  124.0550 C.3   191  ASP191      0.1436
    105  CG         4.6050   26.8130  124.4040 C.2   191  ASP191      0.3671
    106  OD1        5.4390   27.3310  123.6390 O.co2 191  ASP191     -0.2456
    107  OD2        4.2230   27.3530  125.4630 O.co2 191  ASP191     -0.2456
@<TRIPOS>BOND
     1     4     3    2
     2     2     3    1
     3     2     5    1
     4     2     1    1
     5     3     7   am
     6    10     9    2
     7     5     6    1
     8     9     8    1
     9    40    39    2
    10     7     8    1
    11     8    11    1
    12    39    38    1
    13    41    38    1
    14    41    42    1
    15     6    42    1
    16    38    37    1
    17    11    12    1
    18    12    14   ar
    19    12    13   ar
    20    17    14   ar
    21    17    19   ar
    22    14    16   ar
    23    36    35    2
    24    13    15   ar
    25    76    75    2
    26    19    20   ar
    27    37    35   am
    28    16    15   ar
    29    16    18   ar
    30    35    34    1
    31    20    18   ar
    32    90    89   ar
    33    75    74    1
    34    75    84   am
    35    89    88    1
    36    89    91   ar
    37    88    85    1
    38    74    77    1
    39    74    73    1
    40    77    78    1
    41    85    84    1
    42    85    86    1
    43    34    33    1
    44    78    79    1
    45    79    80    1
    46    92    86   am
    47    92    93    1
    48    80    81    2
    49    86    87    2
    50    82    81    1
    51    81    83    1
    52    93    96    1
    53    93    94    1
    54    96    97    1
    55    98    97    2
    56    95    94    2
    57    58    56   ar
    58    97    99   am
    59    94   100   am
    60    56    57   ar
    61    56    55    1
    62    55    52    1
    63   100   101    1
    64   103   102    2
    65    52    51    1
    66    52    53    1
    67    51    45   am
    68   102   101    1
    69    71    69   ar
    70    71    72   ar
    71   101   104    1
    72    53    54    2
    73    49    48   ar
    74    69    66   ar
    75    62    61    2
    76    72    70   ar
    77    46    45    2
    78    45    44    1
    79   106   105   ar
    80   104   105    1
    81    48    50   ar
    82    48    47    1
    83    66    64   ar
    84    66    68   ar
    85   105   107   ar
    86    61    60    1
    87    70    68   ar
    88    63    64    1
    89    63    60    1
    90    44    47    1
    91    44    43    1
    92    59    60    1
    93    64    65   ar
    94    68    67   ar
    95    65    67   ar
    96    23    24    2
    97    23    22    1
    98    32    31    1
    99    29    31   ar
   100    29    27   ar
   101    31    30   ar
   102    27    26   ar
   103    22    21    1
   104    22    25    1
   105    30    28   ar
   106    26    28   ar
   107    26    25    1
