@<TRIPOS>MOLECULE
tmp/4cowA00.pdb
 97 96 0 0 0
SMALL
GASTEIGER

@<TRIPOS>ATOM
      1  N         -1.0870   25.0110  108.5310 N.3    36  TRP36      -0.1241
      2  CA        -0.8270   23.5990  108.8160 C.3    36  TRP36       0.1605
      3  C         -1.8620   22.6990  108.1660 C.2    36  TRP36       0.2264
      4  O         -2.9930   23.1070  107.9040 O.2    36  TRP36      -0.2867
      5  CB        -0.7590   23.3250  110.3260 C.3    36  TRP36       0.0550
      6  CG        -1.7420   24.1190  111.1040 C.ar   36  TRP36       0.0003
      7  CD1       -1.5280   25.3300  111.6870 C.ar   36  TRP36       0.0946
      8  CD2       -3.0970   23.7750  111.3780 C.ar   36  TRP36       0.0152
      9  NE1       -2.6690   25.7660  112.3030 N.ar   36  TRP36      -0.2442
     10  CE2       -3.6520   24.8370  112.1250 C.ar   36  TRP36       0.0810
     11  CE3       -3.8930   22.6760  111.0730 C.ar   36  TRP36       0.0012
     12  CZ2       -4.9670   24.8350  112.5640 C.ar   36  TRP36       0.0191
     13  CZ3       -5.1950   22.6650  111.5150 C.ar   36  TRP36       0.0001
     14  CH2       -5.7210   23.7400  112.2610 C.ar   36  TRP36       0.0015
     15  N          9.9830   29.7780  115.4950 N.3    74  MET74      -0.1230
     16  CA         8.8090   30.4760  114.9790 C.3    74  MET74       0.1702
     17  C          7.7860   29.4920  114.4250 C.2    74  MET74       0.2593
     18  O          8.1130   28.3480  114.0880 O.2    74  MET74      -0.2718
     19  CB         9.1920   31.4930  113.8990 C.3    74  MET74       0.0401
     20  CG        10.1950   30.9930  112.8850 C.3    74  MET74       0.0596
     21  SD        10.7820   32.3190  111.7950 S.3    74  MET74      -0.1393
     22  CE         9.2500   32.7810  110.9750 C.3    74  MET74       0.0692
     23  N          6.5490   29.9720  114.3550 N.am   75  GLY75      -0.1942
     24  CA         5.4230   29.1960  113.8670 C.3    75  GLY75       0.2014
     25  C          5.2870   29.2560  112.3620 C.2    75  GLY75       0.2639
     26  O          5.9140   30.0910  111.6890 O.2    75  GLY75      -0.2714
     27  N          4.4790   28.3370  111.8350 N.am   76  CYS76      -0.1967
     28  CA         4.2180   28.2370  110.4080 C.3    76  CYS76       0.1712
     29  C          5.5170   28.1030  109.5910 C.2    76  CYS76       0.2296
     30  O          5.6030   28.5100  108.4350 O.2    76  CYS76      -0.2864
     31  CB         3.3300   29.3990  109.9400 C.3    76  CYS76       0.0983
     32  SG         1.6030   29.2570  110.4940 S.3    76  CYS76      -0.0798
     33  N          1.3690   18.0270  122.3320 N.3   121  ASP121     -0.1225
     34  CA         1.2190   19.0850  121.3520 C.3   121  ASP121      0.1805
     35  C          1.8290   18.4940  120.1030 C.2   121  ASP121      0.2597
     36  O          3.0430   18.4600  120.0020 O.2   121  ASP121     -0.2718
     37  CB         1.9530   20.3540  121.8060 C.3   121  ASP121      0.1424
     38  CG         1.8810   21.4830  120.7840 C.2   121  ASP121      0.3668
     39  OD1        1.4520   21.2320  119.6380 O.co2 121  ASP121     -0.2456
     40  OD2        2.2710   22.6250  121.1140 O.co2 121  ASP121     -0.2456
     41  N          1.0340   18.0140  119.1410 N.am  122  ASP122     -0.1974
     42  CA        -0.4050   18.2890  119.0070 C.3   122  ASP122      0.1709
     43  C         -1.2870   17.1360  119.3310 C.2   122  ASP122      0.2293
     44  O         -2.4310   17.3290  119.6600 O.2   122  ASP122     -0.2864
     45  CB        -0.7280   18.6980  117.5560 C.3   122  ASP122      0.1436
     46  CG        -0.4180   20.1370  117.2860 C.2   122  ASP122      0.3671
     47  OD1       -1.2450   20.9890  117.6580 O.co2 122  ASP122     -0.2456
     48  OD2        0.6450   20.4120  116.7040 O.co2 122  ASP122     -0.2456
     49  N         -3.9110   18.8270  121.5070 N.3   155  TRP155     -0.1241
     50  CA        -3.6580   20.2270  121.8330 C.3   155  TRP155      0.1605
     51  C         -4.8260   21.0820  121.3640 C.2   155  TRP155      0.2264
     52  O         -5.2800   20.9790  120.2100 O.2   155  TRP155     -0.2867
     53  CB        -2.3540   20.7570  121.1900 C.3   155  TRP155      0.0550
     54  CG        -2.1110   22.1880  121.5820 C.ar  155  TRP155      0.0003
     55  CD1       -1.4470   22.6270  122.6840 C.ar  155  TRP155      0.0946
     56  CD2       -2.5950   23.3610  120.9150 C.ar  155  TRP155      0.0152
     57  NE1       -1.4690   23.9910  122.7410 N.ar  155  TRP155     -0.2442
     58  CE2       -2.1660   24.4730  121.6690 C.ar  155  TRP155      0.0810
     59  CE3       -3.3260   23.5790  119.7470 C.ar  155  TRP155      0.0012
     60  CZ2       -2.4470   25.7950  121.2950 C.ar  155  TRP155      0.0191
     61  CZ3       -3.6230   24.8850  119.3830 C.ar  155  TRP155      0.0001
     62  CH2       -3.1670   25.9820  120.1570 C.ar  155  TRP155      0.0015
     63  N          1.7180   19.2870  114.2220 N.3   183  ARG183     -0.1231
     64  CA         1.2340   19.9010  112.9880 C.3   183  ARG183      0.1694
     65  C          1.9890   21.1650  112.6410 C.2   183  ARG183      0.2592
     66  O          2.0090   21.5690  111.4910 O.2   183  ARG183     -0.2718
     67  CB        -0.2550   20.2600  113.1430 C.3   183  ARG183      0.0321
     68  CG        -0.4740   21.5680  113.8780 C.3   183  ARG183      0.0489
     69  CD        -1.9030   21.8050  114.3140 C.3   183  ARG183      0.2205
     70  NE        -2.0820   23.1760  114.7890 N.pl3 183  ARG183     -0.0865
     71  CZ        -3.2290   23.6690  115.2510 C.cat 183  ARG183      0.5346
     72  NH1       -4.3190   22.9190  115.3160 N.pl3 183  ARG183      0.1354
     73  NH2       -3.2990   24.9410  115.6240 N.pl3 183  ARG183      0.1354
     74  N          2.5980   21.8000  113.6390 N.am  184  ASP184     -0.1960
     75  CA         3.1090   23.1650  113.4820 C.3   184  ASP184      0.1840
     76  C          3.7580   23.5510  114.7980 C.2   184  ASP184      0.2622
     77  O          3.3000   23.1220  115.8610 O.2   184  ASP184     -0.2715
     78  CB         1.9220   24.1010  113.1610 C.3   184  ASP184      0.1450
     79  CG         2.2600   25.5830  113.2330 C.2   184  ASP184      0.3671
     80  OD1        3.3100   26.0190  112.7160 O.co2 184  ASP184     -0.2456
     81  OD2        1.4240   26.3370  113.7770 O.co2 184  ASP184     -0.2456
     82  N          4.8090   24.3560  114.7350 N.am  185  ASN185     -0.1958
     83  CA         5.3090   25.0740  115.9160 C.3   185  ASN185      0.1819
     84  C          5.7740   24.1090  117.0200 C.2   185  ASN185      0.2621
     85  O          6.4450   23.1120  116.7460 O.2   185  ASN185     -0.2715
     86  CB         4.1960   26.0150  116.3950 C.3   185  ASN185      0.1195
     87  CG         4.7090   27.1960  117.1950 C.2   185  ASN185      0.2630
     88  OD1        5.7150   27.8040  116.8570 O.2   185  ASN185     -0.2716
     89  ND2        4.0010   27.5290  118.2510 N.am  185  ASN185     -0.0877
     90  N          5.4220   24.3850  118.2680 N.am  186  ASP186     -0.1971
     91  CA         5.9020   23.5720  119.3820 C.3   186  ASP186      0.1709
     92  C          5.4100   22.1390  119.3000 C.2   186  ASP186      0.2293
     93  O          4.3090   21.8460  118.7960 O.2   186  ASP186     -0.2864
     94  CB         5.4970   24.1600  120.7420 C.3   186  ASP186      0.1436
     95  CG         6.1020   25.5400  121.0030 C.2   186  ASP186      0.3671
     96  OD1        6.8980   26.0440  120.1790 O.co2 186  ASP186     -0.2456
     97  OD2        5.7770   26.1120  122.0700 O.co2 186  ASP186     -0.2456
@<TRIPOS>BOND
     1     4     3    2
     2     3     2    1
     3    30    29    2
     4     1     2    1
     5     2     5    1
     6    29    28    1
     7    31    28    1
     8    31    32    1
     9     5     6    1
    10    28    27    1
    11    22    21    1
    12    11     8   ar
    13    11    13   ar
    14     6     8   ar
    15     6     7   ar
    16     8    10   ar
    17    66    65    2
    18    13    14   ar
    19     7     9   ar
    20    26    25    2
    21    21    20    1
    22    27    25   am
    23    10     9   ar
    24    10    12   ar
    25    14    12   ar
    26    25    24    1
    27    65    64    1
    28    65    74   am
    29    80    79   ar
    30    20    19    1
    31    64    67    1
    32    64    63    1
    33    67    68    1
    34    78    79    1
    35    78    75    1
    36    79    81   ar
    37    75    74    1
    38    75    76    1
    39    24    23    1
    40    68    69    1
    41    19    16    1
    42    18    17    2
    43    69    70    1
    44    23    17   am
    45    17    16    1
    46    82    76   am
    47    82    83    1
    48    70    71    2
    49    76    77    2
    50    16    15    1
    51    71    72    1
    52    71    73    1
    53    83    86    1
    54    83    84    1
    55    86    87    1
    56    48    46   ar
    57    85    84    2
    58    88    87    2
    59    84    90   am
    60    87    89   am
    61    46    45    1
    62    46    47   ar
    63    45    42    1
    64    90    91    1
    65    93    92    2
    66    42    41    1
    67    42    43    1
    68    41    35   am
    69    92    91    1
    70    43    44    2
    71    91    94    1
    72    61    59   ar
    73    61    62   ar
    74    39    38   ar
    75    59    56   ar
    76    36    35    2
    77    35    34    1
    78    62    60   ar
    79    96    95   ar
    80    52    51    2
    81    94    95    1
    82    38    40   ar
    83    38    37    1
    84    56    54   ar
    85    56    58   ar
    86    95    97   ar
    87    53    54    1
    88    53    50    1
    89    60    58   ar
    90    34    37    1
    91    34    33    1
    92    51    50    1
    93    49    50    1
    94    54    55   ar
    95    58    57   ar
    96    55    57   ar
