@<TRIPOS>MOLECULE
tmp/4coxA04.pdb
 200 191 0 0 0
SMALL
GASTEIGER

@<TRIPOS>ATOM
      1  N         20.1290   12.8900   20.1660 N.3    58  HIS58      -0.1241
      2  CA        19.5060   14.1990   20.1230 C.3    58  HIS58       0.1621
      3  C         18.4510   14.2750   21.1990 C.2    58  HIS58       0.2264
      4  O         18.2180   15.3210   21.7880 O.2    58  HIS58      -0.2867
      5  CB        18.8470   14.4620   18.7770 C.3    58  HIS58       0.0745
      6  CG        18.1380   15.7690   18.7300 C.ar   58  HIS58       0.0817
      7  ND1       16.7830   15.8870   18.9300 N.ar   58  HIS58      -0.2268
      8  CD2       18.6060   17.0280   18.5620 C.ar   58  HIS58       0.1154
      9  CE1       16.4430   17.1620   18.8830 C.ar   58  HIS58       0.1986
     10  NE2       17.5320   17.8760   18.6630 N.ar   58  HIS58      -0.2212
     11  N         32.5180   15.8590   21.8510 N.3    85  VAL85      -0.1245
     12  CA        31.7610   16.4080   20.7400 C.3    85  VAL85       0.1561
     13  C         32.7310   16.9460   19.6700 C.2    85  VAL85       0.2260
     14  O         32.5510   16.6790   18.4660 O.2    85  VAL85      -0.2867
     15  CB        30.6800   17.4850   21.1610 C.3    85  VAL85       0.0252
     16  CG1       30.0180   17.0920   22.4520 C.3    85  VAL85       0.0019
     17  CG2       31.2560   18.8640   21.2690 C.3    85  VAL85       0.0019
     18  N         32.7060   15.0130   15.9050 N.3    89  ARG89      -0.1245
     19  CA        32.2040   15.9000   14.8810 C.3    89  ARG89       0.1563
     20  C         33.2930   16.1590   13.8620 C.2    89  ARG89       0.2260
     21  O         33.1970   15.7950   12.6850 O.2    89  ARG89      -0.2867
     22  CB        31.7600   17.2120   15.5270 C.3    89  ARG89       0.0307
     23  CG        30.2530   17.3970   15.5020 C.3    89  ARG89       0.0489
     24  CD        29.5640   16.1560   16.0480 C.3    89  ARG89       0.2205
     25  NE        28.2890   15.8650   15.3940 N.pl3  89  ARG89      -0.0865
     26  CZ        27.2240   16.6300   15.5150 C.cat  89  ARG89       0.5346
     27  NH1       27.2870   17.7220   16.2530 N.pl3  89  ARG89       0.1354
     28  NH2       26.0950   16.2780   14.9320 N.pl3  89  ARG89       0.1354
     29  N         11.9030   27.3590   17.9080 N.3   161  GLN161     -0.1245
     30  CA        12.9940   27.4810   18.8720 C.3   161  GLN161      0.1566
     31  C         13.2100   28.8790   19.4460 C.2   161  GLN161      0.2260
     32  O         13.9600   29.0380   20.4100 O.2   161  GLN161     -0.2867
     33  CB        14.2910   26.9140   18.3000 C.3   161  GLN161      0.0367
     34  CG        14.3380   25.3940   18.3480 C.3   161  GLN161      0.0905
     35  CD        15.7210   24.7960   17.9930 C.2   161  GLN161      0.2608
     36  OE1       15.9520   24.3250   16.8710 O.2   161  GLN161     -0.2717
     37  NE2       16.6200   24.7810   18.9670 N.am  161  GLN161     -0.0878
     38  N         25.4040   31.2060   20.2650 N.3   317  TYR317     -0.1227
     39  CA        24.8610   30.8470   18.9550 C.3   317  TYR317      0.1736
     40  C         24.5680   29.3210   18.8160 C.2   317  TYR317      0.2595
     41  O         23.4110   28.8730   18.8220 O.2   317  TYR317     -0.2718
     42  CB        25.9060   31.2990   17.9320 C.3   317  TYR317      0.0548
     43  CG        25.5640   31.1560   16.4830 C.ar  317  TYR317     -0.0200
     44  CD1       25.8220   29.9710   15.8050 C.ar  317  TYR317     -0.0009
     45  CD2       25.0990   32.2400   15.7680 C.ar  317  TYR317     -0.0009
     46  CE1       25.6420   29.8690   14.4550 C.ar  317  TYR317      0.0417
     47  CE2       24.9110   32.1560   14.4160 C.ar  317  TYR317      0.0417
     48  CZ        25.2020   30.9600   13.7650 C.ar  317  TYR317      0.1957
     49  OH        25.1210   30.8710   12.3990 O.3   317  TYR317     -0.2866
     50  N         25.6240   28.5280   18.6790 N.am  318  VAL318     -0.1980
     51  CA        25.4850   27.0850   18.5310 C.3   318  VAL318      0.1595
     52  C         24.7000   26.5050   19.6980 C.2   318  VAL318      0.2287
     53  O         23.7970   25.6800   19.4950 O.2   318  VAL318     -0.2864
     54  CB        26.8860   26.3670   18.3420 C.3   318  VAL318      0.0276
     55  CG1       26.7910   24.8570   18.5280 C.3   318  VAL318      0.0022
     56  CG2       27.3820   26.6210   16.9520 C.3   318  VAL318      0.0022
     57  N         21.1320   27.1170   19.0270 N.3   321  LEU321     -0.1231
     58  CA        20.7210   26.3340   17.8680 C.3   321  LEU321      0.1693
     59  C         20.5100   24.8430   18.2220 C.2   321  LEU321      0.2592
     60  O         19.6540   24.2000   17.6560 O.2   321  LEU321     -0.2718
     61  CB        21.7800   26.4810   16.7730 C.3   321  LEU321      0.0284
     62  CG        21.2500   26.6690   15.3650 C.3   321  LEU321      0.0019
     63  CD1       19.9720   27.4700   15.3620 C.3   321  LEU321      0.0001
     64  CD2       22.3160   27.3720   14.5650 C.3   321  LEU321      0.0001
     65  N         21.2680   24.3250   19.1850 N.am  322  SER322     -0.1952
     66  CA        21.1700   22.9320   19.5840 C.3   322  SER322      0.1924
     67  C         20.0110   22.6460   20.5150 C.2   322  SER322      0.2314
     68  O         19.3300   21.6210   20.4100 O.2   322  SER322     -0.2863
     69  CB        22.4710   22.4700   20.2450 C.3   322  SER322      0.2116
     70  OG        22.4440   22.6350   21.6520 O.3   322  SER322     -0.2180
     71  N         20.3860   21.9600   23.4750 N.3   324  TYR324     -0.1241
     72  CA        20.8290   20.9290   24.3850 C.3   324  TYR324      0.1605
     73  C         20.8530   21.5480   25.7820 C.2   324  TYR324      0.2264
     74  O         21.0950   22.7470   25.9520 O.2   324  TYR324     -0.2867
     75  CB        22.2460   20.4480   24.0340 C.3   324  TYR324      0.0534
     76  CG        22.4300   19.8670   22.6480 C.ar  324  TYR324     -0.0201
     77  CD1       21.3420   19.5290   21.8660 C.ar  324  TYR324     -0.0009
     78  CD2       23.7030   19.6450   22.1280 C.ar  324  TYR324     -0.0009
     79  CE1       21.5010   18.9810   20.6020 C.ar  324  TYR324      0.0417
     80  CE2       23.8760   19.0920   20.8610 C.ar  324  TYR324      0.0417
     81  CZ        22.7600   18.7630   20.1100 C.ar  324  TYR324      0.1957
     82  OH        22.8710   18.1800   18.8710 O.3   324  TYR324     -0.2866
     83  N         27.5770   23.7010   26.1470 N.3   328  LEU328     -0.1245
     84  CA        28.6960   23.6210   25.2210 C.3   328  LEU328      0.1561
     85  C         29.7800   24.5570   25.7440 C.2   328  LEU328      0.2260
     86  O         29.4750   25.5960   26.3260 O.2   328  LEU328     -0.2867
     87  CB        28.2780   24.0570   23.8260 C.3   328  LEU328      0.0270
     88  CG        27.4070   23.0320   23.0970 C.3   328  LEU328      0.0019
     89  CD1       27.2020   23.4690   21.6630 C.3   328  LEU328      0.0001
     90  CD2       28.0320   21.6300   23.1530 C.3   328  LEU328      0.0001
     91  N         28.8670   23.1610    2.8550 N.3   350  PHE350     -0.1241
     92  CA        28.5820   23.9420    4.0540 C.3   350  PHE350      0.1605
     93  C         27.9000   25.2440    3.6460 C.2   350  PHE350      0.2264
     94  O         27.0420   25.7490    4.3510 O.2   350  PHE350     -0.2867
     95  CB        29.8640   24.2470    4.8220 C.3   350  PHE350      0.0534
     96  CG        29.6440   24.6180    6.2560 C.ar  350  PHE350     -0.0203
     97  CD1       28.6110   24.0490    6.9850 C.ar  350  PHE350     -0.0042
     98  CD2       30.5110   25.4920    6.8970 C.ar  350  PHE350     -0.0042
     99  CE1       28.4640   24.3490    8.3390 C.ar  350  PHE350     -0.0003
    100  CE2       30.3620   25.7930    8.2520 C.ar  350  PHE350     -0.0003
    101  CZ        29.3500   25.2280    8.9740 C.ar  350  PHE350     -0.0000
    102  N         24.2740   24.2550    2.9580 N.3   353  LEU353     -0.1231
    103  CA        23.5920   24.0100    4.2190 C.3   353  LEU353      0.1693
    104  C         23.2590   25.3300    4.9210 C.2   353  LEU353      0.2592
    105  O         22.1420   25.5030    5.4460 O.2   353  LEU353     -0.2718
    106  CB        24.4570   23.1570    5.1520 C.3   353  LEU353      0.0284
    107  CG        24.8870   21.7670    4.6850 C.3   353  LEU353      0.0019
    108  CD1       25.9510   21.2280    5.6020 C.3   353  LEU353      0.0001
    109  CD2       23.7500   20.7840    4.6460 C.3   353  LEU353      0.0001
    110  N         24.1980   26.2780    4.8750 N.am  354  TYR354     -0.1976
    111  CA        24.0300   27.5550    5.5520 C.3   354  TYR354      0.1639
    112  C         23.1370   28.5670    4.8650 C.2   354  TYR354      0.2290
    113  O         23.1570   29.7640    5.2160 O.2   354  TYR354     -0.2864
    114  CB        25.3750   28.1730    5.8640 C.3   354  TYR354      0.0560
    115  CG        25.6880   28.2190    7.3340 C.ar  354  TYR354     -0.0198
    116  CD1       24.9160   28.9720    8.2040 C.ar  354  TYR354     -0.0009
    117  CD2       26.8170   27.5790    7.8520 C.ar  354  TYR354     -0.0009
    118  CE1       25.2760   29.0990    9.5500 C.ar  354  TYR354      0.0417
    119  CE2       27.1710   27.7040    9.1830 C.ar  354  TYR354      0.0417
    120  CZ        26.4060   28.4650   10.0240 C.ar  354  TYR354      0.1957
    121  OH        26.7800   28.6260   11.3360 O.3   354  TYR354     -0.2866
    122  N         20.1190   29.8940    5.0230 N.3   356  TRP356     -0.1241
    123  CA        19.0060   30.0220    5.9370 C.3   356  TRP356      0.1605
    124  C         18.0840   31.1930    5.6580 C.2   356  TRP356      0.2264
    125  O         17.6740   31.8960    6.5890 O.2   356  TRP356     -0.2867
    126  CB        19.5590   30.1640    7.3390 C.3   356  TRP356      0.0550
    127  CG        20.2660   28.9790    7.8130 C.ar  356  TRP356      0.0003
    128  CD1       20.3610   27.7600    7.1880 C.ar  356  TRP356      0.0946
    129  CD2       20.9450   28.8570    9.0490 C.ar  356  TRP356      0.0152
    130  NE1       21.0590   26.8870    7.9760 N.ar  356  TRP356     -0.2442
    131  CE2       21.4310   27.5310    9.1270 C.ar  356  TRP356      0.0810
    132  CE3       21.1980   29.7430   10.1050 C.ar  356  TRP356      0.0012
    133  CZ2       22.1510   27.0610   10.2290 C.ar  356  TRP356      0.0191
    134  CZ3       21.9170   29.2810   11.2060 C.ar  356  TRP356      0.0001
    135  CH2       22.3870   27.9450   11.2570 C.ar  356  TRP356      0.0015
    136  N         12.9890   18.0210   13.7700 N.3   482  ARG482     -0.1245
    137  CA        13.0100   17.1840   14.9480 C.3   482  ARG482      0.1563
    138  C         12.0930   18.0440   15.7920 C.2   482  ARG482      0.2260
    139  O         12.1080   19.2640   15.6350 O.2   482  ARG482     -0.2867
    140  CB        14.4260   17.1620   15.5380 C.3   482  ARG482      0.0307
    141  CG        15.4910   17.2670   14.4610 C.3   482  ARG482      0.0489
    142  CD        16.8910   16.9830   14.9670 C.3   482  ARG482      0.2205
    143  NE        17.2480   15.5860   14.7520 N.pl3 482  ARG482     -0.0865
    144  CZ        18.4690   15.0910   14.9000 C.cat 482  ARG482      0.5346
    145  NH1       19.4690   15.8840   15.2660 N.pl3 482  ARG482      0.1354
    146  NH2       18.6840   13.8020   14.6970 N.pl3 482  ARG482      0.1354
    147  N         11.9000   21.9110   16.8300 N.3   485  ALA485     -0.1245
    148  CA        13.1450   22.4410   16.3340 C.3   485  ALA485      0.1562
    149  C         13.1530   23.0310   14.9440 C.2   485  ALA485      0.2260
    150  O         12.3670   22.6760   14.0880 O.2   485  ALA485     -0.2867
    151  CB        14.1910   21.4360   16.4630 C.3   485  ALA485      0.0290
    152  N         15.5820   22.7230   12.6500 N.3   487  PHE487     -0.1241
    153  CA        16.1770   21.9010   11.5850 C.3   487  PHE487      0.1605
    154  C         15.8480   20.4630   11.8320 C.2   487  PHE487      0.2264
    155  O         15.4360   20.1110   12.9190 O.2   487  PHE487     -0.2867
    156  CB        17.7380   21.9340   11.5850 C.3   487  PHE487      0.0534
    157  CG        18.3550   23.2990   11.6400 C.ar  487  PHE487     -0.0203
    158  CD1       18.1040   24.2240   10.6610 C.ar  487  PHE487     -0.0042
    159  CD2       19.2620   23.6050   12.6370 C.ar  487  PHE487     -0.0042
    160  CE1       18.7400   25.3970   10.6790 C.ar  487  PHE487     -0.0003
    161  CE2       19.9020   24.7870   12.6480 C.ar  487  PHE487     -0.0003
    162  CZ        19.6480   25.6870   11.6750 C.ar  487  PHE487     -0.0000
    163  N         20.3990   18.5500    8.2830 N.3   491  MET491     -0.1230
    164  CA        21.0390   19.8310    8.5600 C.3   491  MET491      0.1702
    165  C         21.9620   19.8000    9.7550 C.2   491  MET491      0.2592
    166  O         23.0310   20.3330    9.6650 O.2   491  MET491     -0.2718
    167  CB        20.0170   20.9480    8.7690 C.3   491  MET491      0.0401
    168  CG        20.6180   22.3030    9.0000 C.3   491  MET491      0.0596
    169  SD        20.8230   23.2520    7.4890 S.3   491  MET491     -0.1393
    170  CE        19.1870   23.2500    6.8610 C.3   491  MET491      0.0692
    171  N         21.5910   19.1960   10.8710 N.am  492  VAL492     -0.1980
    172  CA        22.5040   19.1990   12.0130 C.3   492  VAL492      0.1595
    173  C         23.7160   18.3190   11.7600 C.2   492  VAL492      0.2287
    174  O         24.8760   18.7360   11.9120 O.2   492  VAL492     -0.2864
    175  CB        21.8270   18.7420   13.3240 C.3   492  VAL492      0.0276
    176  CG1       22.8590   18.4890   14.4110 C.3   492  VAL492      0.0022
    177  CG2       20.8890   19.7960   13.7890 C.3   492  VAL492      0.0022
    178  N         26.2540   19.7950    9.0200 N.3   495  GLY495     -0.1210
    179  CA        26.8940   21.0480    9.3210 C.3   495  GLY495      0.1956
    180  C         27.6950   21.0850   10.5830 C.2   495  GLY495      0.2611
    181  O         28.7400   21.7120   10.6100 O.2   495  GLY495     -0.2717
    182  N         27.2190   20.4470   11.6390 N.am  496  ALA496     -0.1979
    183  CA        27.9610   20.4840   12.8900 C.3   496  ALA496      0.1597
    184  C         29.4320   20.1170   12.6890 C.2   496  ALA496      0.2287
    185  O         30.2940   20.7110   13.3310 O.2   496  ALA496     -0.2864
    186  CB        27.3100   19.6120   13.9440 C.3   496  ALA496      0.0319
    187  N         31.0410   22.9410   10.8800 N.3   499  SER499     -0.1202
    188  CA        31.0260   24.0740   11.8100 C.3   499  SER499      0.2020
    189  C         32.0540   24.0470   12.9440 C.2   499  SER499      0.2618
    190  O         32.6840   25.0940   13.2640 O.2   499  SER499     -0.2717
    191  CB        29.6210   24.3220   12.3800 C.3   499  SER499      0.2103
    192  OG        29.4480   25.6700   12.8180 O.3   499  SER499     -0.2182
    193  N         32.2370   22.8760   13.5580 N.am  500  LEU500     -0.1979
    194  CA        33.1880   22.7720   14.6610 C.3   500  LEU500      0.1596
    195  C         34.6570   22.7260   14.1780 C.2   500  LEU500      0.2287
    196  O         35.5760   23.2150   14.8430 O.2   500  LEU500     -0.2864
    197  CB        32.8300   21.5820   15.5420 C.3   500  LEU500      0.0297
    198  CG        31.5030   21.7190   16.3000 C.3   500  LEU500      0.0022
    199  CD1       31.1490   20.4230   16.9830 C.3   500  LEU500      0.0001
    200  CD2       31.5730   22.8130   17.3290 C.3   500  LEU500      0.0001
@<TRIPOS>BOND
     1    91    92    1
     2   102   103    1
     3    93    92    1
     4    93    94    2
     5    92    95    1
     6   103   104    1
     7   103   106    1
     8   109   107    1
     9   107   106    1
    10   107   108    1
    11    95    96    1
    12   112   113    2
    13   112   111    1
    14   110   104   am
    15   110   111    1
    16   104   105    2
    17   122   123    1
    18   111   114    1
    19   124   123    1
    20   124   125    2
    21   114   115    1
    22   123   126    1
    23    96    98   ar
    24    96    97   ar
    25   170   169    1
    26    98   100   ar
    27    97    99   ar
    28   128   127   ar
    29   128   130   ar
    30   115   117   ar
    31   115   116   ar
    32   126   127    1
    33   169   168    1
    34   127   129   ar
    35   117   119   ar
    36   130   131   ar
    37   116   118   ar
    38   100   101   ar
    39   163   164    1
    40    99   101   ar
    41   164   167    1
    42   164   165    1
    43   167   168    1
    44   178   179    1
    45   129   131   ar
    46   129   132   ar
    47   131   133   ar
    48   119   120   ar
    49   179   180    1
    50   118   120   ar
    51   166   165    2
    52   165   171   am
    53   120   121    1
    54   132   134   ar
    55   133   135   ar
    56   180   181    2
    57   180   182   am
    58   158   160   ar
    59   158   157   ar
    60   160   162   ar
    61   171   172    1
    62   187   188    1
    63   134   135   ar
    64   153   156    1
    65   153   154    1
    66   153   152    1
    67   156   157    1
    68   182   183    1
    69   157   159   ar
    70   162   161   ar
    71   173   174    2
    72   173   172    1
    73   188   191    1
    74   188   189    1
    75   154   155    2
    76   172   175    1
    77   191   192    1
    78    49    48    1
    79   159   161   ar
    80    21    20    2
    81   184   183    1
    82   184   185    2
    83   183   186    1
    84   189   190    2
    85   189   193   am
    86   175   177    1
    87   175   176    1
    88   193   194    1
    89    48    47   ar
    90    48    46   ar
    91   136   137    1
    92    20    19    1
    93   150   149    2
    94   195   194    1
    95   195   196    2
    96    47    45   ar
    97    46    44   ar
    98   141   142    1
    99   141   140    1
   100    64    62    1
   101   194   197    1
   102   146   144    1
   103   143   144    2
   104   143   142    1
   105    19    22    1
   106    19    18    1
   107   144   145    1
   108    28    26    1
   109   149   148    1
   110   137   140    1
   111   137   138    1
   112    63    62    1
   113    62    61    1
   114    25    26    2
   115    25    24    1
   116    23    22    1
   117    23    24    1
   118    26    27    1
   119   197   198    1
   120   139   138    2
   121    45    43   ar
   122    44    43   ar
   123   198   199    1
   124   198   200    1
   125   148   151    1
   126   148   147    1
   127    43    42    1
   128    61    58    1
   129    36    35    2
   130    56    54    1
   131    60    59    2
   132    58    59    1
   133    58    57    1
   134    29    30    1
   135    42    39    1
   136    35    34    1
   137    35    37   am
   138    59    65   am
   139    33    34    1
   140    33    30    1
   141    54    55    1
   142    54    51    1
   143    14    13    2
   144    51    50    1
   145    51    52    1
   146     8    10   ar
   147     8     6   ar
   148    10     9   ar
   149    50    40   am
   150     6     5    1
   151     6     7   ar
   152     5     2    1
   153    40    41    2
   154    40    39    1
   155    82    81    1
   156    30    31    1
   157     9     7   ar
   158    39    38    1
   159    65    66    1
   160    31    32    2
   161    53    52    2
   162    66    69    1
   163    66    67    1
   164    13    12    1
   165    81    79   ar
   166    81    80   ar
   167     2     1    1
   168     2     3    1
   169    69    70    1
   170    68    67    2
   171    79    77   ar
   172    12    15    1
   173    12    11    1
   174    80    78   ar
   175    15    17    1
   176    15    16    1
   177     3     4    2
   178    89    88    1
   179    77    76   ar
   180    78    76   ar
   181    76    75    1
   182    88    90    1
   183    88    87    1
   184    71    72    1
   185    87    84    1
   186    75    72    1
   187    72    73    1
   188    84    85    1
   189    84    83    1
   190    85    86    2
   191    73    74    2
