@<TRIPOS>MOLECULE
tmp/4coyA00.pdb
 101 100 0 0 0
SMALL
GASTEIGER

@<TRIPOS>ATOM
      1  N         -2.2200   25.5210  111.7470 N.3    41  TRP41      -0.1241
      2  CA        -1.9580   24.1200  112.0430 C.3    41  TRP41       0.1605
      3  C         -2.9370   23.1690  111.3490 C.2    41  TRP41       0.2264
      4  O         -4.0730   23.5290  111.0570 O.2    41  TRP41      -0.2867
      5  CB        -1.9820   23.8680  113.5660 C.3    41  TRP41       0.0550
      6  CG        -2.9550   24.7440  114.2620 C.ar   41  TRP41       0.0003
      7  CD1       -2.7420   26.0450  114.6640 C.ar   41  TRP41       0.0946
      8  CD2       -4.2980   24.4550  114.5660 C.ar   41  TRP41       0.0152
      9  NE1       -3.8710   26.5670  115.1980 N.ar   41  TRP41      -0.2442
     10  CE2       -4.8480   25.6110  115.1650 C.ar   41  TRP41       0.0810
     11  CE3       -5.1000   23.3550  114.3780 C.ar   41  TRP41       0.0012
     12  CZ2       -6.1610   25.6750  115.5910 C.ar   41  TRP41       0.0191
     13  CZ3       -6.3670   23.4030  114.8220 C.ar   41  TRP41       0.0001
     14  CH2       -6.9050   24.5560  115.4210 C.ar   41  TRP41       0.0015
     15  N          8.4430   20.2060  128.8820 N.3    74  TYR74      -0.1241
     16  CA         7.7520   21.3850  128.3740 C.3    74  TYR74       0.1605
     17  C          8.6950   22.0450  127.3750 C.2    74  TYR74       0.2264
     18  O          9.7670   22.5560  127.7520 O.2    74  TYR74      -0.2867
     19  CB         7.3470   22.3850  129.4730 C.3    74  TYR74       0.0534
     20  CG         6.2680   23.3360  128.9950 C.ar   74  TYR74      -0.0201
     21  CD1        6.5390   24.2880  128.0360 C.ar   74  TYR74      -0.0009
     22  CD2        4.9500   23.2050  129.4320 C.ar   74  TYR74      -0.0009
     23  CE1        5.5340   25.1290  127.5530 C.ar   74  TYR74       0.0417
     24  CE2        3.9380   24.0490  128.9610 C.ar   74  TYR74       0.0417
     25  CZ         4.2450   25.0100  128.0260 C.ar   74  TYR74       0.1957
     26  OH         3.2690   25.8350  127.5350 O.3    74  TYR74      -0.2866
     27  N          5.2010   31.0530  117.2510 N.3    80  GLY80      -0.1210
     28  CA         4.0470   30.2670  116.8570 C.3    80  GLY80       0.1956
     29  C          3.8960   30.1450  115.3590 C.2    80  GLY80       0.2612
     30  O          4.4320   30.9500  114.6090 O.2    80  GLY80      -0.2717
     31  N          3.1300   29.1350  114.9170 N.am   81  CYS81      -0.1970
     32  CA         2.8660   28.9300  113.4990 C.3    81  CYS81       0.1712
     33  C          4.1720   28.8030  112.7250 C.2    81  CYS81       0.2296
     34  O          4.2820   29.2070  111.5570 O.2    81  CYS81      -0.2864
     35  CB         1.9930   30.0580  112.9330 C.3    81  CYS81       0.0983
     36  SG         0.3010   29.9820  113.5490 S.3    81  CYS81      -0.0798
     37  N          0.2110   19.3030  125.7920 N.3   126  ASP126     -0.1225
     38  CA         0.0020   20.3140  124.7610 C.3   126  ASP126      0.1805
     39  C          0.6400   19.6630  123.5210 C.2   126  ASP126      0.2597
     40  O          1.8730   19.5820  123.4570 O.2   126  ASP126     -0.2718
     41  CB         0.6800   21.6360  125.1390 C.3   126  ASP126      0.1424
     42  CG         0.5790   22.7220  124.0490 C.2   126  ASP126      0.3668
     43  OD1        0.2720   22.4100  122.8910 O.co2 126  ASP126     -0.2456
     44  OD2        0.8480   23.9130  124.3640 O.co2 126  ASP126     -0.2456
     45  N         -0.1500   19.2170  122.5410 N.am  127  ASP127     -0.1974
     46  CA        -1.6080   19.3960  122.4750 C.3   127  ASP127      0.1709
     47  C         -2.4890   18.2300  122.9150 C.2   127  ASP127      0.2293
     48  O         -3.6300   18.4500  123.3170 O.2   127  ASP127     -0.2864
     49  CB        -2.0080   19.7090  121.0350 C.3   127  ASP127      0.1436
     50  CG        -1.6250   21.0840  120.6340 C.2   127  ASP127      0.3671
     51  OD1       -0.4920   21.2870  120.1540 O.co2 127  ASP127     -0.2456
     52  OD2       -2.4600   21.9770  120.7880 O.co2 127  ASP127     -0.2456
     53  N         -5.2410   19.9790  124.9050 N.3   160  TRP160     -0.1241
     54  CA        -5.0710   21.4020  125.1750 C.3   160  TRP160      0.1605
     55  C         -6.2010   22.1870  124.5300 C.2   160  TRP160      0.2264
     56  O         -6.5540   21.9410  123.3760 O.2   160  TRP160     -0.2867
     57  CB        -3.7300   21.8870  124.6410 C.3   160  TRP160      0.0550
     58  CG        -3.4900   23.3060  125.0190 C.ar  160  TRP160      0.0003
     59  CD1       -2.8770   23.7540  126.1600 C.ar  160  TRP160      0.0946
     60  CD2       -3.9000   24.4750  124.2930 C.ar  160  TRP160      0.0152
     61  NE1       -2.8930   25.1360  126.1850 N.ar  160  TRP160     -0.2442
     62  CE2       -3.5030   25.5970  125.0510 C.ar  160  TRP160      0.0810
     63  CE3       -4.5730   24.6790  123.0880 C.ar  160  TRP160      0.0012
     64  CZ2       -3.7490   26.9030  124.6340 C.ar  160  TRP160      0.0191
     65  CZ3       -4.8060   25.9760  122.6680 C.ar  160  TRP160      0.0001
     66  CH2       -4.4150   27.0700  123.4430 C.ar  160  TRP160      0.0015
     67  N          0.5450   20.1060  117.6840 N.3   188  ARG188     -0.1231
     68  CA         0.0600   20.6570  116.4350 C.3   188  ARG188      0.1694
     69  C          0.8310   21.8990  116.0130 C.2   188  ARG188      0.2592
     70  O          0.7800   22.2510  114.8530 O.2   188  ARG188     -0.2718
     71  CB        -1.4400   21.0230  116.5290 C.3   188  ARG188      0.0321
     72  CG        -1.7050   22.4060  117.1320 C.3   188  ARG188      0.0489
     73  CD        -3.1630   22.6300  117.5070 C.3   188  ARG188      0.2205
     74  NE        -3.3880   23.9850  117.9650 N.pl3 188  ARG188     -0.0865
     75  CZ        -4.5540   24.4730  118.3760 C.cat 188  ARG188      0.5346
     76  NH1       -5.6510   23.7240  118.4420 N.pl3 188  ARG188      0.1354
     77  NH2       -4.6260   25.7430  118.7470 N.pl3 188  ARG188      0.1354
     78  N          1.4810   22.5770  116.9650 N.am  189  ASP189     -0.1960
     79  CA         1.9340   23.9650  116.7740 C.3   189  ASP189      0.1840
     80  C          2.5230   24.4970  118.0890 C.2   189  ASP189      0.2622
     81  O          2.0560   24.1520  119.1590 O.2   189  ASP189     -0.2715
     82  CB         0.7230   24.8530  116.3310 C.3   189  ASP189      0.1450
     83  CG         1.0320   26.3410  116.2720 C.2   189  ASP189      0.3671
     84  OD1        2.1160   26.7310  115.7900 O.co2 189  ASP189     -0.2456
     85  OD2        0.1450   27.1350  116.6560 O.co2 189  ASP189     -0.2456
     86  N          3.5290   25.3650  117.9960 N.am  190  ASN190     -0.1958
     87  CA         3.9620   26.1690  119.1460 C.3   190  ASN190      0.1819
     88  C          4.4450   25.2780  120.3020 C.2   190  ASN190      0.2621
     89  O          5.1860   24.3030  120.0640 O.2   190  ASN190     -0.2715
     90  CB         2.8290   27.1280  119.5820 C.3   190  ASN190      0.1195
     91  CG         3.3540   28.3630  120.2870 C.2   190  ASN190      0.2630
     92  OD1        4.4120   28.8990  119.9250 O.2   190  ASN190     -0.2716
     93  ND2        2.6250   28.8240  121.3050 N.am  190  ASN190     -0.0877
     94  N          4.0940   25.6090  121.5440 N.am  191  ASP191     -0.1971
     95  CA         4.5810   24.8300  122.6770 C.3   191  ASP191      0.1709
     96  C          4.1180   23.3640  122.5820 C.2   191  ASP191      0.2293
     97  O          3.0570   23.0780  122.0640 O.2   191  ASP191     -0.2864
     98  CB         4.0990   25.3990  124.0080 C.3   191  ASP191      0.1436
     99  CG         4.6450   26.7910  124.3190 C.2   191  ASP191      0.3671
    100  OD1        5.4520   27.3460  123.5300 O.co2 191  ASP191     -0.2456
    101  OD2        4.2320   27.3170  125.3770 O.co2 191  ASP191     -0.2456
@<TRIPOS>BOND
     1     4     3    2
     2     3     2    1
     3    34    33    2
     4     1     2    1
     5     2     5    1
     6    33    32    1
     7    35    32    1
     8    35    36    1
     9    32    31    1
    10     5     6    1
    11     6     8   ar
    12     6     7   ar
    13    11     8   ar
    14    11    13   ar
    15     8    10   ar
    16    30    29    2
    17     7     9   ar
    18    13    14   ar
    19    70    69    2
    20    31    29   am
    21    10     9   ar
    22    10    12   ar
    23    29    28    1
    24    14    12   ar
    25    84    83   ar
    26    69    68    1
    27    69    78   am
    28    83    82    1
    29    83    85   ar
    30    82    79    1
    31    68    71    1
    32    68    67    1
    33    71    72    1
    34    79    78    1
    35    79    80    1
    36    28    27    1
    37    72    73    1
    38    73    74    1
    39    74    75    2
    40    86    80   am
    41    86    87    1
    42    80    81    2
    43    75    76    1
    44    75    77    1
    45    87    90    1
    46    87    88    1
    47    90    91    1
    48    92    91    2
    49    89    88    2
    50    51    50   ar
    51    91    93   am
    52    88    94   am
    53    50    52   ar
    54    50    49    1
    55    49    46    1
    56    94    95    1
    57    97    96    2
    58    46    45    1
    59    46    47    1
    60    45    39   am
    61    96    95    1
    62    65    63   ar
    63    65    66   ar
    64    95    98    1
    65    43    42   ar
    66    47    48    2
    67    63    60   ar
    68    56    55    2
    69    66    64   ar
    70    40    39    2
    71    39    38    1
    72   100    99   ar
    73    98    99    1
    74    42    44   ar
    75    42    41    1
    76    60    58   ar
    77    60    62   ar
    78    99   101   ar
    79    55    54    1
    80    64    62   ar
    81    57    58    1
    82    57    54    1
    83    38    41    1
    84    38    37    1
    85    53    54    1
    86    58    59   ar
    87    62    61   ar
    88    59    61   ar
    89    17    18    2
    90    17    16    1
    91    26    25    1
    92    23    25   ar
    93    23    21   ar
    94    25    24   ar
    95    21    20   ar
    96    16    15    1
    97    16    19    1
    98    24    22   ar
    99    20    22   ar
   100    20    19    1
