@<TRIPOS>MOLECULE
tmp/4cp0A00.pdb
 101 103 0 0 0
SMALL
GASTEIGER

@<TRIPOS>ATOM
      1  N         28.2220   63.8430   65.1250 N.3    35  CYS35      -0.1221
      2  CA        28.6550   62.4330   65.0380 C.3    35  CYS35       0.1808
      3  C         27.9710   61.6760   63.8980 C.2    35  CYS35       0.2601
      4  O         28.5580   60.7590   63.3060 O.2    35  CYS35      -0.2717
      5  CB        28.3730   61.6960   66.3510 C.3    35  CYS35       0.0970
      6  SG        26.6230   61.5340   66.7900 S.3    35  CYS35      -0.0800
      7  N         26.7240   62.0490   63.6070 N.am   36  TRP36      -0.1976
      8  CA        25.9300   61.3530   62.5900 C.3    36  TRP36       0.1640
      9  C         26.2210   61.8440   61.1790 C.2    36  TRP36       0.2290
     10  O         26.5980   62.9840   60.9600 O.2    36  TRP36      -0.2864
     11  CB        24.4250   61.4310   62.8830 C.3    36  TRP36       0.0576
     12  CG        23.9010   62.7890   63.2080 C.ar   36  TRP36       0.0006
     13  CD1       23.7230   63.3270   64.4620 C.ar   36  TRP36       0.0946
     14  CD2       23.4970   63.7950   62.2800 C.ar   36  TRP36       0.0152
     15  NE1       23.2220   64.6040   64.3580 N.ar   36  TRP36      -0.2442
     16  CE2       23.0780   64.9150   63.0300 C.ar   36  TRP36       0.0810
     17  CE3       23.4420   63.8600   60.8840 C.ar   36  TRP36       0.0012
     18  CZ2       22.6160   66.0870   62.4270 C.ar   36  TRP36       0.0191
     19  CZ3       22.9810   65.0250   60.2880 C.ar   36  TRP36       0.0001
     20  CH2       22.5730   66.1200   61.0570 C.ar   36  TRP36       0.0015
     21  N         23.1420   58.7160   72.5480 N.3    76  GLY76      -0.1210
     22  CA        23.2790   59.0240   71.1260 C.3    76  GLY76       0.1956
     23  C         24.7240   58.8400   70.6870 C.2    76  GLY76       0.2612
     24  O         25.5860   58.4800   71.4970 O.2    76  GLY76      -0.2717
     25  N         24.9770   59.0580   69.3960 N.am   77  CYS77      -0.1970
     26  CA        26.3160   58.9600   68.8260 C.3    77  CYS77       0.1712
     27  C         26.9670   57.6010   69.0960 C.2    77  CYS77       0.2296
     28  O         28.1640   57.5120   69.2980 O.2    77  CYS77      -0.2864
     29  CB        27.1910   60.1080   69.3610 C.3    77  CYS77       0.0983
     30  SG        26.5970   61.7260   68.8290 S.3    77  CYS77      -0.0798
     31  N         11.3250   58.9080   62.3310 N.3   122  ASP122     -0.1225
     32  CA        12.5980   59.3090   62.9120 C.3   122  ASP122      0.1805
     33  C         13.6020   58.2630   62.4390 C.2   122  ASP122      0.2597
     34  O         13.5850   57.1310   62.9490 O.2   122  ASP122     -0.2718
     35  CB        12.5230   59.3510   64.4500 C.3   122  ASP122      0.1424
     36  CG        13.8800   59.6470   65.1040 C.2   122  ASP122      0.3668
     37  OD1       14.8980   59.6640   64.3670 O.co2 122  ASP122     -0.2456
     38  OD2       13.9220   59.8690   66.3490 O.co2 122  ASP122     -0.2456
     39  N         14.4690   58.5810   61.4640 N.am  123  ASP123     -0.1974
     40  CA        14.6720   59.9200   60.8810 C.3   123  ASP123      0.1709
     41  C         13.9100   60.2170   59.5900 C.2   123  ASP123      0.2293
     42  O         13.4800   61.3480   59.3630 O.2   123  ASP123     -0.2864
     43  CB        16.1620   60.1230   60.6000 C.3   123  ASP123      0.1436
     44  CG        16.9380   60.4370   61.8460 C.2   123  ASP123      0.3671
     45  OD1       16.9590   61.6280   62.2330 O.co2 123  ASP123     -0.2456
     46  OD2       17.4970   59.4890   62.4580 O.co2 123  ASP123     -0.2456
     47  N         12.5600   63.8580   60.0640 N.3   156  TRP156     -0.1241
     48  CA        12.7280   64.4470   61.3900 C.3   156  TRP156      0.1605
     49  C         13.7620   65.5880   61.3020 C.2   156  TRP156      0.2264
     50  O         14.7740   65.4470   60.6080 O.2   156  TRP156     -0.2867
     51  CB        13.2040   63.3670   62.3860 C.3   156  TRP156      0.0550
     52  CG        13.2230   63.8340   63.8090 C.ar  156  TRP156      0.0003
     53  CD1       12.2400   63.6560   64.7430 C.ar  156  TRP156      0.0946
     54  CD2       14.2540   64.5890   64.4500 C.ar  156  TRP156      0.0152
     55  NE1       12.5970   64.2520   65.9300 N.ar  156  TRP156     -0.2442
     56  CE2       13.8260   64.8380   65.7770 C.ar  156  TRP156      0.0810
     57  CE3       15.4900   65.0960   64.0310 C.ar  156  TRP156      0.0012
     58  CZ2       14.5920   65.5600   66.6880 C.ar  156  TRP156      0.0191
     59  CZ3       16.2580   65.8250   64.9450 C.ar  156  TRP156      0.0001
     60  CH2       15.8030   66.0450   66.2560 C.ar  156  TRP156      0.0015
     61  N         19.5800   57.7910   61.3420 N.3   183  ARG183     -0.1231
     62  CA        20.9370   58.3440   61.3420 C.3   183  ARG183      0.1694
     63  C         21.6390   58.1950   62.6920 C.2   183  ARG183      0.2592
     64  O         22.8600   58.2700   62.7520 O.2   183  ARG183     -0.2718
     65  CB        20.9060   59.8380   60.9780 C.3   183  ARG183      0.0321
     66  CG        20.5820   60.7360   62.1680 C.3   183  ARG183      0.0489
     67  CD        20.3160   62.1820   61.7720 C.3   183  ARG183      0.2205
     68  NE        20.1140   63.0100   62.9560 N.pl3 183  ARG183     -0.0865
     69  CZ        19.8010   64.3040   62.9420 C.cat 183  ARG183      0.5346
     70  NH1       19.6430   64.9440   61.7930 N.pl3 183  ARG183      0.1354
     71  NH2       19.6520   64.9600   64.0930 N.pl3 183  ARG183      0.1354
     72  N         20.8740   58.0000   63.7690 N.am  184  ASP184     -0.1960
     73  CA        21.4050   58.1520   65.1310 C.3   184  ASP184      0.1840
     74  C         20.2830   57.9450   66.1290 C.2   184  ASP184      0.2622
     75  O         19.1560   58.3540   65.8720 O.2   184  ASP184     -0.2715
     76  CB        22.0000   59.5620   65.2970 C.3   184  ASP184      0.1450
     77  CG        22.4080   59.9000   66.7290 C.2   184  ASP184      0.3671
     78  OD1       22.9740   59.0450   67.4560 O.co2 184  ASP184     -0.2456
     79  OD2       22.1960   61.0750   67.0980 O.co2 184  ASP184     -0.2456
     80  N         20.5760   57.2800   67.2440 N.am  185  TYR185     -0.1960
     81  CA        19.7090   57.3520   68.4220 C.3   185  TYR185      0.1771
     82  C         18.2950   56.8110   68.1370 C.2   185  TYR185      0.2619
     83  O         18.1370   55.7370   67.5170 O.2   185  TYR185     -0.2715
     84  CB        19.7120   58.8110   68.9160 C.3   185  TYR185      0.0574
     85  CG        19.2390   59.0670   70.3420 C.ar  185  TYR185     -0.0198
     86  CD1       19.7050   58.3080   71.4060 C.ar  185  TYR185     -0.0009
     87  CD2       18.3470   60.1010   70.6150 C.ar  185  TYR185     -0.0009
     88  CE1       19.2830   58.5580   72.6990 C.ar  185  TYR185      0.0417
     89  CE2       17.9280   60.3690   71.9080 C.ar  185  TYR185      0.0417
     90  CZ        18.3960   59.5920   72.9380 C.ar  185  TYR185      0.1957
     91  OH        17.9710   59.8390   74.2170 O.3   185  TYR185     -0.2866
     92  N         17.2660   57.5430   68.5650 N.am  186  HIS186     -0.1973
     93  CA        15.9030   57.0440   68.5090 C.3   186  HIS186      0.1656
     94  C         15.4590   56.7800   67.0800 C.2   186  HIS186      0.2291
     95  O         15.9590   57.3920   66.1160 O.2   186  HIS186     -0.2864
     96  CB        14.9260   58.0010   69.2060 C.3   186  HIS186      0.0771
     97  CG        15.1300   58.0970   70.6860 C.ar  186  HIS186      0.0820
     98  ND1       14.4940   59.0360   71.4650 N.ar  186  HIS186     -0.2267
     99  CD2       15.9120   57.3760   71.5280 C.ar  186  HIS186      0.1154
    100  CE1       14.8740   58.8920   72.7220 C.ar  186  HIS186      0.1986
    101  NE2       15.7250   57.8840   72.7870 N.ar  186  HIS186     -0.2212
@<TRIPOS>BOND
     1    42    41    2
     2    41    40    1
     3    47    48    1
     4    19    17   ar
     5    19    20   ar
     6    43    40    1
     7    43    44    1
     8    50    49    2
     9    40    39    1
    10    17    14   ar
    11    10     9    2
    12    65    62    1
    13    65    66    1
    14    20    18   ar
    15     9     8    1
    16    49    48    1
    17    61    62    1
    18    62    63    1
    19    48    51    1
    20    39    33   am
    21    67    66    1
    22    67    68    1
    23    70    69    1
    24    44    45   ar
    25    44    46   ar
    26    14    16   ar
    27    14    12   ar
    28    31    32    1
    29    51    52    1
    30    18    16   ar
    31    33    32    1
    32    33    34    2
    33     8    11    1
    34     8     7    1
    35    63    64    2
    36    63    72   am
    37    11    12    1
    38    32    35    1
    39    69    68    2
    40    69    71    1
    41    16    15   ar
    42    12    13   ar
    43     4     3    2
    44     7     3   am
    45    72    73    1
    46    52    54   ar
    47    52    53   ar
    48     3     2    1
    49    57    54   ar
    50    57    59   ar
    51    15    13   ar
    52    37    36   ar
    53    35    36    1
    54    54    56   ar
    55    53    55   ar
    56    59    60   ar
    57     2     1    1
    58     2     5    1
    59    36    38   ar
    60    73    76    1
    61    73    74    1
    62    76    77    1
    63    56    55   ar
    64    56    58   ar
    65    75    74    2
    66    95    94    2
    67    74    80   am
    68    60    58   ar
    69     5     6    1
    70    77    79   ar
    71    77    78   ar
    72     6    30    1
    73    94    93    1
    74    80    81    1
    75    83    82    2
    76    82    81    1
    77    82    92   am
    78    81    84    1
    79    93    92    1
    80    93    96    1
    81    26    27    1
    82    26    29    1
    83    26    25    1
    84    30    29    1
    85    84    85    1
    86    27    28    2
    87    96    97    1
    88    25    23   am
    89    85    87   ar
    90    85    86   ar
    91    87    89   ar
    92    97    98   ar
    93    97    99   ar
    94    23    22    1
    95    23    24    2
    96    22    21    1
    97    86    88   ar
    98    98   100   ar
    99    99   101   ar
   100    89    90   ar
   101    88    90   ar
   102   100   101   ar
   103    90    91    1
