@<TRIPOS>MOLECULE
tmp/4cp1A00.pdb
 110 112 0 0 0
SMALL
GASTEIGER

@<TRIPOS>ATOM
      1  N         29.1270   67.3920   64.1390 N.3    33  GLN33      -0.1231
      2  CA        28.0820   66.3870   64.3710 C.3    33  GLN33       0.1698
      3  C         28.5930   64.9450   64.1420 C.2    33  GLN33       0.2592
      4  O         29.3130   64.6830   63.1890 O.2    33  GLN33      -0.2718
      5  CB        26.8590   66.6910   63.5060 C.3    33  GLN33       0.0381
      6  CG        26.6430   65.7500   62.3250 C.3    33  GLN33       0.0905
      7  CD        26.8540   66.3610   60.9400 C.2    33  GLN33       0.2608
      8  OE1       26.0900   67.2230   60.5110 O.2    33  GLN33      -0.2717
      9  NE2       27.8390   65.8510   60.2050 N.am   33  GLN33      -0.0878
     10  N         28.2210   64.0250   65.0330 N.am   34  CYS34      -0.1956
     11  CA        28.6740   62.6100   64.9750 C.3    34  CYS34       0.1843
     12  C         28.0270   61.7940   63.8580 C.2    34  CYS34       0.2625
     13  O         28.6470   60.8580   63.3350 O.2    34  CYS34      -0.2714
     14  CB        28.4030   61.8860   66.3100 C.3    34  CYS34       0.0997
     15  SG        26.6470   61.6450   66.7190 S.3    34  CYS34      -0.0797
     16  N         26.7790   62.1420   63.5250 N.am   35  TRP35      -0.1974
     17  CA        26.0070   61.4600   62.5030 C.3    35  TRP35       0.1640
     18  C         26.2730   61.9310   61.0640 C.2    35  TRP35       0.2290
     19  O         26.6340   63.0600   60.8150 O.2    35  TRP35      -0.2864
     20  CB        24.5200   61.5630   62.8170 C.3    35  TRP35       0.0576
     21  CG        23.9920   62.9210   63.1490 C.ar   35  TRP35       0.0006
     22  CD1       23.7560   63.4210   64.4030 C.ar   35  TRP35       0.0946
     23  CD2       23.5550   63.9360   62.2250 C.ar   35  TRP35       0.0152
     24  NE1       23.2300   64.7040   64.3170 N.ar   35  TRP35      -0.2442
     25  CE2       23.0980   65.0420   62.9950 C.ar   35  TRP35       0.0810
     26  CE3       23.5380   64.0350   60.8320 C.ar   35  TRP35       0.0012
     27  CZ2       22.6230   66.2210   62.4090 C.ar   35  TRP35       0.0191
     28  CZ3       23.0550   65.2130   60.2490 C.ar   35  TRP35       0.0001
     29  CH2       22.6100   66.2890   61.0400 C.ar   35  TRP35       0.0015
     30  N         23.2890   58.6330   72.5770 N.3    75  GLY75      -0.1210
     31  CA        23.4220   59.0540   71.2040 C.3    75  GLY75       0.1956
     32  C         24.8480   58.8650   70.7210 C.2    75  GLY75       0.2612
     33  O         25.7440   58.6140   71.5080 O.2    75  GLY75      -0.2717
     34  N         25.0280   58.9840   69.4060 N.am   76  CYS76      -0.1970
     35  CA        26.3280   58.9950   68.7730 C.3    76  CYS76       0.1712
     36  C         27.0480   57.6880   68.9590 C.2    76  CYS76       0.2296
     37  O         28.2850   57.6330   68.9710 O.2    76  CYS76      -0.2864
     38  CB        27.1840   60.1520   69.3010 C.3    76  CYS76       0.0983
     39  SG        26.5490   61.7290   68.7640 S.3    76  CYS76      -0.0798
     40  N         11.3660   58.9630   62.2770 N.3   121  ASP121     -0.1225
     41  CA        12.6490   59.3490   62.8410 C.3   121  ASP121      0.1805
     42  C         13.6870   58.3310   62.3560 C.2   121  ASP121      0.2597
     43  O         13.6810   57.1900   62.8360 O.2   121  ASP121     -0.2718
     44  CB        12.5880   59.3510   64.3710 C.3   121  ASP121      0.1424
     45  CG        13.9470   59.7060   65.0290 C.2   121  ASP121      0.3668
     46  OD1       14.9750   59.7670   64.3240 O.co2 121  ASP121     -0.2456
     47  OD2       13.9890   59.9370   66.2600 O.co2 121  ASP121     -0.2456
     48  N         14.5800   58.6900   61.4270 N.am  122  ASP122     -0.1974
     49  CA        14.7290   60.0470   60.8570 C.3   122  ASP122      0.1709
     50  C         13.9470   60.3570   59.5580 C.2   122  ASP122      0.2293
     51  O         13.4980   61.4970   59.3560 O.2   122  ASP122     -0.2864
     52  CB        16.2120   60.3340   60.5880 C.3   122  ASP122      0.1436
     53  CG        16.9680   60.6440   61.8470 C.2   122  ASP122      0.3671
     54  OD1       17.4050   59.6680   62.5160 O.co2 122  ASP122     -0.2456
     55  OD2       17.1320   61.8480   62.1860 O.co2 122  ASP122     -0.2456
     56  N         12.6020   63.9300   59.9720 N.3   155  TRP155     -0.1241
     57  CA        12.7290   64.4670   61.3220 C.3   155  TRP155      0.1605
     58  C         13.7380   65.6110   61.2320 C.2   155  TRP155      0.2264
     59  O         14.7340   65.4790   60.5140 O.2   155  TRP155     -0.2867
     60  CB        13.2010   63.3580   62.2860 C.3   155  TRP155      0.0550
     61  CG        13.1830   63.7820   63.7110 C.ar  155  TRP155      0.0003
     62  CD1       12.1960   63.5480   64.6180 C.ar  155  TRP155      0.0946
     63  CD2       14.1750   64.5460   64.3850 C.ar  155  TRP155      0.0152
     64  NE1       12.5130   64.1300   65.8250 N.ar  155  TRP155     -0.2442
     65  CE2       13.7260   64.7460   65.7070 C.ar  155  TRP155      0.0810
     66  CE3       15.4010   65.0850   64.0000 C.ar  155  TRP155      0.0012
     67  CZ2       14.4540   65.4670   66.6470 C.ar  155  TRP155      0.0191
     68  CZ3       16.1360   65.8090   64.9360 C.ar  155  TRP155      0.0001
     69  CH2       15.6560   65.9930   66.2490 C.ar  155  TRP155      0.0015
     70  N         19.5910   57.9220   61.2440 N.3   182  ARG182     -0.1231
     71  CA        20.9740   58.4640   61.2240 C.3   182  ARG182      0.1694
     72  C         21.7120   58.2880   62.5640 C.2   182  ARG182      0.2592
     73  O         22.9290   58.3040   62.6060 O.2   182  ARG182     -0.2718
     74  CB        20.9340   59.9450   60.9110 C.3   182  ARG182      0.0321
     75  CG        20.6920   60.7800   62.1560 C.3   182  ARG182      0.0489
     76  CD        20.5200   62.2380   61.8000 C.3   182  ARG182      0.2205
     77  NE        20.2880   63.0610   62.9790 N.pl3 182  ARG182     -0.0865
     78  CZ        19.8560   64.3090   62.9440 C.cat 182  ARG182      0.5346
     79  NH1       19.6130   64.9130   61.8000 N.pl3 182  ARG182      0.1354
     80  NH2       19.6560   64.9460   64.0700 N.pl3 182  ARG182      0.1354
     81  N         20.9450   58.1360   63.6430 N.am  183  ASP183     -0.1960
     82  CA        21.4540   58.2710   64.9890 C.3   183  ASP183      0.1840
     83  C         20.3480   58.0230   65.9990 C.2   183  ASP183      0.2622
     84  O         19.2370   58.4550   65.7700 O.2   183  ASP183     -0.2715
     85  CB        21.9730   59.6940   65.1730 C.3   183  ASP183      0.1450
     86  CG        22.4240   59.9880   66.5900 C.2   183  ASP183      0.3671
     87  OD1       23.0540   59.1070   67.2190 O.co2 183  ASP183     -0.2456
     88  OD2       22.1860   61.1240   67.0350 O.co2 183  ASP183     -0.2456
     89  N         20.6320   57.2940   67.0810 N.am  184  TYR184     -0.1960
     90  CA        19.7980   57.3370   68.2820 C.3   184  TYR184      0.1771
     91  C         18.3770   56.8120   68.0320 C.2   184  TYR184      0.2619
     92  O         18.2100   55.7370   67.4670 O.2   184  TYR184     -0.2715
     93  CB        19.8150   58.7860   68.8170 C.3   184  TYR184      0.0574
     94  CG        19.3500   59.0270   70.2580 C.ar  184  TYR184     -0.0198
     95  CD1       19.8160   58.2550   71.3010 C.ar  184  TYR184     -0.0009
     96  CD2       18.4720   60.0800   70.5590 C.ar  184  TYR184     -0.0009
     97  CE1       19.4070   58.4970   72.6030 C.ar  184  TYR184      0.0417
     98  CE2       18.0500   60.3340   71.8450 C.ar  184  TYR184      0.0417
     99  CZ        18.5260   59.5480   72.8730 C.ar  184  TYR184      0.1957
    100  OH        18.1180   59.7880   74.1760 O.3   184  TYR184     -0.2866
    101  N         17.3570   57.5540   68.4420 N.am  185  HIS185     -0.1973
    102  CA        15.9870   57.0600   68.3850 C.3   185  HIS185      0.1656
    103  C         15.5130   56.8190   66.9720 C.2   185  HIS185      0.2291
    104  O         16.0110   57.4190   66.0080 O.2   185  HIS185     -0.2864
    105  CB        15.0270   58.0220   69.0840 C.3   185  HIS185      0.0771
    106  CG        15.2490   58.1080   70.5580 C.ar  185  HIS185      0.0820
    107  ND1       14.6840   59.0840   71.3380 N.ar  185  HIS185     -0.2267
    108  CD2       15.9980   57.3460   71.3910 C.ar  185  HIS185      0.1154
    109  CE1       15.0660   58.9150   72.5930 C.ar  185  HIS185      0.1986
    110  NE2       15.8630   57.8660   72.6530 N.ar  185  HIS185     -0.2212
@<TRIPOS>BOND
     1    51    50    2
     2    50    49    1
     3    56    57    1
     4     9     7   am
     5    28    26   ar
     6    28    29   ar
     7     8     7    2
     8    59    58    2
     9    52    49    1
    10    52    53    1
    11    19    18    2
    12    26    23   ar
    13    49    48    1
    14    74    71    1
    15    74    75    1
    16     7     6    1
    17    29    27   ar
    18    18    17    1
    19    71    70    1
    20    71    72    1
    21    58    57    1
    22    57    60    1
    23    48    42   am
    24    79    78    1
    25    76    75    1
    26    76    77    1
    27    53    55   ar
    28    53    54   ar
    29    23    25   ar
    30    23    21   ar
    31    40    41    1
    32    60    61    1
    33     6     5    1
    34    42    43    2
    35    42    41    1
    36    27    25   ar
    37    17    20    1
    38    17    16    1
    39    72    73    2
    40    72    81   am
    41    20    21    1
    42    41    44    1
    43    78    77    2
    44    78    80    1
    45    25    24   ar
    46    21    22   ar
    47     4     3    2
    48    13    12    2
    49     5     2    1
    50    16    12   am
    51    81    82    1
    52    61    63   ar
    53    61    62   ar
    54    12    11    1
    55    66    63   ar
    56    66    68   ar
    57     1     2    1
    58     3     2    1
    59     3    10   am
    60    24    22   ar
    61    46    45   ar
    62    44    45    1
    63    63    65   ar
    64    62    64   ar
    65    68    69   ar
    66    11    10    1
    67    11    14    1
    68    82    85    1
    69    82    83    1
    70    45    47   ar
    71    85    86    1
    72    65    64   ar
    73    65    67   ar
    74    84    83    2
    75    83    89   am
    76   104   103    2
    77    69    67   ar
    78    14    15    1
    79    86    88   ar
    80    86    87   ar
    81    15    39    1
    82   103   102    1
    83    89    90    1
    84    92    91    2
    85    91    90    1
    86    91   101   am
    87    90    93    1
    88   102   101    1
    89   102   105    1
    90    39    38    1
    91    35    36    1
    92    35    38    1
    93    35    34    1
    94    93    94    1
    95    36    37    2
    96   105   106    1
    97    34    32   am
    98    94    96   ar
    99    94    95   ar
   100   106   107   ar
   101   106   108   ar
   102    96    98   ar
   103    32    31    1
   104    32    33    2
   105    31    30    1
   106    95    97   ar
   107   107   109   ar
   108   108   110   ar
   109    98    99   ar
   110   109   110   ar
   111    97    99   ar
   112    99   100    1
