@<TRIPOS>MOLECULE
tmp/4cp2A00.pdb
 110 112 0 0 0
SMALL
GASTEIGER

@<TRIPOS>ATOM
      1  N         29.3750   67.2760   63.0780 N.3    34  GLN34      -0.1231
      2  CA        28.5250   66.2890   63.7760 C.3    34  GLN34       0.1698
      3  C         28.8890   64.8380   63.4230 C.2    34  GLN34       0.2592
      4  O         29.4370   64.5740   62.3510 O.2    34  GLN34      -0.2718
      5  CB        27.0370   66.5480   63.4810 C.3    34  GLN34       0.0381
      6  CG        26.5360   66.0620   62.1200 C.3    34  GLN34       0.0905
      7  CD        27.3130   66.6350   60.9460 C.2    34  GLN34       0.2608
      8  OE1       27.9500   67.6790   61.0710 O.2    34  GLN34      -0.2717
      9  NE2       27.2610   65.9590   59.8000 N.am   34  GLN34      -0.0878
     10  N         28.5530   63.9100   64.3230 N.am   35  CYS35      -0.1956
     11  CA        28.8720   62.4800   64.1630 C.3    35  CYS35       0.1843
     12  C         28.1420   61.7580   63.0350 C.2    35  CYS35       0.2625
     13  O         28.7060   60.8430   62.4240 O.2    35  CYS35      -0.2714
     14  CB        28.5850   61.7140   65.4570 C.3    35  CYS35       0.0997
     15  SG        26.8340   61.5410   65.8980 S.3    35  CYS35      -0.0797
     16  N         26.8870   62.1320   62.7850 N.am   36  TRP36      -0.1974
     17  CA        26.0740   61.4320   61.7810 C.3    36  TRP36       0.1640
     18  C         26.3500   61.9050   60.3530 C.2    36  TRP36       0.2290
     19  O         26.7830   63.0310   60.1240 O.2    36  TRP36      -0.2864
     20  CB        24.5710   61.4940   62.0970 C.3    36  TRP36       0.0576
     21  CG        24.0610   62.8370   62.4220 C.ar   36  TRP36       0.0006
     22  CD1       23.8770   63.3530   63.6690 C.ar   36  TRP36       0.0946
     23  CD2       23.6610   63.8590   61.4980 C.ar   36  TRP36       0.0152
     24  NE1       23.3930   64.6370   63.5820 N.ar   36  TRP36      -0.2442
     25  CE2       23.2460   64.9710   62.2620 C.ar   36  TRP36       0.0810
     26  CE3       23.6140   63.9440   60.1030 C.ar   36  TRP36       0.0012
     27  CZ2       22.7910   66.1620   61.6740 C.ar   36  TRP36       0.0191
     28  CZ3       23.1560   65.1280   59.5180 C.ar   36  TRP36       0.0001
     29  CH2       22.7510   66.2190   60.3050 C.ar   36  TRP36       0.0015
     30  N         23.4160   58.8090   71.7890 N.3    76  GLY76      -0.1210
     31  CA        23.5440   59.1720   70.3860 C.3    76  GLY76       0.1956
     32  C         24.9610   58.9030   69.9210 C.2    76  GLY76       0.2612
     33  O         25.8150   58.5220   70.7210 O.2    76  GLY76      -0.2717
     34  N         25.1960   59.0870   68.6210 N.am   77  CYS77      -0.1970
     35  CA        26.5340   59.0090   68.0080 C.3    77  CYS77       0.1712
     36  C         27.2090   57.6470   68.1810 C.2    77  CYS77       0.2296
     37  O         28.4350   57.5310   68.1920 O.2    77  CYS77      -0.2864
     38  CB        27.4240   60.1580   68.5170 C.3    77  CYS77       0.0983
     39  SG        26.8590   61.7700   67.9160 S.3    77  CYS77      -0.0798
     40  N         11.4440   58.9940   61.4940 N.3   122  ASP122     -0.1225
     41  CA        12.7220   59.4010   62.0740 C.3   122  ASP122      0.1805
     42  C         13.7640   58.3760   61.6060 C.2   122  ASP122      0.2597
     43  O         13.7740   57.2610   62.1240 O.2   122  ASP122     -0.2718
     44  CB        12.6590   59.4410   63.6070 C.3   122  ASP122      0.1424
     45  CG        14.0060   59.7650   64.2320 C.2   122  ASP122      0.3668
     46  OD1       15.0140   59.7060   63.5030 O.co2 122  ASP122     -0.2456
     47  OD2       14.0730   60.0690   65.4430 O.co2 122  ASP122     -0.2456
     48  N         14.6390   58.7120   60.6490 N.am  123  ASP123     -0.1974
     49  CA        14.8230   60.0690   60.0910 C.3   123  ASP123      0.1709
     50  C         14.0800   60.3970   58.7890 C.2   123  ASP123      0.2293
     51  O         13.7180   61.5550   58.5600 O.2   123  ASP123     -0.2864
     52  CB        16.3090   60.3100   59.8420 C.3   123  ASP123      0.1436
     53  CG        17.0790   60.5140   61.1210 C.2   123  ASP123      0.3671
     54  OD1       17.5010   59.5080   61.7240 O.co2 123  ASP123     -0.2456
     55  OD2       17.2600   61.6800   61.5320 O.co2 123  ASP123     -0.2456
     56  N         12.6220   63.9010   59.2380 N.3   156  TRP156     -0.1241
     57  CA        12.8620   64.5230   60.5250 C.3   156  TRP156      0.1605
     58  C         13.8620   65.6690   60.3470 C.2   156  TRP156      0.2264
     59  O         14.7850   65.5530   59.5540 O.2   156  TRP156     -0.2867
     60  CB        13.4250   63.4770   61.5000 C.3   156  TRP156      0.0550
     61  CG        13.3700   63.9260   62.9050 C.ar  156  TRP156      0.0003
     62  CD1       12.3380   63.7580   63.7760 C.ar  156  TRP156      0.0946
     63  CD2       14.3690   64.6660   63.5950 C.ar  156  TRP156      0.0152
     64  NE1       12.6420   64.3340   64.9840 N.ar  156  TRP156     -0.2442
     65  CE2       13.8840   64.9050   64.8980 C.ar  156  TRP156      0.0810
     66  CE3       15.6340   65.1410   63.2450 C.ar  156  TRP156      0.0012
     67  CZ2       14.6230   65.6010   65.8560 C.ar  156  TRP156      0.0191
     68  CZ3       16.3710   65.8340   64.1950 C.ar  156  TRP156      0.0001
     69  CH2       15.8620   66.0560   65.4870 C.ar  156  TRP156      0.0015
     70  N         19.7510   57.8850   60.4010 N.3   183  ARG183     -0.1231
     71  CA        21.1140   58.4210   60.3770 C.3   183  ARG183      0.1694
     72  C         21.7680   58.2850   61.7240 C.2   183  ARG183      0.2592
     73  O         22.9800   58.3920   61.8290 O.2   183  ARG183     -0.2718
     74  CB        21.1050   59.9140   60.0380 C.3   183  ARG183      0.0321
     75  CG        20.7840   60.8040   61.2310 C.3   183  ARG183      0.0489
     76  CD        20.5440   62.2580   60.8470 C.3   183  ARG183      0.2205
     77  NE        20.3890   63.0950   62.0400 N.pl3 183  ARG183     -0.0865
     78  CZ        20.0000   64.3700   62.0460 C.cat 183  ARG183      0.5346
     79  NH1       19.7200   65.0140   60.9160 N.pl3 183  ARG183      0.1354
     80  NH2       19.8900   65.0100   63.2050 N.pl3 183  ARG183      0.1354
     81  N         20.9580   58.1150   62.7640 N.am  184  ASP184     -0.1960
     82  CA        21.4420   58.2930   64.1260 C.3   184  ASP184      0.1840
     83  C         20.3640   58.0140   65.1870 C.2   184  ASP184      0.2622
     84  O         19.2140   58.4150   65.0230 O.2   184  ASP184     -0.2715
     85  CB        21.9590   59.7370   64.2770 C.3   184  ASP184      0.1450
     86  CG        22.5740   60.0220   65.6400 C.2   184  ASP184      0.3671
     87  OD1       23.1740   59.1070   66.2500 O.co2 184  ASP184     -0.2456
     88  OD2       22.4700   61.1850   66.0860 O.co2 184  ASP184     -0.2456
     89  N         20.7500   57.3400   66.2740 N.am  185  TYR185     -0.1960
     90  CA        19.9850   57.3970   67.5280 C.3   185  TYR185      0.1771
     91  C         18.5810   56.8650   67.2470 C.2   185  TYR185      0.2619
     92  O         18.4580   55.8090   66.6240 O.2   185  TYR185     -0.2715
     93  CB        20.0210   58.8500   68.0640 C.3   185  TYR185      0.0574
     94  CG        19.4710   59.1360   69.4630 C.ar  185  TYR185     -0.0198
     95  CD1       19.9950   58.5180   70.5850 C.ar  185  TYR185     -0.0009
     96  CD2       18.4600   60.0810   69.6500 C.ar  185  TYR185     -0.0009
     97  CE1       19.5070   58.7950   71.8490 C.ar  185  TYR185      0.0417
     98  CE2       17.9690   60.3670   70.9030 C.ar  185  TYR185      0.0417
     99  CZ        18.4960   59.7220   72.0010 C.ar  185  TYR185      0.1957
    100  OH        18.0090   60.0060   73.2540 O.3   185  TYR185     -0.2866
    101  N         17.5450   57.6170   67.6150 N.am  186  HIS186     -0.1973
    102  CA        16.1770   57.1230   67.6250 C.3   186  HIS186      0.1656
    103  C         15.6580   56.8650   66.2220 C.2   186  HIS186      0.2291
    104  O         16.0700   57.5100   65.2540 O.2   186  HIS186     -0.2864
    105  CB        15.2260   58.1110   68.3260 C.3   186  HIS186      0.0771
    106  CG        15.3800   58.1700   69.8150 C.ar  186  HIS186      0.0820
    107  ND1       14.6580   59.0490   70.5940 N.ar  186  HIS186     -0.2267
    108  CD2       16.1720   57.4750   70.6690 C.ar  186  HIS186      0.1154
    109  CE1       14.9860   58.8820   71.8640 C.ar  186  HIS186      0.1986
    110  NE2       15.9080   57.9370   71.9370 N.ar  186  HIS186     -0.2212
@<TRIPOS>BOND
     1    51    50    2
     2    50    49    1
     3    56    57    1
     4    28    26   ar
     5    28    29   ar
     6    59    58    2
     7     9     7   am
     8    52    49    1
     9    52    53    1
    10    74    71    1
    11    74    75    1
    12    49    48    1
    13    26    23   ar
    14    19    18    2
    15    29    27   ar
    16    58    57    1
    17    18    17    1
    18    71    70    1
    19    71    72    1
    20    57    60    1
    21    48    42   am
    22    76    75    1
    23    76    77    1
    24    79    78    1
    25     7     8    2
    26     7     6    1
    27    53    55   ar
    28    53    54   ar
    29    40    41    1
    30    23    25   ar
    31    23    21   ar
    32    60    61    1
    33    42    41    1
    34    42    43    2
    35    27    25   ar
    36    72    73    2
    37    72    81   am
    38    17    20    1
    39    17    16    1
    40    77    78    2
    41    78    80    1
    42    41    44    1
    43    20    21    1
    44     6     5    1
    45    25    24   ar
    46     4     3    2
    47    21    22   ar
    48    13    12    2
    49    81    82    1
    50    16    12   am
    51    61    63   ar
    52    61    62   ar
    53    12    11    1
    54     1     2    1
    55    66    63   ar
    56    66    68   ar
    57     3     2    1
    58     3    10   am
    59     5     2    1
    60    46    45   ar
    61    24    22   ar
    62    63    65   ar
    63    44    45    1
    64    62    64   ar
    65    82    85    1
    66    82    83    1
    67    11    10    1
    68    11    14    1
    69    68    69   ar
    70    45    47   ar
    71    85    86    1
    72    65    64   ar
    73    65    67   ar
    74    84    83    2
    75    83    89   am
    76   104   103    2
    77    14    15    1
    78    69    67   ar
    79    86    88   ar
    80    86    87   ar
    81    15    39    1
    82   103   102    1
    83    89    90    1
    84    92    91    2
    85    91    90    1
    86    91   101   am
    87    90    93    1
    88   101   102    1
    89   102   105    1
    90    39    38    1
    91    35    36    1
    92    35    38    1
    93    35    34    1
    94    93    94    1
    95    36    37    2
    96   105   106    1
    97    34    32   am
    98    94    96   ar
    99    94    95   ar
   100    96    98   ar
   101   106   107   ar
   102   106   108   ar
   103    32    31    1
   104    32    33    2
   105    31    30    1
   106    95    97   ar
   107   107   109   ar
   108   108   110   ar
   109    98    99   ar
   110    97    99   ar
   111   109   110   ar
   112    99   100    1
