@<TRIPOS>MOLECULE
tmp/4cp5A00.pdb
 152 142 0 0 0
SMALL
GASTEIGER

@<TRIPOS>ATOM
      1  N         36.8960  -20.6350   64.5030 N.3    12  LYS12      -0.1245
      2  CA        35.5030  -20.3720   64.1900 C.3    12  LYS12       0.1561
      3  C         34.8530  -21.5260   63.4190 C.2    12  LYS12       0.2260
      4  O         35.5910  -22.3970   62.9420 O.2    12  LYS12      -0.2867
      5  CB        35.3860  -19.0270   63.4540 C.3    12  LYS12       0.0271
      6  CG        35.8130  -17.8190   64.2970 C.3    12  LYS12       0.0035
      7  CD        36.0450  -16.6440   63.3830 C.3    12  LYS12       0.0206
      8  CE        36.2280  -15.3590   64.1070 C.3    12  LYS12       0.1093
      9  NZ        35.8100  -14.2230   63.2510 N.3    12  LYS12      -0.1314
     10  N         31.0740  -12.3330   74.2110 N.3    51  HIS51      -0.1226
     11  CA        32.3700  -12.4280   73.5280 C.3    51  HIS51       0.1752
     12  C         32.5740  -11.2530   72.5750 C.2    51  HIS51       0.2596
     13  O         33.6360  -10.6130   72.6040 O.2    51  HIS51      -0.2718
     14  CB        32.4950  -13.7770   72.7710 C.3    51  HIS51       0.0759
     15  CG        33.7800  -13.9480   72.0190 C.ar   51  HIS51       0.0818
     16  ND1       34.9640  -14.2100   72.6820 N.ar   51  HIS51      -0.2268
     17  CD2       34.0250  -13.8640   70.6900 C.ar   51  HIS51       0.1154
     18  CE1       35.8870  -14.2890   71.7420 C.ar   51  HIS51       0.1986
     19  NE2       35.3740  -14.0640   70.5310 N.ar   51  HIS51      -0.2212
     20  N         31.5510  -10.9600   71.7540 N.am   52  TYR52      -0.1976
     21  CA        31.5730   -9.8910   70.7550 C.3    52  TYR52       0.1639
     22  C         31.0750   -8.5200   71.2710 C.2    52  TYR52       0.2290
     23  O         30.8280   -7.6370   70.4440 O.2    52  TYR52      -0.2864
     24  CB        30.7850  -10.3380   69.5090 C.3    52  TYR52       0.0560
     25  CG        31.5170  -11.3440   68.6430 C.ar   52  TYR52      -0.0198
     26  CD1       32.7270  -11.0150   68.0280 C.ar   52  TYR52      -0.0009
     27  CD2       30.9670  -12.5940   68.3730 C.ar   52  TYR52      -0.0009
     28  CE1       33.3960  -11.9210   67.2080 C.ar   52  TYR52       0.0417
     29  CE2       31.6260  -13.5100   67.5500 C.ar   52  TYR52       0.0417
     30  CZ        32.8440  -13.1670   66.9720 C.ar   52  TYR52       0.1957
     31  OH        33.5250  -14.0360   66.1570 O.3    52  TYR52      -0.2866
     32  N         32.3960   -5.7100   72.4510 N.3    54  GLU54      -0.1182
     33  CA        33.0370   -4.4900   71.9350 C.3    54  GLU54       0.1915
     34  C         32.4070   -3.9610   70.6310 C.2    54  GLU54       0.2634
     35  O         32.5500   -2.7680   70.3250 O.2    54  GLU54      -0.2714
     36  CB        34.5620   -4.6540   71.7860 C.2    54  GLU54       0.0085
     37  CG        35.0060   -5.7030   70.7700 C.2    54  GLU54       0.0835
     38  CD        36.5020   -5.9710   70.7020 C.2    54  GLU54       0.3877
     39  OE1       37.2810   -4.9900   70.7160 O.co2  54  GLU54      -0.2406
     40  OE2       36.8980   -7.1580   70.6300 O.co2  54  GLU54      -0.2406
     41  N         31.6850   -4.8310   69.8950 N.am   55  HIS55      -0.1973
     42  CA        31.0360   -4.4530   68.6370 C.3    55  HIS55       0.1656
     43  C         29.5040   -4.4280   68.7500 C.2    55  HIS55       0.2291
     44  O         28.8460   -4.2760   67.7230 O.2    55  HIS55      -0.2864
     45  CB        31.4590   -5.4000   67.4890 C.3    55  HIS55       0.0771
     46  CG        32.9320   -5.6170   67.3620 C.ar   55  HIS55       0.0820
     47  ND1       33.7870   -4.5940   66.9720 N.ar   55  HIS55      -0.2267
     48  CD2       33.6550   -6.7470   67.5420 C.ar   55  HIS55       0.1154
     49  CE1       34.9990   -5.1270   66.9550 C.ar   55  HIS55       0.1986
     50  NE2       34.9700   -6.4200   67.2830 N.ar   55  HIS55      -0.2212
     51  N         27.6770   -1.9720   66.5360 N.3    58  ARG58      -0.1245
     52  CA        28.0300   -2.0190   65.1140 C.3    58  ARG58       0.1563
     53  C         26.9880   -2.8090   64.3130 C.2    58  ARG58       0.2260
     54  O         26.3620   -3.7160   64.8680 O.2    58  ARG58      -0.2867
     55  CB        29.4500   -2.6050   64.9220 C.3    58  ARG58       0.0307
     56  CG        30.5820   -1.9490   65.7450 C.3    58  ARG58       0.0489
     57  CD        31.1850   -0.6940   65.1250 C.3    58  ARG58       0.2205
     58  NE        32.0180   -0.9770   63.9510 N.pl3  58  ARG58      -0.0865
     59  CZ        33.3210   -1.2530   63.9910 C.cat  58  ARG58       0.5346
     60  NH1       33.9580   -1.3230   65.1540 N.pl3  58  ARG58       0.1354
     61  NH2       33.9910   -1.4920   62.8680 N.pl3  58  ARG58       0.1354
     62  N         27.2340   -5.1140   61.9740 N.3    60  PHE60      -0.1241
     63  CA        27.6750   -6.4910   61.7430 C.3    60  PHE60       0.1605
     64  C         27.6400   -7.3960   63.0010 C.2    60  PHE60       0.2264
     65  O         27.8530   -8.6070   62.8580 O.2    60  PHE60      -0.2867
     66  CB        29.0710   -6.5070   61.0870 C.3    60  PHE60       0.0534
     67  CG        30.1460   -5.7620   61.8380 C.ar   60  PHE60      -0.0203
     68  CD1       30.8010   -6.3530   62.9140 C.ar   60  PHE60      -0.0042
     69  CD2       30.5320   -4.4890   61.4490 C.ar   60  PHE60      -0.0042
     70  CE1       31.7640   -5.6580   63.6320 C.ar   60  PHE60      -0.0003
     71  CE2       31.5270   -3.8080   62.1460 C.ar   60  PHE60      -0.0003
     72  CZ        32.1370   -4.4010   63.2330 C.ar   60  PHE60      -0.0000
     73  N         27.9840  -11.6400   63.3070 N.3    64  LEU64      -0.1245
     74  CA        29.1150  -12.2740   64.0120 C.3    64  LEU64       0.1561
     75  C         28.5970  -13.2880   65.0200 C.2    64  LEU64       0.2260
     76  O         29.1520  -14.3770   65.1610 O.2    64  LEU64      -0.2867
     77  CB        29.9990  -11.2480   64.7520 C.3    64  LEU64       0.0270
     78  CG        30.8940  -10.3310   63.9070 C.3    64  LEU64       0.0019
     79  CD1       31.6180   -9.3630   64.8000 C.3    64  LEU64       0.0001
     80  CD2       31.9220  -11.1200   63.0840 C.3    64  LEU64       0.0001
     81  N         48.0940  -12.6850   67.2660 N.3    88  ARG88      -0.1245
     82  CA        47.4400  -11.8080   66.3150 C.3    88  ARG88       0.1563
     83  C         48.1970  -11.6430   64.9970 C.2    88  ARG88       0.2260
     84  O         47.5790  -11.6740   63.9180 O.2    88  ARG88      -0.2867
     85  CB        47.1580  -10.4410   66.9640 C.3    88  ARG88       0.0307
     86  CG        45.9200  -10.5060   67.8680 C.3    88  ARG88       0.0489
     87  CD        45.5460   -9.1400   68.3650 C.3    88  ARG88       0.2205
     88  NE        44.8490   -8.3500   67.3530 N.pl3  88  ARG88      -0.0865
     89  CZ        43.5420   -8.4170   67.1080 C.cat  88  ARG88       0.5346
     90  NH1       42.7750   -9.2720   67.7760 N.pl3  88  ARG88       0.1354
     91  NH2       42.9950   -7.6390   66.1820 N.pl3  88  ARG88       0.1354
     92  N         47.8930  -14.7840   63.0140 N.3    91  ILE91      -0.1245
     93  CA        46.5710  -14.8500   62.3760 C.3    91  ILE91       0.1561
     94  C         46.5440  -14.0100   61.0760 C.2    91  ILE91       0.2260
     95  O         46.0480  -14.4720   60.0570 O.2    91  ILE91      -0.2867
     96  CB        45.4730  -14.4230   63.3780 C.3    91  ILE91       0.0252
     97  CG1       45.3070  -15.4530   64.5090 C.3    91  ILE91       0.0019
     98  CG2       44.1350  -14.1560   62.6990 C.3    91  ILE91       0.0019
     99  CD1       44.4260  -14.9520   65.6970 C.3    91  ILE91       0.0001
    100  N         42.2940   -8.2650   59.5510 N.3    94  THR94      -0.1218
    101  CA        40.8460   -8.4590   59.4040 C.3    94  THR94       0.1862
    102  C         40.4820   -9.0840   58.0280 C.2    94  THR94       0.2287
    103  O         39.7540  -10.0760   57.9850 O.2    94  THR94      -0.2866
    104  CB        40.1210   -7.1260   59.6150 C.3    94  THR94       0.1770
    105  OG1       40.5540   -6.5360   60.8340 O.3    94  THR94      -0.2211
    106  CG2       38.6030   -7.2770   59.5910 C.3    94  THR94       0.0375
    107  N         45.2590  -16.5090   58.1480 N.3   105  ARG105     -0.1245
    108  CA        44.3020  -15.9020   57.1920 C.3   105  ARG105      0.1563
    109  C         44.9470  -15.6720   55.8280 C.2   105  ARG105      0.2260
    110  O         44.2660  -15.7990   54.8300 O.2   105  ARG105     -0.2867
    111  CB        43.6840  -14.6020   57.7270 C.3   105  ARG105      0.0307
    112  CG        42.8550  -14.7950   59.0010 C.3   105  ARG105      0.0489
    113  CD        42.3450  -13.4520   59.4820 C.3   105  ARG105      0.2205
    114  NE        41.4840  -13.5780   60.6510 N.pl3 105  ARG105     -0.0865
    115  CZ        41.1610  -12.5730   61.4570 C.cat 105  ARG105      0.5346
    116  NH1       41.6280  -11.3560   61.2310 N.pl3 105  ARG105      0.1354
    117  NH2       40.3850  -12.7840   62.5070 N.pl3 105  ARG105      0.1354
    118  N         36.2390  -11.7260   54.8410 N.3   112  VAL112     -0.1231
    119  CA        36.1920  -11.1380   56.1790 C.3   112  VAL112      0.1692
    120  C         35.2280  -11.9360   57.0790 C.2   112  VAL112      0.2592
    121  O         35.5710  -12.1850   58.2140 O.2   112  VAL112     -0.2718
    122  CB        35.8310   -9.6250   56.1130 C.3   112  VAL112      0.0266
    123  CG1       35.5340   -9.0600   57.5000 C.3   112  VAL112      0.0020
    124  CG2       36.9370   -8.8210   55.4360 C.3   112  VAL112      0.0020
    125  N         34.0660  -12.3360   56.5490 N.am  113  GLY113     -0.1957
    126  CA        33.0590  -13.1220   57.2670 C.3   113  GLY113      0.1869
    127  C         33.4240  -14.5800   57.5220 C.2   113  GLY113      0.2309
    128  O         32.8530  -15.2320   58.4070 O.2   113  GLY113     -0.2863
    129  N         36.8310  -15.7900   58.1900 N.3   115  ASN115     -0.1240
    130  CA        38.2350  -15.5330   58.4580 C.3   115  ASN115      0.1653
    131  C         38.8740  -16.4870   59.4900 C.2   115  ASN115      0.2266
    132  O         39.8760  -16.1410   60.1400 O.2   115  ASN115     -0.2867
    133  CB        38.4710  -14.0530   58.7900 C.3   115  ASN115      0.1155
    134  CG        37.8960  -13.5260   60.0740 C.2   115  ASN115      0.2627
    135  OD1       37.3190  -14.2620   60.9000 O.2   115  ASN115     -0.2716
    136  ND2       38.0630  -12.2020   60.2580 N.am  115  ASN115     -0.0877
    137  N         39.8580  -16.2520   65.4140 N.3   118  GLY118     -0.1210
    138  CA        39.8220  -14.9770   66.1170 C.3   118  GLY118      0.1956
    139  C         40.6640  -15.0640   67.3740 C.2   118  GLY118      0.2612
    140  O         40.6920  -16.1020   68.0230 O.2   118  GLY118     -0.2717
    141  N         41.3770  -13.9920   67.6870 N.am  119  GLY119     -0.1956
    142  CA        42.2060  -13.9070   68.8820 C.3   119  GLY119      0.1869
    143  C         41.9590  -12.6390   69.6660 C.2   119  GLY119      0.2309
    144  O         41.4940  -11.6440   69.0870 O.2   119  GLY119     -0.2863
    145  N         42.4680   -9.0530   71.4030 N.3   121  ASP121     -0.1239
    146  CA        43.2070   -7.8840   70.9170 C.3   121  ASP121      0.1674
    147  C         44.1440   -7.2290   71.9770 C.2   121  ASP121      0.2266
    148  O         45.0110   -6.4070   71.6180 O.2   121  ASP121     -0.2867
    149  CB        42.2820   -6.8380   70.2680 C.3   121  ASP121      0.1410
    150  CG        41.2040   -6.1960   71.1380 C.2   121  ASP121      0.3668
    151  OD1       41.3420   -6.2160   72.3980 O.co2 121  ASP121     -0.2456
    152  OD2       40.2380   -5.6600   70.5680 O.co2 121  ASP121     -0.2456
@<TRIPOS>BOND
     1   110   109    2
     2   118   119    1
     3   124   122    1
     4   109   108    1
     5   122   119    1
     6   122   123    1
     7   119   120    1
     8   125   120   am
     9   125   126    1
    10   120   121    2
    11   108   111    1
    12   108   107    1
    13   126   127    1
    14   127   128    2
    15   111   112    1
    16   103   102    2
    17   102   101    1
    18   129   130    1
    19   130   133    1
    20   130   131    1
    21   133   134    1
    22   112   113    1
    23   101   100    1
    24   101   104    1
    25   113   114    1
    26   131   132    2
    27   106   104    1
    28   104   105    1
    29    95    94    2
    30   134   136   am
    31   134   135    2
    32   114   115    2
    33    94    93    1
    34    66    63    1
    35    66    67    1
    36   116   115    1
    37    69    67   ar
    38    69    71   ar
    39   115   117    1
    40    63    62    1
    41    63    64    1
    42    67    68   ar
    43    71    72   ar
    44    93    92    1
    45    93    96    1
    46    98    96    1
    47    65    64    2
    48    61    59    1
    49    68    70   ar
    50     4     3    2
    51    80    78    1
    52    72    70   ar
    53     9     8    1
    54    73    74    1
    55    96    97    1
    56     7     8    1
    57     7     6    1
    58     3     2    1
    59     5     2    1
    60     5     6    1
    61    78    77    1
    62    78    79    1
    63    84    83    2
    64    58    59    2
    65    58    57    1
    66    59    60    1
    67    74    77    1
    68    74    75    1
    69     2     1    1
    70    53    54    2
    71    53    52    1
    72    97    99    1
    73    55    52    1
    74    55    56    1
    75    83    82    1
    76    75    76    2
    77    52    51    1
    78    57    56    1
    79   137   138    1
    80   138   139    1
    81    31    30    1
    82    91    89    1
    83    82    85    1
    84    82    81    1
    85    49    47   ar
    86    49    50   ar
    87    85    86    1
    88    30    28   ar
    89    30    29   ar
    90    47    46   ar
    91    89    88    2
    92    89    90    1
    93    28    26   ar
    94    50    48   ar
    95    88    87    1
    96    46    45    1
    97    46    48   ar
    98   139   141   am
    99   139   140    2
   100    45    42    1
   101    29    27   ar
   102   141   142    1
   103    44    43    2
   104    86    87    1
   105    26    25   ar
   106    27    25   ar
   107    42    43    1
   108    42    41    1
   109    25    24    1
   110   142   143    1
   111   144   143    2
   112    24    21    1
   113    41    34   am
   114   149   146    1
   115   149   150    1
   116    35    34    2
   117    23    22    2
   118    19    17   ar
   119    19    18   ar
   120   152   150   ar
   121    40    38   ar
   122    34    33    1
   123    17    15   ar
   124    38    39   ar
   125    38    37    1
   126    21    22    1
   127    21    20    1
   128    37    36    2
   129   146   145    1
   130   146   147    1
   131   150   151   ar
   132   148   147    2
   133    18    16   ar
   134    20    12   am
   135    36    33    1
   136    33    32    1
   137    15    16   ar
   138    15    14    1
   139    12    13    2
   140    12    11    1
   141    14    11    1
   142    11    10    1
