@<TRIPOS>MOLECULE
tmp/4cp8A00.pdb
 77 71 0 0 0
SMALL
GASTEIGER

@<TRIPOS>ATOM
      1  N          8.9950   -6.6920    1.7780 N.3   122  ALA122     -0.1245
      2  CA        10.2960   -6.7400    2.4140 C.3   122  ALA122      0.1562
      3  C         10.4680   -7.9500    3.3040 C.2   122  ALA122      0.2260
      4  O         11.0760   -7.8720    4.3650 O.2   122  ALA122     -0.2867
      5  CB        10.5330   -5.4560    3.1900 C.3   122  ALA122      0.0290
      6  N         12.0150  -11.4370    3.2590 N.3   124  GLY124     -0.1210
      7  CA        12.9790  -12.2180    2.5070 C.3   124  GLY124      0.1956
      8  C         14.3640  -11.5760    2.5310 C.2   124  GLY124      0.2611
      9  O         14.5000  -10.3670    2.6550 O.2   124  GLY124     -0.2717
     10  N         15.3980  -12.3870    2.3820 N.am  125  LEU125     -0.1979
     11  CA        16.7570  -11.8650    2.3270 C.3   125  LEU125      0.1596
     12  C         17.4620  -12.2640    1.0300 C.2   125  LEU125      0.2287
     13  O         18.6890  -12.2280    0.9620 O.2   125  LEU125     -0.2864
     14  CB        17.5620  -12.3370    3.5540 C.3   125  LEU125      0.0297
     15  CG        17.1350  -11.7710    4.9120 C.3   125  LEU125      0.0022
     16  CD1       17.8490  -12.4870    6.0630 C.3   125  LEU125      0.0001
     17  CD2       17.4220  -10.2750    4.9910 C.3   125  LEU125      0.0001
     18  N         15.5290   -0.8320    2.3080 N.3   167  THR167     -0.1218
     19  CA        15.0660   -0.8700    3.6860 C.3   167  THR167      0.1862
     20  C         15.6870   -2.0700    4.3500 C.2   167  THR167      0.2287
     21  O         16.1030   -3.0150    3.6820 O.2   167  THR167     -0.2866
     22  CB        13.5380   -0.9890    3.8100 C.3   167  THR167      0.1770
     23  OG1       13.1030   -2.2940    3.4140 O.3   167  THR167     -0.2211
     24  CG2       12.8590    0.0670    2.9730 C.3   167  THR167      0.0375
     25  N         15.0520   -4.5180    7.8730 N.3   169  THR169     -0.1203
     26  CA        14.3880   -4.9640    9.0660 C.3   169  THR169      0.1994
     27  C         15.1760   -6.1290    9.6810 C.2   169  THR169      0.2618
     28  O         15.6740   -6.0390   10.7980 O.2   169  THR169     -0.2717
     29  CB        12.9600   -5.4120    8.7390 C.3   169  THR169      0.1784
     30  OG1       12.3450   -4.4040    7.9330 O.3   169  THR169     -0.2211
     31  CG2       12.1430   -5.6190   10.0130 C.3   169  THR169      0.0376
     32  N         15.3210   -7.2040    8.9250 N.am  170  ALA170     -0.1965
     33  CA        16.0890   -8.3710    9.3470 C.3   170  ALA170      0.1728
     34  C         17.5280   -8.2960    8.8450 C.2   170  ALA170      0.2617
     35  O         18.4320   -8.8060    9.4770 O.2   170  ALA170     -0.2715
     36  CB        15.4380   -9.6230    8.7950 C.3   170  ALA170      0.0334
     37  N         17.7280   -7.6990    7.6770 N.am  171  GLY171     -0.1940
     38  CA        19.0720   -7.5360    7.1080 C.3   171  GLY171      0.2014
     39  C         19.0720   -7.1280    5.6410 C.2   171  GLY171      0.2639
     40  O         20.0690   -7.2720    4.9530 O.2   171  GLY171     -0.2714
     41  N         17.9430   -6.5830    5.1970 N.am  172  SER172     -0.1949
     42  CA        17.6810   -6.3710    3.8110 C.3   172  SER172      0.1924
     43  C         18.4720   -5.2210    3.2150 C.2   172  SER172      0.2314
     44  O         18.4830   -5.0500    2.0140 O.2   172  SER172     -0.2863
     45  CB        16.2020   -6.1280    3.6220 C.3   172  SER172      0.2116
     46  OG        15.4490   -7.2550    4.0530 O.3   172  SER172     -0.2180
     47  N         11.5690  -14.1500   13.4730 N.3   303  TYR303     -0.1241
     48  CA        10.6660  -15.0340   12.7420 C.3   303  TYR303      0.1605
     49  C         10.0900  -16.1730   13.5570 C.2   303  TYR303      0.2264
     50  O          9.0000  -16.6410   13.2600 O.2   303  TYR303     -0.2867
     51  CB        11.3350  -15.5410   11.4440 C.3   303  TYR303      0.0534
     52  CG        11.2230  -14.4970   10.3490 C.ar  303  TYR303     -0.0201
     53  CD1       10.0150  -14.3190    9.6660 C.ar  303  TYR303     -0.0009
     54  CD2       12.2950  -13.6610   10.0260 C.ar  303  TYR303     -0.0009
     55  CE1        9.8850  -13.3780    8.6730 C.ar  303  TYR303      0.0417
     56  CE2       12.1690  -12.7000    9.0250 C.ar  303  TYR303      0.0417
     57  CZ        10.9560  -12.5600    8.3690 C.ar  303  TYR303      0.1957
     58  OH        10.8150  -11.6420    7.3690 O.3   303  TYR303     -0.2866
     59  N          4.2390   -7.6510   10.6970 N.3   311  ARG311     -0.1245
     60  CA         4.0360   -7.7360    9.2410 C.3   311  ARG311      0.1563
     61  C          2.5750   -7.9420    8.9350 C.2   311  ARG311      0.2260
     62  O          2.0070   -7.2790    8.0800 O.2   311  ARG311     -0.2867
     63  CB         4.8630   -8.8760    8.6290 C.3   311  ARG311      0.0307
     64  CG         6.3660   -8.7260    8.8310 C.3   311  ARG311      0.0489
     65  CD         7.1490   -9.9540    8.3860 C.3   311  ARG311      0.2205
     66  NE         8.5290   -9.9080    8.8850 N.pl3 311  ARG311     -0.0865
     67  CZ         9.5440   -9.2670    8.3160 C.cat 311  ARG311      0.5346
     68  NH1        9.3880   -8.6440    7.1520 N.pl3 311  ARG311      0.1354
     69  NH2       10.7310   -9.2900    8.8980 N.pl3 311  ARG311      0.1354
     70  N         16.8500  -19.2200    3.0370 N.3   391  ASN391     -0.1240
     71  CA        16.6780  -17.8260    3.3960 C.3   391  ASN391      0.1653
     72  C         16.9850  -17.5380    4.8740 C.2   391  ASN391      0.2266
     73  O         17.6550  -16.5610    5.1720 O.2   391  ASN391     -0.2867
     74  CB        15.2690  -17.3390    3.0790 C.3   391  ASN391      0.1155
     75  CG        15.1210  -15.8540    3.2870 C.2   391  ASN391      0.2627
     76  OD1       15.5770  -15.0600    2.4580 O.2   391  ASN391     -0.2716
     77  ND2       14.5300  -15.4590    4.4140 N.am  391  ASN391     -0.0877
@<TRIPOS>BOND
     1    13    12    2
     2    12    11    1
     3     1     2    1
     4    44    43    2
     5    18    19    1
     6    11    10    1
     7    11    14    1
     8    10     8   am
     9     2     5    1
    10     2     3    1
    11    76    75    2
    12     7     8    1
    13     7     6    1
    14     8     9    2
    15    24    22    1
    16    70    71    1
    17    74    75    1
    18    74    71    1
    19    43    42    1
    20    75    77   am
    21     3     4    2
    22    71    72    1
    23    23    22    1
    24    14    15    1
    25    45    42    1
    26    45    46    1
    27    21    20    2
    28    19    22    1
    29    19    20    1
    30    42    41    1
    31    72    73    2
    32    15    17    1
    33    15    16    1
    34    40    39    2
    35    41    39   am
    36    39    38    1
    37    38    37    1
    38    68    67    1
    39    58    57    1
    40    37    34   am
    41    25    26    1
    42    30    29    1
    43    62    61    2
    44    67    66    2
    45    67    69    1
    46    57    55   ar
    47    57    56   ar
    48    65    64    1
    49    65    66    1
    50    63    64    1
    51    63    60    1
    52    55    53   ar
    53    29    26    1
    54    29    31    1
    55    36    33    1
    56    34    33    1
    57    34    35    2
    58    32    33    1
    59    32    27   am
    60    61    60    1
    61    56    54   ar
    62    26    27    1
    63    60    59    1
    64    53    52   ar
    65    27    28    2
    66    54    52   ar
    67    52    51    1
    68    51    48    1
    69    48    47    1
    70    48    49    1
    71    50    49    2
