@<TRIPOS>MOLECULE
tmp/4cp9D01.pdb
 97 96 0 0 0
SMALL
GASTEIGER

@<TRIPOS>ATOM
      1  N         33.8420   25.8000  -35.6850 N.3    36  TYR36      -0.1227
      2  CA        35.1220   25.0900  -35.8080 C.3    36  TYR36       0.1736
      3  C         35.5400   24.9640  -37.3030 C.2    36  TYR36       0.2596
      4  O         36.5260   24.3140  -37.6090 O.2    36  TYR36      -0.2718
      5  CB        35.0570   23.6880  -35.1450 C.3    36  TYR36       0.0548
      6  CG        33.9010   22.8270  -35.6010 C.ar   36  TYR36      -0.0200
      7  CD1       34.0190   22.0150  -36.7120 C.ar   36  TYR36      -0.0009
      8  CD2       32.6640   22.8680  -34.9700 C.ar   36  TYR36      -0.0009
      9  CE1       32.9660   21.2600  -37.1590 C.ar   36  TYR36       0.0417
     10  CE2       31.5790   22.1090  -35.4320 C.ar   36  TYR36       0.0417
     11  CZ        31.7420   21.3130  -36.5210 C.ar   36  TYR36       0.1957
     12  OH        30.7250   20.5510  -37.0180 O.3    36  TYR36      -0.2866
     13  N         34.8320   25.6290  -38.2020 N.am   37  GLY37      -0.1943
     14  CA        35.1790   25.5970  -39.6790 C.3    37  GLY37       0.1998
     15  C         33.9800   25.7550  -40.5920 C.2    37  GLY37       0.2480
     16  O         34.0510   26.5490  -41.5280 O.2    37  GLY37      -0.2729
     17  N         32.8850   25.0180  -40.3360 N.am   38  PRO38      -0.2726
     18  CA        31.6970   25.1540  -41.1960 C.3    38  PRO38       0.1402
     19  C         31.1140   26.5930  -41.2330 C.2    38  PRO38       0.2269
     20  O         31.3490   27.3820  -40.3080 O.2    38  PRO38      -0.2865
     21  CB        30.6960   24.1990  -40.5250 C.3    38  PRO38       0.0296
     22  CG        31.5730   23.1070  -39.9720 C.3    38  PRO38       0.0237
     23  CD        32.7590   23.8430  -39.4220 C.3    38  PRO38       0.0939
     24  N         28.0060   27.1720  -40.8810 N.3    40  GLN40      -0.1245
     25  CA        27.0320   27.0920  -39.7580 C.3    40  GLN40       0.1566
     26  C         27.7590   27.3990  -38.4360 C.2    40  GLN40       0.2260
     27  O         28.9630   27.2500  -38.3340 O.2    40  GLN40      -0.2867
     28  CB        26.4570   25.6970  -39.6330 C.3    40  GLN40       0.0367
     29  CG        25.6540   25.2370  -40.8200 C.3    40  GLN40       0.0905
     30  CD        24.7270   24.0970  -40.4350 C.2    40  GLN40       0.2608
     31  OE1       25.0090   23.3580  -39.4770 O.2    40  GLN40      -0.2717
     32  NE2       23.6140   23.9770  -41.1260 N.am   40  GLN40      -0.0878
     33  N         27.4010   27.2090  -33.8720 N.3    42  TRP42      -0.1241
     34  CA        26.8360   26.5340  -32.7080 C.3    42  TRP42       0.1605
     35  C         27.0620   27.3850  -31.4520 C.2    42  TRP42       0.2264
     36  O         27.9850   28.1840  -31.3730 O.2    42  TRP42      -0.2867
     37  CB        27.4660   25.1470  -32.4900 C.3    42  TRP42       0.0550
     38  CG        27.1260   24.1930  -33.6250 C.ar   42  TRP42       0.0003
     39  CD1       26.1000   23.2870  -33.6890 C.ar   42  TRP42       0.0946
     40  CD2       27.8070   24.1080  -34.8850 C.ar   42  TRP42       0.0152
     41  NE1       26.1240   22.6300  -34.9220 N.ar   42  TRP42      -0.2442
     42  CE2       27.1620   23.1350  -35.6530 C.ar   42  TRP42       0.0810
     43  CE3       28.9030   24.7640  -35.4190 C.ar   42  TRP42       0.0012
     44  CZ2       27.6180   22.7890  -36.9450 C.ar   42  TRP42       0.0191
     45  CZ3       29.3440   24.4330  -36.6530 C.ar   42  TRP42       0.0001
     46  CH2       28.6940   23.4550  -37.4070 C.ar   42  TRP42       0.0015
     47  N         28.6080   21.1340  -31.1360 N.3    47  ASP47      -0.1239
     48  CA        27.8780   20.3860  -32.1680 C.3    47  ASP47       0.1674
     49  C         27.7260   18.9240  -31.7340 C.2    47  ASP47       0.2266
     50  O         28.7020   18.1460  -31.8060 O.2    47  ASP47      -0.2867
     51  CB        28.6510   20.4810  -33.4890 C.3    47  ASP47       0.1410
     52  CG        27.9560   19.7230  -34.6290 C.2    47  ASP47       0.3668
     53  OD1       26.9020   19.1070  -34.3880 O.co2  47  ASP47      -0.2456
     54  OD2       28.4880   19.7480  -35.7580 O.co2  47  ASP47      -0.2456
     55  N         26.4420   16.4730  -33.0980 N.3    49  GLU49      -0.1231
     56  CA        26.4540   15.4550  -34.1410 C.3    49  GLU49       0.1699
     57  C         27.8550   15.1700  -34.5810 C.2    49  GLU49       0.2592
     58  O         28.0400   14.2780  -35.3780 O.2    49  GLU49      -0.2718
     59  CB        25.6290   15.8980  -35.3480 C.3    49  GLU49       0.0402
     60  CG        24.1460   16.1490  -35.0570 C.3    49  GLU49       0.1161
     61  CD        23.2860   14.9100  -35.0190 C.2    49  GLU49       0.3649
     62  OE1       23.6180   13.8910  -35.6640 O.co2  49  GLU49      -0.2457
     63  OE2       22.2410   14.9620  -34.3500 O.co2  49  GLU49      -0.2457
     64  N         28.8390   15.9180  -34.0910 N.am   50  HIS50      -0.1962
     65  CA        30.1630   15.9150  -34.7140 C.3    50  HIS50       0.1772
     66  C         31.0920   14.9160  -34.0180 C.2    50  HIS50       0.2462
     67  O         31.1830   14.8870  -32.8090 O.2    50  HIS50      -0.2730
     68  CB        30.7600   17.3240  -34.6630 C.3    50  HIS50       0.0785
     69  CG        31.9390   17.5140  -35.5450 C.ar   50  HIS50       0.0821
     70  ND1       31.8210   17.7740  -36.8900 N.ar   50  HIS50      -0.2267
     71  CD2       33.2640   17.4800  -35.2840 C.ar   50  HIS50       0.1154
     72  CE1       33.0220   17.8880  -37.4200 C.ar   50  HIS50       0.1986
     73  NE2       33.9170   17.7230  -36.4680 N.ar   50  HIS50      -0.2212
     74  N         31.8040   14.0960  -34.7830 N.am   51  PRO51      -0.2727
     75  CA        32.7070   13.1460  -34.1510 C.3    51  PRO51       0.1402
     76  C         33.8900   13.8350  -33.4980 C.2    51  PRO51       0.2269
     77  O         34.2680   14.9260  -33.8900 O.2    51  PRO51      -0.2865
     78  CB        33.1850   12.2710  -35.3190 C.3    51  PRO51       0.0296
     79  CG        32.9980   13.1090  -36.5170 C.3    51  PRO51       0.0237
     80  CD        31.8410   14.0260  -36.2590 C.3    51  PRO51       0.0939
     81  N         37.5830   13.9180  -33.2150 N.3    53  GLN53      -0.1245
     82  CA        38.7470   13.5080  -33.9920 C.3    53  GLN53       0.1566
     83  C         40.0140   13.9210  -33.2720 C.2    53  GLN53       0.2260
     84  O         40.9940   14.2290  -33.9180 O.2    53  GLN53      -0.2867
     85  CB        38.7230   14.1630  -35.3910 C.3    53  GLN53       0.0367
     86  CG        37.4010   14.0600  -36.1460 C.3    53  GLN53       0.0905
     87  CD        37.4850   14.6770  -37.5450 C.2    53  GLN53       0.2608
     88  OE1       37.7630   15.8760  -37.7220 O.2    53  GLN53      -0.2717
     89  NE2       37.2670   13.8490  -38.5550 N.am   53  GLN53      -0.0878
     90  N         40.9230   27.9160  -38.9330 N.3   106  ASN106     -0.1240
     91  CA        39.7080   28.1860  -39.7070 C.3   106  ASN106      0.1653
     92  C         38.4850   28.4660  -38.8470 C.2   106  ASN106      0.2266
     93  O         37.3650   28.5560  -39.3580 O.2   106  ASN106     -0.2867
     94  CB        39.4020   27.0520  -40.6920 C.3   106  ASN106      0.1155
     95  CG        39.0320   25.7810  -40.0280 C.2   106  ASN106      0.2627
     96  OD1       39.3310   25.5740  -38.8480 O.2   106  ASN106     -0.2716
     97  ND2       38.3960   24.8940  -40.7630 N.am  106  ASN106     -0.0877
@<TRIPOS>BOND
     1    16    15    2
     2    19    18    1
     3    19    20    2
     4    18    21    1
     5    18    17    1
     6    32    30   am
     7    24    25    1
     8    29    30    1
     9    29    28    1
    10    97    95   am
    11    94    95    1
    12    94    91    1
    13    15    17   am
    14    15    14    1
    15    21    22    1
    16    30    31    2
    17    17    23    1
    18    95    96    2
    19    22    23    1
    20    25    28    1
    21    25    26    1
    22    91    90    1
    23    91    92    1
    24    14    13    1
    25    93    92    2
    26    89    87   am
    27    26    27    2
    28    13     3   am
    29    88    87    2
    30     4     3    2
    31    87    86    1
    32    72    70   ar
    33    72    73   ar
    34    46    44   ar
    35    46    45   ar
    36     3     2    1
    37     9     7   ar
    38     9    11   ar
    39    12    11    1
    40    44    42   ar
    41    70    69   ar
    42     7     6   ar
    43    45    43   ar
    44    11    10   ar
    45    79    80    1
    46    79    78    1
    47    73    71   ar
    48    80    74    1
    49    86    85    1
    50     2     1    1
    51     2     5    1
    52    54    52   ar
    53    62    61   ar
    54    42    41   ar
    55    42    40   ar
    56     6     5    1
    57     6     8   ar
    58    69    71   ar
    59    69    68    1
    60    10     8   ar
    61    43    40   ar
    62    85    82    1
    63    58    57    2
    64    59    60    1
    65    59    56    1
    66    78    75    1
    67    60    61    1
    68    61    63   ar
    69    41    39   ar
    70    40    38   ar
    71    74    75    1
    72    74    66   am
    73    65    68    1
    74    65    64    1
    75    65    66    1
    76    52    53   ar
    77    52    51    1
    78    57    56    1
    79    57    64   am
    80    75    76    1
    81    56    55    1
    82    66    67    2
    83    82    83    1
    84    82    81    1
    85    84    83    2
    86    77    76    2
    87    33    34    1
    88    39    38   ar
    89    38    37    1
    90    51    48    1
    91    34    37    1
    92    34    35    1
    93    48    49    1
    94    48    47    1
    95    50    49    2
    96    35    36    2
