@<TRIPOS>MOLECULE
tmp/4cp9D02.pdb
 75 69 0 0 0
SMALL
GASTEIGER

@<TRIPOS>ATOM
      1  N         43.7430   29.1190  -30.0330 N.3    11  GLU11      -0.1231
      2  CA        44.0960   27.7980  -29.5270 C.3    11  GLU11       0.1699
      3  C         44.6540   27.8450  -28.0990 C.2    11  GLU11       0.2592
      4  O         44.5120   26.8960  -27.3490 O.2    11  GLU11      -0.2718
      5  CB        45.1440   27.1580  -30.5020 C.3    11  GLU11       0.0402
      6  CG        45.5140   25.7230  -30.1810 C.3    11  GLU11       0.1161
      7  CD        46.2380   25.0200  -31.3220 C.2    11  GLU11       0.3649
      8  OE1       46.7430   25.7140  -32.2380 O.co2  11  GLU11      -0.2457
      9  OE2       46.2470   23.7720  -31.3170 O.co2  11  GLU11      -0.2457
     10  N         45.2880   28.9470  -27.7390 N.am   12  ALA12      -0.1980
     11  CA        45.9690   29.0690  -26.4370 C.3    12  ALA12       0.1597
     12  C         44.9690   29.3550  -25.3210 C.2    12  ALA12       0.2287
     13  O         45.2820   29.2260  -24.1150 O.2    12  ALA12      -0.2864
     14  CB        47.0140   30.1750  -26.4920 C.3    12  ALA12       0.0319
     15  N         40.5720   18.6470  -27.5570 N.3    56  ILE56      -0.1245
     16  CA        41.2630   18.9470  -26.2940 C.3    56  ILE56       0.1561
     17  C         40.4470   18.5250  -25.0670 C.2    56  ILE56       0.2260
     18  O         41.0350   18.2270  -24.0240 O.2    56  ILE56      -0.2867
     19  CB        41.7070   20.4370  -26.1390 C.3    56  ILE56       0.0252
     20  CG1       40.5200   21.4130  -26.1490 C.3    56  ILE56       0.0019
     21  CG2       42.7090   20.8280  -27.2180 C.3    56  ILE56       0.0019
     22  CD1       40.8790   22.8010  -25.6310 C.3    56  ILE56       0.0001
     23  N         40.4810   25.4630  -18.1680 N.3    67  LYS67      -0.1245
     24  CA        41.4870   24.8960  -17.2870 C.3    67  LYS67       0.1561
     25  C         41.5790   25.7810  -16.0590 C.2    67  LYS67       0.2260
     26  O         41.3480   26.9750  -16.1480 O.2    67  LYS67      -0.2867
     27  CB        42.8570   24.8740  -17.9860 C.3    67  LYS67       0.0271
     28  CG        42.9720   23.8050  -19.0210 C.3    67  LYS67       0.0035
     29  CD        44.3240   23.9350  -19.7230 C.3    67  LYS67       0.0206
     30  CE        44.5850   22.7430  -20.5950 C.3    67  LYS67       0.1093
     31  NZ        45.9630   22.8160  -21.1400 N.3    67  LYS67      -0.1314
     32  N         44.4430   26.7190  -13.3360 N.3    69  GLY69      -0.1210
     33  CA        45.8800   26.5240  -13.2170 C.3    69  GLY69       0.1956
     34  C         46.2990   25.5420  -14.2990 C.2    69  GLY69       0.2612
     35  O         45.8740   25.6640  -15.4570 O.2    69  GLY69      -0.2717
     36  N         47.0860   24.5450  -13.9090 N.am   70  ASN70      -0.1960
     37  CA        47.5880   23.5490  -14.8660 C.3    70  ASN70       0.1819
     38  C         46.7590   22.2610  -14.8940 C.2    70  ASN70       0.2622
     39  O         47.2940   21.1540  -15.0620 O.2    70  ASN70      -0.2715
     40  CB        49.0260   23.2080  -14.5240 C.3    70  ASN70       0.1195
     41  CG        49.9450   24.4030  -14.6320 C.2    70  ASN70       0.2630
     42  OD1       50.5470   24.8210  -13.6390 O.2    70  ASN70      -0.2716
     43  ND2       50.0580   24.9630  -15.8280 N.am   70  ASN70      -0.0877
     44  N         45.4500   22.3950  -14.7330 N.am   71  SER71      -0.1936
     45  CA        44.5760   21.2360  -14.7010 C.3    71  SER71       0.2055
     46  C         44.3310   20.7540  -16.1040 C.2    71  SER71       0.2644
     47  O         44.6360   21.4330  -17.0830 O.2    71  SER71      -0.2714
     48  CB        43.2340   21.5940  -14.0780 C.3    71  SER71       0.2130
     49  OG        42.4780   22.3720  -14.9940 O.3    71  SER71      -0.2179
     50  N         43.7500   19.5680  -16.2030 N.am   72  GLY72      -0.1939
     51  CA        43.1840   19.1350  -17.4430 C.3    72  GLY72       0.2014
     52  C         41.9810   19.9860  -17.8010 C.2    72  GLY72       0.2639
     53  O         41.5330   20.8110  -16.9940 O.2    72  GLY72      -0.2714
     54  N         41.4760   19.8010  -19.0170 N.am   73  THR73      -0.1950
     55  CA        40.3000   20.5480  -19.4400 C.3    73  THR73       0.1897
     56  C         39.0660   20.0400  -18.7130 C.2    73  THR73       0.2313
     57  O         38.9400   18.8380  -18.4170 O.2    73  THR73      -0.2863
     58  CB        40.0910   20.4570  -20.9560 C.3    73  THR73       0.1794
     59  OG1       40.1230   19.0810  -21.3540 O.3    73  THR73      -0.2208
     60  CG2       41.2420   21.1870  -21.6730 C.3    73  THR73       0.0378
     61  N         41.4960   29.6760  -17.2870 N.3    94  THR94      -0.1218
     62  CA        41.6730   29.9000  -18.7620 C.3    94  THR94       0.1862
     63  C         40.4710   29.2960  -19.4910 C.2    94  THR94       0.2287
     64  O         40.1410   28.1230  -19.3130 O.2    94  THR94      -0.2866
     65  CB        42.9740   29.2380  -19.2820 C.3    94  THR94       0.1770
     66  OG1       44.0990   29.7580  -18.5520 O.3    94  THR94      -0.2211
     67  CG2       43.1600   29.4870  -20.7780 C.3    94  THR94       0.0375
     68  N         38.6650   28.1790  -23.1060 N.3    96  ILE96      -0.1245
     69  CA        39.1370   27.7000  -24.4040 C.3    96  ILE96       0.1561
     70  C         37.9860   27.1140  -25.2080 C.2    96  ILE96       0.2260
     71  O         37.1520   26.3920  -24.6970 O.2    96  ILE96      -0.2867
     72  CB        40.2170   26.5840  -24.2710 C.3    96  ILE96       0.0252
     73  CG1       41.1850   26.8680  -23.1220 C.3    96  ILE96       0.0019
     74  CG2       41.0330   26.4950  -25.5620 C.3    96  ILE96       0.0019
     75  CD1       41.7960   25.6330  -22.5150 C.3    96  ILE96       0.0001
@<TRIPOS>BOND
     1     8     7   ar
     2     7     9   ar
     3     7     6    1
     4     5     6    1
     5     5     2    1
     6     1     2    1
     7     2     3    1
     8     3    10   am
     9     3     4    2
    10    10    11    1
    11    15    16    1
    12    21    19    1
    13    14    11    1
    14    11    12    1
    15    16    19    1
    16    16    17    1
    17    20    19    1
    18    20    22    1
    19    74    72    1
    20    12    13    2
    21    70    71    2
    22    70    69    1
    23    17    18    2
    24    69    72    1
    25    69    68    1
    26    72    73    1
    27    73    75    1
    28    60    58    1
    29    59    58    1
    30    31    30    1
    31    58    55    1
    32    67    65    1
    33    30    29    1
    34    29    28    1
    35    63    64    2
    36    63    62    1
    37    55    54    1
    38    55    56    1
    39    65    62    1
    40    65    66    1
    41    28    27    1
    42    54    52   am
    43    62    61    1
    44    56    57    2
    45    23    24    1
    46    27    24    1
    47    52    51    1
    48    52    53    2
    49    51    50    1
    50    24    25    1
    51    47    46    2
    52    50    46   am
    53    26    25    2
    54    46    45    1
    55    43    41   am
    56    35    34    2
    57    39    38    2
    58    49    48    1
    59    38    37    1
    60    38    44   am
    61    37    40    1
    62    37    36    1
    63    44    45    1
    64    45    48    1
    65    41    40    1
    66    41    42    2
    67    34    36   am
    68    34    33    1
    69    32    33    1
