@<TRIPOS>MOLECULE
tmp/4cpbD01.pdb
 93 89 0 0 0
SMALL
GASTEIGER

@<TRIPOS>ATOM
      1  N         -5.8140   19.9090   27.8260 N.3    36  TYR36      -0.1227
      2  CA        -7.2480   19.9550   28.1100 C.3    36  TYR36       0.1736
      3  C         -7.4910   20.8640   29.3180 C.2    36  TYR36       0.2596
      4  O         -8.6420   20.9540   29.8120 O.2    36  TYR36      -0.2718
      5  CB        -7.7970   18.5440   28.3600 C.3    36  TYR36       0.0548
      6  CG        -7.0670   17.7680   29.4320 C.ar   36  TYR36      -0.0200
      7  CD1       -7.4510   17.8540   30.7570 C.ar   36  TYR36      -0.0009
      8  CD2       -5.9480   16.9450   29.1170 C.ar   36  TYR36      -0.0009
      9  CE1       -6.7510   17.1840   31.7470 C.ar   36  TYR36       0.0417
     10  CE2       -5.2770   16.2500   30.0950 C.ar   36  TYR36       0.0417
     11  CZ        -5.6800   16.3910   31.4280 C.ar   36  TYR36       0.1957
     12  OH        -5.0130   15.7210   32.4350 O.3    36  TYR36      -0.2866
     13  N         -6.4560   21.5530   29.8060 N.am   37  GLY37      -0.1943
     14  CA        -6.6350   22.5080   30.9330 C.3    37  GLY37       0.1998
     15  C         -5.3730   22.7120   31.7400 C.2    37  GLY37       0.2480
     16  O         -4.9630   23.8420   31.9880 O.2    37  GLY37      -0.2729
     17  N         -4.7320   21.6250   32.1710 N.am   38  PRO38      -0.2726
     18  CA        -3.5220   21.7930   33.0010 C.3    38  PRO38       0.1402
     19  C         -2.3800   22.5130   32.2930 C.2    38  PRO38       0.2269
     20  O         -2.3390   22.6110   31.0680 O.2    38  PRO38      -0.2865
     21  CB        -3.1210   20.3360   33.3230 C.3    38  PRO38       0.0296
     22  CG        -4.4190   19.5730   33.2480 C.3    38  PRO38       0.0237
     23  CD        -5.1350   20.2160   32.0850 C.3    38  PRO38       0.0939
     24  N         -5.3490   10.2760   33.2390 N.3    50  HIS50      -0.1227
     25  CA        -6.5200   11.0970   33.5350 C.3    50  HIS50       0.1737
     26  C         -7.8120   10.2960   33.4000 C.2    50  HIS50       0.2438
     27  O         -7.9870    9.6010   32.4120 O.2    50  HIS50      -0.2733
     28  CB        -6.5520   12.2730   32.5600 C.3    50  HIS50       0.0758
     29  CG        -7.5230   13.3390   32.9380 C.ar   50  HIS50       0.0818
     30  ND1       -7.2900   14.2270   33.9570 N.ar   50  HIS50      -0.2268
     31  CD2       -8.7430   13.6460   32.4370 C.ar   50  HIS50       0.1154
     32  CE1       -8.3160   15.0490   34.0580 C.ar   50  HIS50       0.1986
     33  NE2       -9.2090   14.7190   33.1480 N.ar   50  HIS50      -0.2212
     34  N         -8.7400   10.4290   34.3820 N.am   51  PRO51      -0.2729
     35  CA        -9.9810    9.6570   34.3140 C.3    51  PRO51       0.1401
     36  C        -10.9030   10.2110   33.2360 C.2    51  PRO51       0.2269
     37  O        -10.8200   11.3830   32.9080 O.2    51  PRO51      -0.2865
     38  CB       -10.5990    9.8560   35.7080 C.3    51  PRO51       0.0296
     39  CG       -10.0740   11.1830   36.1700 C.3    51  PRO51       0.0237
     40  CD        -8.6930   11.3220   35.5580 C.3    51  PRO51       0.0939
     41  N        -14.1880   11.6010   32.4070 N.3    53  GLN53      -0.1245
     42  CA       -15.3280   12.2720   33.0300 C.3    53  GLN53       0.1566
     43  C        -16.4460   12.6600   32.0630 C.2    53  GLN53       0.2260
     44  O        -17.2090   13.5850   32.3570 O.2    53  GLN53      -0.2867
     45  CB       -14.8590   13.5400   33.7240 C.3    53  GLN53       0.0367
     46  CG       -13.7670   13.3120   34.7560 C.3    53  GLN53       0.0905
     47  CD       -13.3530   14.6220   35.4200 C.2    53  GLN53       0.2608
     48  OE1      -13.1000   15.6690   34.7460 O.2    53  GLN53      -0.2717
     49  NE2      -13.2850   14.5840   36.7470 N.am   53  GLN53      -0.0878
     50  N        -15.8530   12.0050   28.2550 N.3    55  LEU55      -0.1245
     51  CA       -15.1680   12.3460   27.0100 C.3    55  LEU55       0.1561
     52  C        -16.0200   12.0580   25.7920 C.2    55  LEU55       0.2260
     53  O        -16.8850   11.1250   25.7700 O.2    55  LEU55      -0.2867
     54  CB       -13.8610   11.5570   26.8800 C.3    55  LEU55       0.0270
     55  CG       -12.8380   11.8290   27.9820 C.3    55  LEU55       0.0019
     56  CD1      -11.7700   10.7320   27.9500 C.3    55  LEU55       0.0001
     57  CD2      -12.2280   13.2220   27.8230 C.3    55  LEU55       0.0001
     58  N         -8.1740   11.2380   27.5500 N.3    61  CYS61      -0.1235
     59  CA        -8.4120   12.6810   27.4960 C.3    61  CYS61       0.1677
     60  C         -7.2130   13.3770   26.8710 C.2    61  CYS61       0.2270
     61  O         -6.0880   13.1010   27.2800 O.2    61  CYS61      -0.2867
     62  CB        -8.5870   13.2000   28.8840 C.3    61  CYS61       0.0956
     63  SG        -9.1330   14.9090   29.0110 S.3    61  CYS61      -0.0801
     64  N        -12.0790   15.8000   24.6080 N.3    99  ASP99      -0.1225
     65  CA       -12.3170   16.4110   25.9030 C.3    99  ASP99       0.1805
     66  C        -13.8360   16.2500   26.2180 C.2    99  ASP99       0.2597
     67  O        -14.5820   15.6410   25.4480 O.2    99  ASP99      -0.2718
     68  CB       -11.8390   17.8660   25.9050 C.3    99  ASP99       0.1424
     69  CG       -11.6000   18.4630   27.3130 C.2    99  ASP99       0.3668
     70  OD1      -11.8630   17.7500   28.3280 O.co2  99  ASP99      -0.2456
     71  OD2      -11.1610   19.6490   27.3830 O.co2  99  ASP99      -0.2456
     72  N        -14.2320   16.7430   27.3640 N.am  100  VAL100     -0.1980
     73  CA       -15.6290   16.6830   27.8440 C.3   100  VAL100      0.1595
     74  C        -16.3710   17.8640   27.1920 C.2   100  VAL100      0.2287
     75  O        -15.9000   18.9680   27.2770 O.2   100  VAL100     -0.2864
     76  CB       -15.6720   16.7540   29.3780 C.3   100  VAL100      0.0276
     77  CG1      -17.1030   16.8500   29.8670 C.3   100  VAL100      0.0022
     78  CG2      -15.0250   15.5040   29.9680 C.3   100  VAL100      0.0022
     79  N        -16.3040   21.8010   28.1460 N.3   103  THR103     -0.1218
     80  CA       -15.1110   22.1090   28.9490 C.3   103  THR103      0.1862
     81  C        -13.9150   22.4330   28.0710 C.2   103  THR103      0.2287
     82  O        -12.7550   22.3940   28.5370 O.2   103  THR103     -0.2866
     83  CB       -14.7090   20.9400   29.9000 C.3   103  THR103      0.1770
     84  OG1      -14.0760   19.9140   29.1120 O.3   103  THR103     -0.2211
     85  CG2      -15.9110   20.3730   30.6190 C.3   103  THR103      0.0375
     86  N        -10.8240   26.0000   28.3560 N.3   106  ASN106     -0.1240
     87  CA        -9.4830   26.0910   28.9350 C.3   106  ASN106      0.1653
     88  C         -8.4330   25.2870   28.2090 C.2   106  ASN106      0.2266
     89  O         -7.3630   25.0780   28.7440 O.2   106  ASN106     -0.2867
     90  CB        -9.4810   25.7090   30.4160 C.3   106  ASN106      0.1155
     91  CG        -9.8680   24.2810   30.6690 C.2   106  ASN106      0.2627
     92  OD1      -10.3090   23.5850   29.7710 O.2   106  ASN106     -0.2716
     93  ND2       -9.7360   23.8500   31.9220 N.am  106  ASN106     -0.0877
@<TRIPOS>BOND
     1    64    65    1
     2    67    66    2
     3    53    52    2
     4    52    51    1
     5    65    68    1
     6    65    66    1
     7    68    69    1
     8    66    72   am
     9    60    61    2
    10    60    59    1
    11    54    51    1
    12    54    55    1
    13    51    50    1
    14    74    75    2
    15    74    73    1
    16    69    71   ar
    17    69    70   ar
    18    72    73    1
    19    59    58    1
    20    59    62    1
    21    57    55    1
    22     1     2    1
    23    73    76    1
    24    56    55    1
    25    81    82    2
    26    81    80    1
    27     2     5    1
    28     2     3    1
    29    79    80    1
    30    88    89    2
    31    88    87    1
    32    86    87    1
    33     5     6    1
    34    62    63    1
    35    87    90    1
    36    80    83    1
    37    84    83    1
    38     8     6   ar
    39     8    10   ar
    40     3    13   am
    41     3     4    2
    42    76    77    1
    43    76    78    1
    44     6     7   ar
    45    92    91    2
    46    13    14    1
    47    83    85    1
    48    10    11   ar
    49    90    91    1
    50    91    93   am
    51     7     9   ar
    52    14    15    1
    53    20    19    2
    54    11     9   ar
    55    11    12    1
    56    15    16    2
    57    15    17   am
    58    43    44    2
    59    43    42    1
    60    23    17    1
    61    23    22    1
    62    17    18    1
    63    19    18    1
    64    41    42    1
    65    27    26    2
    66    31    29   ar
    67    31    33   ar
    68    28    29    1
    69    28    25    1
    70    37    36    2
    71    29    30   ar
    72    18    21    1
    73    42    45    1
    74    33    32   ar
    75    36    35    1
    76    24    25    1
    77    22    21    1
    78    26    25    1
    79    26    34   am
    80    45    46    1
    81    30    32   ar
    82    35    34    1
    83    35    38    1
    84    34    40    1
    85    48    47    2
    86    46    47    1
    87    47    49   am
    88    40    39    1
    89    38    39    1
