@<TRIPOS>MOLECULE
tmp/4cpbD00.pdb
 89 82 0 0 0
SMALL
GASTEIGER

@<TRIPOS>ATOM
      1  N        -14.5750   22.4930   19.8080 N.3    11  GLU11      -0.1231
      2  CA       -15.5630   21.3930   19.9560 C.3    11  GLU11       0.1699
      3  C        -16.0700   20.8850   18.6420 C.2    11  GLU11       0.2592
      4  O        -16.4330   19.7360   18.5750 O.2    11  GLU11      -0.2718
      5  CB       -16.7850   21.7580   20.8190 C.3    11  GLU11       0.0402
      6  CG       -16.4110   22.1130   22.1790 C.3    11  GLU11       0.1161
      7  CD       -17.4980   22.0080   23.2330 C.2    11  GLU11       0.3649
      8  OE1      -18.4750   21.2260   23.1220 O.co2  11  GLU11      -0.2457
      9  OE2      -17.3030   22.6720   24.2490 O.co2  11  GLU11      -0.2457
     10  N        -16.0600   21.7130   17.5950 N.am   12  ALA12      -0.1980
     11  CA       -16.5260   21.2730   16.2710 C.3    12  ALA12       0.1597
     12  C        -15.5150   20.4410   15.5190 C.2    12  ALA12       0.2287
     13  O        -15.9020   19.7900   14.5260 O.2    12  ALA12      -0.2864
     14  CB       -16.9400   22.4790   15.4400 C.3    12  ALA12       0.0319
     15  N        -12.7930   19.8680    9.7940 N.3    15  VAL15      -0.1245
     16  CA       -13.2410   19.0650    8.6400 C.3    15  VAL15       0.1561
     17  C        -12.1120   19.0310    7.6160 C.2    15  VAL15       0.2260
     18  O        -11.5400   20.0890    7.2680 O.2    15  VAL15      -0.2867
     19  CB       -14.5410   19.5890    8.0440 C.3    15  VAL15       0.0252
     20  CG1      -15.0690   18.6040    7.0280 C.3    15  VAL15       0.0019
     21  CG2      -15.5900   19.7220    9.1230 C.3    15  VAL15       0.0019
     22  N        -15.8030   12.8380   24.7480 N.3    56  ILE56      -0.1245
     23  CA       -16.4880   12.5160   23.4800 C.3    56  ILE56       0.1561
     24  C        -16.1210   11.1320   22.9260 C.2    56  ILE56       0.2260
     25  O        -16.9080   10.5400   22.2150 O.2    56  ILE56      -0.2867
     26  CB       -16.3300   13.5980   22.3670 C.3    56  ILE56       0.0252
     27  CG1      -14.8780   13.7710   21.9620 C.3    56  ILE56       0.0019
     28  CG2      -16.9080   14.9400   22.8100 C.3    56  ILE56       0.0019
     29  CD1      -14.7080   14.4300   20.6260 C.3    56  ILE56       0.0001
     30  N        -14.2170   11.5700   13.3690 N.3    67  LYS67      -0.1245
     31  CA       -15.4570   10.9860   12.8500 C.3    67  LYS67       0.1561
     32  C        -15.3160   10.8350   11.3430 C.2    67  LYS67       0.2260
     33  O        -14.5740   11.5980   10.6870 O.2    67  LYS67      -0.2867
     34  CB       -16.6340   11.8960   13.1100 C.3    67  LYS67       0.0271
     35  CG       -17.0330   11.9130   14.5870 C.3    67  LYS67       0.0035
     36  CD       -18.1430   12.8970   14.7960 C.3    67  LYS67       0.0206
     37  CE       -18.7360   12.7760   16.1610 C.3    67  LYS67       0.1093
     38  NZ       -19.9340   13.6580   16.2400 N.3    67  LYS67      -0.1314
     39  N        -17.9210   10.8650    8.3380 N.3    69  GLY69      -0.1210
     40  CA       -19.2940   11.2420    8.1380 C.3    69  GLY69       0.1956
     41  C        -20.0050   11.4260    9.4710 C.2    69  GLY69       0.2612
     42  O        -19.4660   12.0860   10.3820 O.2    69  GLY69      -0.2717
     43  N        -21.1710   10.7820    9.5930 N.am   70  ASN70      -0.1960
     44  CA       -21.9230   10.8610   10.8650 C.3    70  ASN70       0.1819
     45  C        -21.6330    9.7760   11.8740 C.2    70  ASN70       0.2622
     46  O        -22.4960    9.4900   12.6970 O.2    70  ASN70      -0.2715
     47  CB       -23.3900   10.7890   10.5410 C.3    70  ASN70       0.1195
     48  CG       -23.8060   11.9030    9.6550 C.2    70  ASN70       0.2630
     49  OD1      -23.6750   13.0520   10.0440 O.2    70  ASN70      -0.2716
     50  ND2      -24.3010   11.5960    8.4850 N.am   70  ASN70      -0.0877
     51  N        -20.4530    9.1810   11.8350 N.am   71  SER71      -0.1936
     52  CA       -20.0840    8.0770   12.7120 C.3    71  SER71       0.2055
     53  C        -19.9320    8.6010   14.1140 C.2    71  SER71       0.2644
     54  O        -19.8390    9.8160   14.3390 O.2    71  SER71      -0.2714
     55  CB       -18.7670    7.3980   12.2860 C.3    71  SER71       0.2130
     56  OG       -17.6250    8.2050   12.5770 O.3    71  SER71      -0.2179
     57  N        -19.8570    7.6760   15.0510 N.am   72  GLY72      -0.1939
     58  CA       -19.3310    8.0150   16.3420 C.3    72  GLY72       0.2014
     59  C        -17.8340    8.2300   16.2800 C.2    72  GLY72       0.2639
     60  O        -17.1900    8.0850   15.2520 O.2    72  GLY72      -0.2714
     61  N        -17.2800    8.6700   17.3970 N.am   73  THR73      -0.1950
     62  CA       -15.8500    8.9660   17.3840 C.3    73  THR73       0.1897
     63  C        -15.0310    7.7000   17.2790 C.2    73  THR73       0.2313
     64  O        -15.4520    6.6320   17.7440 O.2    73  THR73      -0.2863
     65  CB       -15.4360    9.7570   18.6350 C.3    73  THR73       0.1794
     66  OG1      -15.9490    9.0870   19.7660 O.3    73  THR73      -0.2208
     67  CG2      -16.0370   11.1470   18.6200 C.3    73  THR73       0.0378
     68  N        -13.5710   14.2380    9.9230 N.3    94  THR94      -0.1218
     69  CA       -13.4320   15.3830   10.8300 C.3    94  THR94       0.1862
     70  C        -12.5430   14.9650   11.9820 C.2    94  THR94       0.2287
     71  O        -12.7200   13.9030   12.5820 O.2    94  THR94      -0.2866
     72  CB       -14.7970   15.8350   11.4290 C.3    94  THR94       0.1770
     73  OG1      -15.7100   16.1700   10.3910 O.3    94  THR94      -0.2211
     74  CG2      -14.6160   17.0790   12.3290 C.3    94  THR94       0.0375
     75  N        -10.8780   15.7360   15.7110 N.3    96  ILE96      -0.1245
     76  CA       -11.3720   16.3780   16.9460 C.3    96  ILE96       0.1561
     77  C        -10.4750   16.0630   18.1350 C.2    96  ILE96       0.2260
     78  O        -10.0130   14.9450   18.3090 O.2    96  ILE96      -0.2867
     79  CB       -12.8200   15.9200   17.3230 C.3    96  ILE96       0.0252
     80  CG1      -13.7020   15.6830   16.1060 C.3    96  ILE96       0.0019
     81  CG2      -13.4180   16.9530   18.2540 C.3    96  ILE96       0.0019
     82  CD1      -14.9190   14.8490   16.3810 C.3    96  ILE96       0.0001
     83  N        -17.5100   17.6110   26.5430 N.3   101  PRO101     -0.2116
     84  CA       -18.3010   18.7010   25.9770 C.3   101  PRO101      0.1372
     85  C        -18.5610   19.8060   26.9970 C.2   101  PRO101      0.2244
     86  O        -18.8560   19.5520   28.1950 O.2   101  PRO101     -0.2868
     87  CB       -19.5910   18.0180   25.5480 C.3   101  PRO101      0.0268
     88  CG       -19.1460   16.6190   25.1890 C.3   101  PRO101      0.0207
     89  CD       -18.0480   16.2870   26.1920 C.3   101  PRO101      0.0892
@<TRIPOS>BOND
     1    20    19    1
     2    18    17    2
     3    17    16    1
     4    19    16    1
     5    19    21    1
     6    40    39    1
     7    40    41    1
     8    50    48   am
     9    16    15    1
    10    41    43   am
    11    41    42    2
    12    43    44    1
    13    48    49    2
    14    48    47    1
    15    68    69    1
    16    73    72    1
    17    47    44    1
    18    33    32    2
    19    69    72    1
    20    69    70    1
    21    44    45    1
    22    32    31    1
    23    72    74    1
    24    51    45   am
    25    51    52    1
    26    45    46    2
    27    70    71    2
    28    55    56    1
    29    55    52    1
    30    52    53    1
    31    31    34    1
    32    31    30    1
    33    34    35    1
    34    53    54    2
    35    53    57   am
    36    13    12    2
    37    35    36    1
    38    36    37    1
    39    57    58    1
    40    60    59    2
    41    14    11    1
    42    12    11    1
    43    75    76    1
    44    80    82    1
    45    80    79    1
    46    37    38    1
    47    11    10    1
    48    59    58    1
    49    59    61   am
    50    76    79    1
    51    76    77    1
    52    63    62    1
    53    63    64    2
    54    79    81    1
    55    62    61    1
    56    62    65    1
    57    10     3   am
    58    77    78    2
    59     4     3    2
    60    67    65    1
    61    65    66    1
    62     3     2    1
    63     1     2    1
    64     2     5    1
    65    29    27    1
    66     5     6    1
    67    27    26    1
    68     6     7    1
    69    25    24    2
    70    26    28    1
    71    26    23    1
    72    24    23    1
    73     8     7   ar
    74     7     9   ar
    75    23    22    1
    76    88    87    1
    77    88    89    1
    78    87    84    1
    79    84    83    1
    80    84    85    1
    81    89    83    1
    82    85    86    2
