@<TRIPOS>MOLECULE
tmp/4cpeB00.pdb
 175 168 0 0 0
SMALL
GASTEIGER

@<TRIPOS>ATOM
      1  N        -23.6770  -41.9810  -12.1330 N.3     8  ASN8       -0.1240
      2  CA       -23.8820  -41.6360  -10.7270 C.3     8  ASN8        0.1653
      3  C        -25.0180  -42.4150  -10.1160 C.2     8  ASN8        0.2266
      4  O        -25.6630  -43.2480  -10.7650 O.2     8  ASN8       -0.2867
      5  CB       -24.0010  -40.1240  -10.4660 C.3     8  ASN8        0.1155
      6  CG       -25.3170  -39.5320  -10.9270 C.2     8  ASN8        0.2627
      7  OD1      -26.2820  -40.2240  -11.2410 O.2     8  ASN8       -0.2716
      8  ND2      -25.3680  -38.2160  -10.9310 N.am    8  ASN8       -0.0877
      9  N        -27.9340  -41.6340   -9.3110 N.3    10  LEU10      -0.1245
     10  CA       -29.2640  -41.3540   -9.8580 C.3    10  LEU10       0.1561
     11  C        -29.4590  -42.0780  -11.1980 C.2    10  LEU10       0.2260
     12  O        -30.5590  -42.1150  -11.7170 O.2    10  LEU10      -0.2867
     13  CB       -29.4590  -39.8460  -10.0810 C.3    10  LEU10       0.0270
     14  CG       -29.3940  -38.9630   -8.8320 C.3    10  LEU10       0.0019
     15  CD1      -29.1550  -37.4790   -9.1490 C.3    10  LEU10       0.0001
     16  CD2      -30.6720  -39.1140   -8.0550 C.3    10  LEU10       0.0001
     17  N        -27.5840  -41.0500  -13.8540 N.3    12  SER12      -0.1217
     18  CA       -27.0910  -40.0930  -14.8470 C.3    12  SER12       0.1889
     19  C        -25.7560  -40.5880  -15.4550 C.2    12  SER12       0.2288
     20  O        -25.0370  -41.3530  -14.8060 O.2    12  SER12      -0.2866
     21  CB       -26.8750  -38.7420  -14.1800 C.3    12  SER12       0.2089
     22  OG       -28.1170  -38.2340  -13.7150 O.3    12  SER12      -0.2183
     23  N        -23.1760  -34.7810  -20.7600 N.3    28  TYR28      -0.1241
     24  CA       -23.8390  -35.2370  -19.5600 C.3    28  TYR28       0.1605
     25  C        -25.2910  -35.5260  -19.8960 C.2    28  TYR28       0.2264
     26  O        -25.9320  -34.7540  -20.5980 O.2    28  TYR28      -0.2867
     27  CB       -23.7850  -34.1280  -18.4960 C.3    28  TYR28       0.0534
     28  CG       -24.0300  -34.6170  -17.0860 C.ar   28  TYR28      -0.0201
     29  CD1      -25.3200  -34.7970  -16.5980 C.ar   28  TYR28      -0.0009
     30  CD2      -22.9570  -34.9150  -16.2410 C.ar   28  TYR28      -0.0009
     31  CE1      -25.5360  -35.2720  -15.3060 C.ar   28  TYR28       0.0417
     32  CE2      -23.1730  -35.3760  -14.9440 C.ar   28  TYR28       0.0417
     33  CZ       -24.4400  -35.5570  -14.4830 C.ar   28  TYR28       0.1957
     34  OH       -24.6040  -36.0380  -13.1970 O.3    28  TYR28      -0.2866
     35  N        -28.7510  -36.3010  -17.6960 N.3    30  SER30      -0.1217
     36  CA       -29.3130  -36.4060  -16.3540 C.3    30  SER30       0.1889
     37  C        -30.4980  -37.3480  -16.2960 C.2    30  SER30       0.2288
     38  O        -31.4160  -37.2540  -17.1110 O.2    30  SER30      -0.2866
     39  CB       -29.7660  -35.0460  -15.8830 C.3    30  SER30       0.2089
     40  OG       -30.2900  -35.1560  -14.5620 O.3    30  SER30      -0.2183
     41  N        -32.6530  -37.1550  -13.9650 N.3    32  VAL32      -0.1231
     42  CA       -33.6860  -36.4460  -13.2280 C.3    32  VAL32       0.1692
     43  C        -33.7680  -34.9910  -13.6520 C.2    32  VAL32       0.2593
     44  O        -32.8590  -34.4290  -14.2610 O.2    32  VAL32      -0.2718
     45  CB       -33.4550  -36.5070  -11.6950 C.3    32  VAL32       0.0266
     46  CG1      -33.4790  -37.9470  -11.2010 C.3    32  VAL32       0.0020
     47  CG2      -32.1860  -35.8260  -11.3190 C.3    32  VAL32       0.0020
     48  N        -34.8850  -34.3720  -13.3020 N.am   33  GLY33      -0.1942
     49  CA       -35.0650  -32.9560  -13.5380 C.3    33  GLY33       0.2014
     50  C        -35.5490  -32.5950  -14.9170 C.2    33  GLY33       0.2639
     51  O        -35.9860  -33.4450  -15.6970 O.2    33  GLY33      -0.2714
     52  N        -35.4430  -31.3040  -15.2180 N.am   34  ASN34      -0.1958
     53  CA       -35.9570  -30.7580  -16.4600 C.3    34  ASN34       0.1819
     54  C        -34.8670  -30.8900  -17.5180 C.2    34  ASN34       0.2621
     55  O        -34.1970  -29.9320  -17.8730 O.2    34  ASN34      -0.2715
     56  CB       -36.3620  -29.2980  -16.2360 C.3    34  ASN34       0.1195
     57  CG       -37.1030  -28.7090  -17.4260 C.2    34  ASN34       0.2630
     58  OD1      -37.4840  -29.4240  -18.3400 O.2    34  ASN34      -0.2716
     59  ND2      -37.2980  -27.3980  -17.4190 N.am   34  ASN34      -0.0877
     60  N        -34.6750  -32.1150  -17.9990 N.am   35  ALA35      -0.1977
     61  CA       -33.5300  -32.4540  -18.8270 C.3    35  ALA35       0.1597
     62  C        -33.8880  -33.6360  -19.7140 C.2    35  ALA35       0.2287
     63  O        -34.5830  -34.5450  -19.2780 O.2    35  ALA35      -0.2864
     64  CB       -32.3410  -32.8140  -17.9540 C.3    35  ALA35       0.0319
     65  N        -28.1200  -26.2970  -18.6990 N.3    64  TRP64      -0.1241
     66  CA       -29.1880  -27.2080  -19.0850 C.3    64  TRP64       0.1605
     67  C        -29.9950  -26.7000  -20.2780 C.2    64  TRP64       0.2264
     68  O        -31.2250  -26.6970  -20.2930 O.2    64  TRP64      -0.2867
     69  CB       -30.0750  -27.4660  -17.8670 C.3    64  TRP64       0.0550
     70  CG       -29.3050  -28.1380  -16.7740 C.ar   64  TRP64       0.0003
     71  CD1      -28.9050  -27.5790  -15.5790 C.ar   64  TRP64       0.0946
     72  CD2      -28.8000  -29.4790  -16.7810 C.ar   64  TRP64       0.0152
     73  NE1      -28.1800  -28.4950  -14.8640 N.ar   64  TRP64      -0.2442
     74  CE2      -28.1030  -29.6710  -15.5690 C.ar   64  TRP64       0.0810
     75  CE3      -28.8730  -30.5460  -17.6910 C.ar   64  TRP64       0.0012
     76  CZ2      -27.4890  -30.8800  -15.2440 C.ar   64  TRP64       0.0191
     77  CZ3      -28.2710  -31.7620  -17.3580 C.ar   64  TRP64       0.0001
     78  CH2      -27.5730  -31.9080  -16.1470 C.ar   64  TRP64       0.0015
     79  N        -33.8250  -25.5020  -19.6580 N.3    71  ALA71      -0.1231
     80  CA       -34.3500  -25.3890  -18.2980 C.3    71  ALA71       0.1694
     81  C        -33.9180  -24.1050  -17.6100 C.2    71  ALA71       0.2592
     82  O        -34.2470  -23.9130  -16.4420 O.2    71  ALA71      -0.2718
     83  CB       -33.9230  -26.5840  -17.4830 C.3    71  ALA71       0.0304
     84  N        -33.1980  -23.2230  -18.3010 N.am   72  HIS72      -0.1962
     85  CA       -32.7570  -21.9470  -17.7440 C.3    72  HIS72       0.1787
     86  C        -32.0400  -22.1540  -16.4070 C.2    72  HIS72       0.2620
     87  O        -32.3880  -21.5600  -15.3920 O.2    72  HIS72      -0.2715
     88  CB       -33.9070  -20.9700  -17.5910 C.3    72  HIS72       0.0785
     89  CG       -34.6550  -20.7110  -18.8630 C.ar   72  HIS72       0.0821
     90  ND1      -34.0320  -20.3040  -20.0240 N.ar   72  HIS72      -0.2267
     91  CD2      -35.9730  -20.7990  -19.1450 C.ar   72  HIS72       0.1154
     92  CE1      -34.9410  -20.1560  -20.9720 C.ar   72  HIS72       0.1986
     93  NE2      -36.1280  -20.4410  -20.4600 N.ar   72  HIS72      -0.2212
     94  N        -31.0500  -23.0370  -16.4100 N.am   73  SER73      -0.1950
     95  CA       -30.3250  -23.3720  -15.1850 C.3    73  SER73       0.1924
     96  C        -28.9780  -23.9370  -15.5720 C.2    73  SER73       0.2314
     97  O        -28.7060  -24.2010  -16.7500 O.2    73  SER73      -0.2863
     98  CB       -31.1080  -24.3860  -14.3310 C.3    73  SER73       0.2116
     99  OG       -31.4530  -25.5370  -15.0680 O.3    73  SER73      -0.2180
    100  N        -25.6380  -26.4360  -13.6010 N.3    75  THR75      -0.1218
    101  CA       -25.0350  -27.1160  -12.4470 C.3    75  THR75       0.1862
    102  C        -23.5340  -27.0880  -12.5640 C.2    75  THR75       0.2287
    103  O        -22.9740  -27.3100  -13.6470 O.2    75  THR75      -0.2866
    104  CB       -25.5170  -28.5660  -12.3810 C.3    75  THR75       0.1770
    105  OG1      -26.9410  -28.5470  -12.2810 O.3    75  THR75      -0.2211
    106  CG2      -24.9390  -29.2880  -11.1640 C.3    75  THR75       0.0375
    107  N        -20.2710  -29.1200  -10.6720 N.3    77  TRP77      -0.1241
    108  CA       -19.7870  -30.1770   -9.7740 C.3    77  TRP77       0.1605
    109  C        -18.3520  -29.8680   -9.4310 C.2    77  TRP77       0.2264
    110  O        -17.5350  -29.6010  -10.3240 O.2    77  TRP77      -0.2867
    111  CB       -19.8080  -31.5260  -10.4560 C.3    77  TRP77       0.0550
    112  CG       -21.1640  -32.1240  -10.7370 C.ar   77  TRP77       0.0003
    113  CD1      -21.7710  -33.1410  -10.0280 C.ar   77  TRP77       0.0946
    114  CD2      -22.0530  -31.8080  -11.8230 C.ar   77  TRP77       0.0152
    115  NE1      -22.9640  -33.4780  -10.6080 N.ar   77  TRP77      -0.2442
    116  CE2      -23.1710  -32.6800  -11.7100 C.ar   77  TRP77       0.0810
    117  CE3      -21.9870  -30.9160  -12.9010 C.ar   77  TRP77       0.0012
    118  CZ2      -24.1970  -32.7020  -12.6530 C.ar   77  TRP77       0.0191
    119  CZ3      -23.0320  -30.9260  -13.8310 C.ar   77  TRP77       0.0001
    120  CH2      -24.1190  -31.8110  -13.6900 C.ar   77  TRP77       0.0015
    121  N        -22.3130  -30.4790   -5.6040 N.3    93  TRP93      -0.1241
    122  CA       -22.7860  -29.6780   -6.7300 C.3    93  TRP93       0.1605
    123  C        -23.6980  -28.5610   -6.2820 C.2    93  TRP93       0.2264
    124  O        -24.3320  -28.6150   -5.2100 O.2    93  TRP93      -0.2867
    125  CB       -23.4340  -30.5330   -7.8210 C.3    93  TRP93       0.0550
    126  CG       -24.5530  -31.4360   -7.3860 C.ar   93  TRP93       0.0003
    127  CD1      -24.4850  -32.7900   -7.2220 C.ar   93  TRP93       0.0946
    128  CD2      -25.9160  -31.0650   -7.1160 C.ar   93  TRP93       0.0152
    129  NE1      -25.7240  -33.2930   -6.8660 N.ar   93  TRP93      -0.2442
    130  CE2      -26.6120  -32.2510   -6.7820 C.ar   93  TRP93       0.0810
    131  CE3      -26.6200  -29.8490   -7.1350 C.ar   93  TRP93       0.0012
    132  CZ2      -27.9840  -32.2520   -6.4580 C.ar   93  TRP93       0.0191
    133  CZ3      -27.9840  -29.8640   -6.8150 C.ar   93  TRP93       0.0001
    134  CH2      -28.6360  -31.0550   -6.4650 C.ar   93  TRP93       0.0015
    135  N        -26.7250  -26.1390   -8.2240 N.3    95  LEU95      -0.1245
    136  CA       -27.5940  -25.9910   -9.3820 C.3    95  LEU95       0.1561
    137  C        -28.2990  -24.6670   -9.2340 C.2    95  LEU95       0.2260
    138  O        -29.1520  -24.5160   -8.3470 O.2    95  LEU95      -0.2867
    139  CB       -28.5580  -27.1710   -9.4200 C.3    95  LEU95       0.0270
    140  CG       -29.7670  -27.1340  -10.3600 C.3    95  LEU95       0.0019
    141  CD1      -29.5100  -26.6700  -11.7230 C.3    95  LEU95       0.0001
    142  CD2      -30.4130  -28.5090  -10.4030 C.3    95  LEU95       0.0001
    143  N        -30.7380  -21.7590  -10.9940 N.3    97  SER97      -0.1202
    144  CA       -31.6710  -21.3830  -12.0440 C.3    97  SER97       0.2020
    145  C        -31.7220  -19.8770  -12.1950 C.2    97  SER97       0.2619
    146  O        -31.5780  -19.1420  -11.2090 O.2    97  SER97      -0.2717
    147  CB       -33.0760  -21.8860  -11.7110 C.3    97  SER97       0.2103
    148  OG       -33.0980  -23.3010  -11.7120 O.3    97  SER97      -0.2182
    149  N        -32.0060  -19.4080  -13.4110 N.am   98  GLY98      -0.1942
    150  CA       -32.2590  -17.9960  -13.5730 C.3    98  GLY98       0.2014
    151  C        -33.5640  -17.6110  -12.9080 C.2    98  GLY98       0.2639
    152  O        -34.5880  -18.2570  -13.1330 O.2    98  GLY98      -0.2714
    153  N        -33.5450  -16.5650  -12.0970 N.am   99  THR99      -0.1950
    154  CA       -34.7230  -16.1320  -11.3540 C.3    99  THR99       0.1897
    155  C        -34.9000  -14.6280  -11.4580 C.2    99  THR99       0.2313
    156  O        -33.9740  -13.8980  -11.8160 O.2    99  THR99      -0.2863
    157  CB       -34.6260  -16.4660   -9.8340 C.3    99  THR99       0.1794
    158  OG1      -33.6260  -15.6480   -9.2050 O.3    99  THR99      -0.2208
    159  CG2      -34.3480  -17.9190   -9.5680 C.3    99  THR99       0.0378
    160  N        -29.9510  -24.9470   -5.6300 N.3   109  LEU109     -0.1245
    161  CA       -29.9460  -26.2230   -4.9160 C.3   109  LEU109      0.1561
    162  C        -28.5180  -26.7140   -4.7090 C.2   109  LEU109      0.2260
    163  O        -27.6180  -26.4200   -5.5150 O.2   109  LEU109     -0.2867
    164  CB       -30.7130  -27.2740   -5.7070 C.3   109  LEU109      0.0270
    165  CG       -32.2090  -27.0180   -5.8420 C.3   109  LEU109      0.0019
    166  CD1      -32.7940  -27.8630   -6.9710 C.3   109  LEU109      0.0001
    167  CD2      -32.9310  -27.3440   -4.5390 C.3   109  LEU109      0.0001
    168  N        -23.0310  -35.9940   -5.6020 N.3   113  ASP113     -0.1239
    169  CA       -23.1080  -37.1430   -6.5160 C.3   113  ASP113      0.1674
    170  C        -21.7960  -37.9330   -6.4150 C.2   113  ASP113      0.2266
    171  O        -20.7060  -37.3590   -6.3590 O.2   113  ASP113     -0.2867
    172  CB       -23.2420  -36.7030   -7.9830 C.3   113  ASP113      0.1410
    173  CG       -24.6110  -36.1370   -8.3600 C.2   113  ASP113      0.3668
    174  OD1      -25.5670  -36.2680   -7.5670 O.co2 113  ASP113     -0.2456
    175  OD2      -24.7000  -35.5520   -9.4820 O.co2 113  ASP113     -0.2456
@<TRIPOS>BOND
     1    92    93   ar
     2    92    90   ar
     3    23    24    1
     4    26    25    2
     5    93    91   ar
     6    68    67    2
     7    67    66    1
     8    90    89   ar
     9    25    24    1
    10    62    63    2
    11    62    61    1
    12    79    80    1
    13    24    27    1
    14    91    89   ar
    15    66    65    1
    16    66    69    1
    17    89    88    1
    18    61    60    1
    19    61    64    1
    20    27    28    1
    21    58    57    2
    22    84    85    1
    23    84    81   am
    24    80    81    1
    25    80    83    1
    26    60    54   am
    27    55    54    2
    28    69    70    1
    29    85    88    1
    30    85    86    1
    31    35    36    1
    32    75    77   ar
    33    75    72   ar
    34    81    82    2
    35    54    53    1
    36    57    59   am
    37    57    56    1
    38    77    78   ar
    39    38    37    2
    40    28    29   ar
    41    28    30   ar
    42    72    70   ar
    43    72    74   ar
    44    70    71   ar
    45    97    96    2
    46    29    31   ar
    47    53    56    1
    48    53    52    1
    49    94    86   am
    50    94    95    1
    51    86    87    2
    52    36    37    1
    53    36    39    1
    54    30    32   ar
    55    78    76   ar
    56    39    40    1
    57    51    50    2
    58    71    73   ar
    59    96    95    1
    60    74    76   ar
    61    74    73   ar
    62    19    18    1
    63    19    20    2
    64    31    33   ar
    65    52    50   am
    66    95    98    1
    67    99    98    1
    68    32    33   ar
    69    50    49    1
    70    18    21    1
    71    18    17    1
    72    33    34    1
    73    44    43    2
    74    21    22    1
    75    41    42    1
    76   119   120   ar
    77   119   117   ar
    78   120   118   ar
    79    43    48   am
    80    43    42    1
    81   103   102    2
    82   100   101    1
    83   150   149    1
    84   150   151    1
    85    49    48    1
    86   149   145   am
    87    42    45    1
    88   152   151    2
    89   151   153   am
    90   117   114   ar
    91   118   116   ar
    92   102   101    1
    93   101   104    1
    94   104   105    1
    95   104   106    1
    96   145   144    1
    97   145   146    2
    98     1     2    1
    99   153   154    1
   100   144   147    1
   101   144   143    1
   102   114   116   ar
   103   114   112   ar
   104   156   155    2
   105   141   140    1
   106    12    11    2
   107   148   147    1
   108   116   115   ar
   109    45    47    1
   110    45    46    1
   111   155   154    1
   112   154   157    1
   113     7     6    2
   114    11    10    1
   115     8     6   am
   116     6     5    1
   117     4     3    2
   118   112   111    1
   119   112   113   ar
   120     2     5    1
   121     2     3    1
   122   107   108    1
   123   115   113   ar
   124   111   108    1
   125   142   140    1
   126   140   139    1
   127   110   109    2
   128    13    10    1
   129    13    14    1
   130    10     9    1
   131   157   159    1
   132   157   158    1
   133   108   109    1
   134   175   173   ar
   135   139   136    1
   136   136   137    1
   137   136   135    1
   138   137   138    2
   139    15    14    1
   140    14    16    1
   141   173   172    1
   142   173   174   ar
   143   172   169    1
   144   125   126    1
   145   125   122    1
   146   126   127   ar
   147   126   128   ar
   148   127   129   ar
   149   131   128   ar
   150   131   133   ar
   151   128   130   ar
   152   166   165    1
   153   129   130   ar
   154   133   134   ar
   155   130   132   ar
   156   122   123    1
   157   122   121    1
   158   169   170    1
   159   169   168    1
   160   134   132   ar
   161   170   171    2
   162   123   124    2
   163   165   164    1
   164   165   167    1
   165   164   161    1
   166   160   161    1
   167   163   162    2
   168   161   162    1
