@<TRIPOS>MOLECULE
tmp/4cpfB00.pdb
 172 168 0 0 0
SMALL
GASTEIGER

@<TRIPOS>ATOM
      1  N          8.6210    9.2510    8.3770 N.3     8  ASN8       -0.1240
      2  CA         7.8110    9.6050    7.2160 C.3     8  ASN8        0.1653
      3  C          8.2640    8.8400    5.9920 C.2     8  ASN8        0.2266
      4  O          9.1270    7.9740    6.0540 O.2     8  ASN8       -0.2867
      5  CB         7.7340   11.1230    6.9740 C.3     8  ASN8        0.1155
      6  CG         9.0320   11.7130    6.4740 C.2     8  ASN8        0.2627
      7  OD1        9.9710   10.9810    6.1130 O.2     8  ASN8       -0.2716
      8  ND2        9.1080   13.0340    6.4430 N.am    8  ASN8       -0.0877
      9  N          9.9500    9.7640    3.4650 N.3    10  LEU10      -0.1245
     10  CA        11.3240   10.0850    3.0660 C.3    10  LEU10       0.1561
     11  C         12.3460    9.4570    4.0350 C.2    10  LEU10       0.2260
     12  O         13.5570    9.6920    3.8860 O.2    10  LEU10      -0.2867
     13  CB        11.5290   11.6000    3.0680 C.3    10  LEU10       0.0270
     14  CG        10.6510   12.3820    2.0960 C.3    10  LEU10       0.0019
     15  CD1       10.7440   13.8760    2.3380 C.3    10  LEU10       0.0001
     16  CD2       11.0470   12.0780    0.6750 C.3    10  LEU10       0.0001
     17  N         12.7290   10.1910    7.1480 N.3    12  SER12      -0.1217
     18  CA        13.0670   11.0980    8.2210 C.3    12  SER12       0.1889
     19  C         12.4740   10.5640    9.5210 C.2    12  SER12       0.2288
     20  O         11.4280    9.9220    9.5210 O.2    12  SER12      -0.2866
     21  CB        12.5040   12.4730    7.9450 C.3    12  SER12       0.2089
     22  OG        13.1090   12.9940    6.7760 O.3    12  SER12      -0.2183
     23  N         14.2730   16.2320   14.9800 N.3    28  TYR28      -0.1227
     24  CA        13.8780   15.8200   13.6430 C.3    28  TYR28       0.1736
     25  C         15.1670   15.5000   12.9000 C.2    28  TYR28       0.2595
     26  O         16.1030   16.3010   12.8990 O.2    28  TYR28      -0.2718
     27  CB        13.1140   16.9440   12.9270 C.3    28  TYR28       0.0548
     28  CG        12.3060   16.4810   11.7530 C.ar   28  TYR28      -0.0200
     29  CD1       12.8680   16.3630   10.5020 C.ar   28  TYR28      -0.0009
     30  CD2       10.9710   16.1400   11.9030 C.ar   28  TYR28      -0.0009
     31  CE1       12.1030   15.9010    9.4320 C.ar   28  TYR28       0.0417
     32  CE2       10.2190   15.6910   10.8490 C.ar   28  TYR28       0.0417
     33  CZ        10.7750   15.5680    9.6100 C.ar   28  TYR28       0.1957
     34  OH         9.9780   15.1120    8.5850 O.3    28  TYR28      -0.2866
     35  N         15.2220   14.3450   12.2480 N.am   29  GLU29      -0.1965
     36  CA        16.4410   13.8670   11.6240 C.3    29  GLU29       0.1733
     37  C         16.1880   13.3980   10.2060 C.2    29  GLU29       0.2617
     38  O         15.1940   12.7510    9.9020 O.2    29  GLU29      -0.2715
     39  CB        16.9670   12.6340   12.3580 C.3    29  GLU29       0.0429
     40  CG        17.5220   12.8040   13.7440 C.3    29  GLU29       0.1163
     41  CD        17.9490   11.4650   14.3290 C.2    29  GLU29       0.3649
     42  OE1       17.3640   10.4350   13.9270 O.co2  29  GLU29      -0.2457
     43  OE2       18.8700   11.4370   15.1700 O.co2  29  GLU29      -0.2457
     44  N         17.1640   13.6140    9.3480 N.am   30  SER30      -0.1950
     45  CA        17.1050   13.0010    8.0140 C.3    30  SER30       0.1924
     46  C         17.3560   11.5070    8.1170 C.2    30  SER30       0.2314
     47  O         17.7800   10.9940    9.1570 O.2    30  SER30      -0.2863
     48  CB        18.1160   13.5990    7.0410 C.3    30  SER30       0.2116
     49  OG        19.3900   13.0240    7.2600 O.3    30  SER30      -0.2180
     50  N         22.5660   15.0140   11.0060 N.3    37  SER37      -0.1217
     51  CA        21.2380   14.9350   10.4410 C.3    37  SER37       0.1889
     52  C         20.1370   15.4400   11.3730 C.2    37  SER37       0.2288
     53  O         19.0170   15.4890   10.9460 O.2    37  SER37      -0.2866
     54  CB        20.8980   13.4800   10.0870 C.3    37  SER37       0.2089
     55  OG        20.5400   12.7210   11.2420 O.3    37  SER37      -0.2183
     56  N         18.0590   17.9390   14.1480 N.3    39  TYR39      -0.1241
     57  CA        17.6870   19.3410   14.3750 C.3    39  TYR39       0.1605
     58  C         16.6190   19.4240   15.4680 C.2    39  TYR39       0.2264
     59  O         15.7730   18.5320   15.6200 O.2    39  TYR39      -0.2867
     60  CB        17.1150   19.9430   13.0900 C.3    39  TYR39       0.0534
     61  CG        18.1010   19.9260   11.9310 C.ar   39  TYR39      -0.0201
     62  CD1       18.2910   18.7760   11.1730 C.ar   39  TYR39      -0.0009
     63  CD2       18.8840   21.0420   11.6310 C.ar   39  TYR39      -0.0009
     64  CE1       19.2020   18.7390   10.1400 C.ar   39  TYR39       0.0417
     65  CE2       19.7970   21.0100   10.5930 C.ar   39  TYR39       0.0417
     66  CZ        19.9670   19.8510    9.8510 C.ar   39  TYR39       0.1957
     67  OH        20.8360   19.7920    8.8040 O.3    39  TYR39      -0.2866
     68  N         16.5860   24.8520    9.9930 N.3    64  TRP64      -0.1241
     69  CA        17.5750   23.9070    9.4780 C.3    64  TRP64       0.1605
     70  C         19.0160   24.3350    9.7730 C.2    64  TRP64       0.2264
     71  O         19.9000   24.3600    8.8990 O.2    64  TRP64      -0.2867
     72  CB        17.3490   23.6430    7.9950 C.3    64  TRP64       0.0550
     73  CG        16.0210   23.0060    7.7520 C.ar   64  TRP64       0.0003
     74  CD1       14.9100   23.5900    7.2320 C.ar   64  TRP64       0.0946
     75  CD2       15.6300   21.6720    8.0980 C.ar   64  TRP64       0.0152
     76  NE1       13.8620   22.7090    7.2060 N.ar   64  TRP64      -0.2442
     77  CE2       14.2660   21.5220    7.7530 C.ar   64  TRP64       0.0810
     78  CE3       16.3000   20.5790    8.6580 C.ar   64  TRP64       0.0012
     79  CZ2       13.5800   20.3230    7.9310 C.ar   64  TRP64       0.0191
     80  CZ3       15.6120   19.4010    8.8440 C.ar   64  TRP64       0.0001
     81  CH2       14.2540   19.2890    8.4970 C.ar   64  TRP64       0.0015
     82  N         25.6640   22.3020   10.2760 N.3    69  ARG69      -0.1231
     83  CA        25.1730   22.7280    8.9680 C.3    69  ARG69       0.1694
     84  C         24.1390   23.8090    9.1950 C.2    69  ARG69       0.2592
     85  O         23.4400   23.7910   10.2090 O.2    69  ARG69      -0.2718
     86  CB        24.4750   21.5180    8.3100 C.3    69  ARG69       0.0321
     87  CG        23.9260   21.6890    6.9180 C.3    69  ARG69       0.0489
     88  CD        23.5170   20.3230    6.3700 C.3    69  ARG69       0.2205
     89  NE        24.6040   19.7020    5.6230 N.pl3  69  ARG69      -0.0865
     90  CZ        24.6300   18.4380    5.2050 C.cat  69  ARG69       0.5346
     91  NH1       23.6280   17.6010    5.4740 N.pl3  69  ARG69       0.1354
     92  NH2       25.6780   18.0150    4.5120 N.pl3  69  ARG69       0.1354
     93  N         24.0070   24.7300    8.2420 N.am   70  ASN70      -0.1960
     94  CA        22.9360   25.7040    8.2840 C.3    70  ASN70       0.1819
     95  C         22.4570   25.9770    6.8700 C.2    70  ASN70       0.2621
     96  O         23.1820   26.5550    6.0620 O.2    70  ASN70      -0.2715
     97  CB        23.4150   26.9860    8.9500 C.3    70  ASN70       0.1195
     98  CG        22.2700   27.9480    9.2350 C.2    70  ASN70       0.2630
     99  OD1       21.1320   27.7430    8.7940 O.2    70  ASN70      -0.2716
    100  ND2       22.5690   29.0000    9.9720 N.am   70  ASN70      -0.0877
    101  N         21.2280   25.5770    6.5680 N.am   71  ALA71      -0.1963
    102  CA        20.6260   25.7660    5.2560 C.3    71  ALA71       0.1728
    103  C         19.8460   27.0770    5.1450 C.2    71  ALA71       0.2616
    104  O         19.2700   27.3540    4.1060 O.2    71  ALA71      -0.2715
    105  CB        19.7190   24.5800    4.9360 C.3    71  ALA71       0.0334
    106  N         19.8350   27.8890    6.1990 N.am   72  HIS72      -0.1959
    107  CA        19.1690   29.2040    6.2020 C.3    72  HIS72       0.1787
    108  C         17.7250   29.0460    5.7100 C.2    72  HIS72       0.2620
    109  O         17.2660   29.7070    4.7810 O.2    72  HIS72      -0.2715
    110  CB        19.9180   30.2260    5.3680 C.3    72  HIS72       0.0785
    111  CG        21.3350   30.4200    5.8110 C.ar   72  HIS72       0.0821
    112  ND1       21.6820   30.7660    7.1000 N.ar   72  HIS72      -0.2267
    113  CD2       22.4970   30.3200    5.1260 C.ar   72  HIS72       0.1154
    114  CE1       22.9950   30.8810    7.1850 C.ar   72  HIS72       0.1986
    115  NE2       23.5100   30.5910    6.0110 N.ar   72  HIS72      -0.2212
    116  N         16.9840   28.2130    6.4140 N.am   73  SER73      -0.1950
    117  CA        15.6400   27.8450    6.0010 C.3    73  SER73       0.1924
    118  C         14.9280   27.1820    7.1810 C.2    73  SER73       0.2314
    119  O         15.5660   26.7360    8.1380 O.2    73  SER73      -0.2863
    120  CB        15.6890   26.9040    4.7940 C.3    73  SER73       0.2116
    121  OG        16.3220   25.6870    5.1320 O.3    73  SER73      -0.2180
    122  N         11.1840   24.7390    8.0780 N.3    75  THR75      -0.1218
    123  CA         9.9520   24.0690    7.6620 C.3    75  THR75       0.1862
    124  C          8.9510   24.0780    8.8070 C.2    75  THR75       0.2287
    125  O          9.3100   23.8360    9.9600 O.2    75  THR75      -0.2866
    126  CB        10.2290   22.6120    7.2890 C.3    75  THR75       0.1770
    127  OG1       11.1650   22.6320    6.2100 O.3    75  THR75      -0.2211
    128  CG2        8.9490   21.8760    6.8690 C.3    75  THR75       0.0375
    129  N          5.3170   22.0400    9.7010 N.3    77  TRP77      -0.1241
    130  CA         4.3470   21.0110    9.3930 C.3    77  TRP77       0.1605
    131  C          3.0670   21.3230   10.1420 C.2    77  TRP77       0.2264
    132  O          3.0830   21.5900   11.3270 O.2    77  TRP77      -0.2867
    133  CB         4.8340   19.6390    9.8510 C.3    77  TRP77       0.0550
    134  CG         5.9920   19.0540    9.1420 C.ar   77  TRP77       0.0003
    135  CD1        5.9300   18.0420    8.2450 C.ar   77  TRP77       0.0946
    136  CD2        7.3800   19.3680    9.3010 C.ar   77  TRP77       0.0152
    137  NE1        7.1860   17.6850    7.8370 N.ar   77  TRP77      -0.2442
    138  CE2        8.0950   18.4780    8.4810 C.ar   77  TRP77       0.0810
    139  CE3        8.0960   20.2700   10.1010 C.ar   77  TRP77       0.0012
    140  CZ2        9.4940   18.4820    8.4220 C.ar   77  TRP77       0.0191
    141  CZ3        9.4770   20.2510   10.0510 C.ar   77  TRP77       0.0001
    142  CH2       10.1580   19.3740    9.2190 C.ar   77  TRP77       0.0015
    143  N          3.2690   20.7830    4.6530 N.3    93  TRP93      -0.1241
    144  CA         4.3740   21.5720    5.1490 C.3    93  TRP93       0.1605
    145  C          4.7410   22.7030    4.2070 C.2    93  TRP93       0.2264
    146  O          4.4550   22.6460    3.0150 O.2    93  TRP93      -0.2867
    147  CB         5.6030   20.6980    5.4830 C.3    93  TRP93       0.0550
    148  CG         6.1040   19.7980    4.4110 C.ar   93  TRP93       0.0003
    149  CD1        5.9420   18.4510    4.3480 C.ar   93  TRP93       0.0946
    150  CD2        6.8810   20.1500    3.2550 C.ar   93  TRP93       0.0152
    151  NE1        6.5290   17.9470    3.2360 N.ar   93  TRP93      -0.2442
    152  CE2        7.1360   18.9670    2.5530 C.ar   93  TRP93       0.0810
    153  CE3        7.4120   21.3410    2.7720 C.ar   93  TRP93       0.0012
    154  CZ2        7.8870   18.9390    1.3750 C.ar   93  TRP93       0.0191
    155  CZ3        8.1580   21.3200    1.5950 C.ar   93  TRP93       0.0001
    156  CH2        8.3740   20.1310    0.9020 C.ar   93  TRP93       0.0015
    157  N          8.2390   25.0510    3.5120 N.3    95  LEU95      -0.1245
    158  CA         9.6810   25.1840    3.7240 C.3    95  LEU95       0.1561
    159  C         10.1300   26.5040    3.1110 C.2    95  LEU95       0.2260
    160  O         10.1960   26.6440    1.8930 O.2    95  LEU95      -0.2867
    161  CB        10.4050   23.9970    3.0720 C.3    95  LEU95       0.0270
    162  CG        11.9180   24.0860    2.8060 C.3    95  LEU95       0.0019
    163  CD1       12.7240   24.5410    4.0020 C.3    95  LEU95       0.0001
    164  CD2       12.4210   22.7520    2.3370 C.3    95  LEU95       0.0001
    165  N          3.7430   15.2190    4.1040 N.3   113  ASP113     -0.1239
    166  CA         4.3950   14.0810    4.7450 C.3   113  ASP113      0.1674
    167  C          3.3860   13.3130    5.5600 C.2   113  ASP113      0.2266
    168  O          2.5740   13.8970    6.2690 O.2   113  ASP113     -0.2867
    169  CB         5.5230   14.5240    5.7170 C.3   113  ASP113      0.1410
    170  CG         6.7600   15.0580    5.0470 C.2   113  ASP113      0.3668
    171  OD1        6.9050   15.0370    3.8100 O.co2 113  ASP113     -0.2456
    172  OD2        7.5950   15.5710    5.8250 O.co2 113  ASP113     -0.2456
@<TRIPOS>BOND
     1    16    14    1
     2   156   154   ar
     3   156   155   ar
     4   154   152   ar
     5   155   153   ar
     6   160   159    2
     7    14    15    1
     8    14    13    1
     9   164   162    1
    10   152   151   ar
    11   152   150   ar
    12   153   150   ar
    13   162   161    1
    14   162   163    1
    15   146   145    2
    16    10    13    1
    17    10     9    1
    18    10    11    1
    19   161   158    1
    20   159   158    1
    21   151   149   ar
    22   150   148   ar
    23   157   158    1
    24   171   170   ar
    25    12    11    2
    26   165   166    1
    27   104   103    2
    28   145   144    1
    29   149   148   ar
    30   148   147    1
    31    92    90    1
    32   143   144    1
    33   166   167    1
    34   166   169    1
    35   109   108    2
    36   120   121    1
    37   120   117    1
    38   105   102    1
    39   170   169    1
    40   170   172   ar
    41   113   111   ar
    42   113   115   ar
    43   103   102    1
    44   103   106   am
    45   144   147    1
    46    90    91    1
    47    90    89    2
    48   102   101    1
    49   110   111    1
    50   110   107    1
    51   167   168    2
    52    89    88    1
    53   108   107    1
    54   108   116   am
    55   111   112   ar
    56     3     4    2
    57     3     2    1
    58   117   116    1
    59   117   118    1
    60   115   114   ar
    61    96    95    2
    62     7     6    2
    63   106   107    1
    64   127   126    1
    65    88    87    1
    66     8     6   am
    67     6     5    1
    68   101    95   am
    69    22    21    1
    70   128   126    1
    71    95    94    1
    72    87    86    1
    73     5     2    1
    74    48    49    1
    75    48    45    1
    76   112   114   ar
    77    17    18    1
    78   118   119    2
    79    76    74   ar
    80    76    77   ar
    81     2     1    1
    82    74    73   ar
    83   126   123    1
    84   123   122    1
    85   123   124    1
    86    73    72    1
    87    73    75   ar
    88    77    79   ar
    89    77    75   ar
    90   137   135   ar
    91   137   138   ar
    92    79    81   ar
    93    21    18    1
    94    72    69    1
    95    45    46    1
    96    45    44    1
    97    75    78   ar
    98    46    47    2
    99    18    19    1
   100    93    94    1
   101    93    84   am
   102   135   134   ar
   103    94    97    1
   104    86    83    1
   105   140   138   ar
   106   140   142   ar
   107   138   136   ar
   108    81    80   ar
   109    34    33    1
   110    78    80   ar
   111    99    98    2
   112    67    66    1
   113   124   125    2
   114    71    70    2
   115    97    98    1
   116    83    84    1
   117    83    82    1
   118   134   136   ar
   119   134   133    1
   120    84    85    2
   121   142   141   ar
   122    98   100   am
   123   136   139   ar
   124    44    37   am
   125   130   129    1
   126   130   133    1
   127   130   131    1
   128    31    33   ar
   129    31    29   ar
   130    69    70    1
   131    69    68    1
   132    20    19    2
   133    33    32   ar
   134    66    64   ar
   135    66    65   ar
   136    38    37    2
   137   141   139   ar
   138    54    51    1
   139    54    55    1
   140    64    62   ar
   141   131   132    2
   142    37    36    1
   143    51    50    1
   144    51    52    1
   145    29    28   ar
   146    65    63   ar
   147    32    30   ar
   148    53    52    2
   149    62    61   ar
   150    36    35    1
   151    36    39    1
   152    63    61   ar
   153    28    30   ar
   154    28    27    1
   155    61    60    1
   156    35    25   am
   157    39    40    1
   158    26    25    2
   159    25    24    1
   160    27    24    1
   161    60    57    1
   162    24    23    1
   163    40    41    1
   164    42    41   ar
   165    56    57    1
   166    41    43   ar
   167    57    58    1
   168    58    59    2
