@<TRIPOS>MOLECULE
tmp/4cpiD00.pdb
 174 169 0 0 0
SMALL
GASTEIGER

@<TRIPOS>ATOM
      1  N         32.2250    7.7060  127.5980 N.3     8  ASN8       -0.1240
      2  CA        32.5570    9.1120  127.8340 C.3     8  ASN8        0.1653
      3  C         31.7940   10.0450  126.9070 C.2     8  ASN8        0.2266
      4  O         30.9520    9.6260  126.0980 O.2     8  ASN8       -0.2867
      5  CB        34.0650    9.3540  127.7450 C.3     8  ASN8        0.1155
      6  CG        34.6290    9.2760  126.3390 C.2     8  ASN8        0.2627
      7  OD1       33.9180    9.2610  125.3430 O.2     8  ASN8       -0.2716
      8  ND2       35.9660    9.2620  126.2680 N.am    8  ASN8       -0.0877
      9  N         32.7060   11.8160  124.4360 N.3    10  LEU10      -0.1245
     10  CA        33.0720   11.7680  123.0070 C.3    10  LEU10       0.1561
     11  C         32.4190   10.6130  122.2640 C.2    10  LEU10       0.2260
     12  O         32.5280   10.5090  121.0380 O.2    10  LEU10      -0.2867
     13  CB        34.5910   11.6330  122.8470 C.3    10  LEU10       0.0270
     14  CG        35.4560   12.8710  123.0720 C.3    10  LEU10       0.0019
     15  CD1       36.9420   12.5220  123.0080 C.3    10  LEU10       0.0001
     16  CD2       35.1270   13.9510  122.0560 C.3    10  LEU10       0.0001
     17  N         33.1380    7.3810  123.1770 N.3    12  SER12      -0.1217
     18  CA        33.9930    6.2040  123.3140 C.3    12  SER12       0.1889
     19  C         33.4810    5.2650  124.3760 C.2    12  SER12       0.2288
     20  O         32.7750    5.6730  125.2900 O.2    12  SER12      -0.2866
     21  CB        35.4230    6.6120  123.6470 C.3    12  SER12       0.2089
     22  OG        35.9280    7.3870  122.5850 O.3    12  SER12      -0.2183
     23  N         39.3310   -0.6630  124.6480 N.3    28  TYR28      -0.1241
     24  CA        38.8700    0.7050  124.4650 C.3    28  TYR28       0.1605
     25  C         38.4630    0.8600  123.0200 C.2    28  TYR28       0.2264
     26  O         39.2180    0.4790  122.1210 O.2    28  TYR28      -0.2867
     27  CB        39.9930    1.6870  124.8390 C.3    28  TYR28       0.0534
     28  CG        39.5030    3.0940  125.1360 C.ar   28  TYR28      -0.0201
     29  CD1       39.2700    4.0080  124.1150 C.ar   28  TYR28      -0.0009
     30  CD2       39.2580    3.5030  126.4360 C.ar   28  TYR28      -0.0009
     31  CE1       38.7930    5.2870  124.3870 C.ar   28  TYR28       0.0417
     32  CE2       38.8030    4.7670  126.7230 C.ar   28  TYR28       0.0417
     33  CZ        38.5630    5.6630  125.7020 C.ar   28  TYR28       0.1957
     34  OH        38.1060    6.9090  126.0250 O.3    28  TYR28      -0.2866
     35  N         37.2670    3.6220  120.2740 N.3    30  SER30      -0.1202
     36  CA        37.0220    5.0070  119.8890 C.3    30  SER30       0.2020
     37  C         35.6740    5.0710  119.1680 C.2    30  SER30       0.2619
     38  O         35.2140    4.0830  118.6040 O.2    30  SER30      -0.2717
     39  CB        38.1500    5.5630  119.0120 C.3    30  SER30       0.2103
     40  OG        38.9620    4.5440  118.4610 O.3    30  SER30      -0.2182
     41  N         35.0440    6.2370  119.1920 N.am   31  ALA31      -0.1965
     42  CA        33.6130    6.3370  118.9000 C.3    31  ALA31       0.1728
     43  C         33.1660    5.8080  117.5270 C.2    31  ALA31       0.2616
     44  O         32.1470    5.1210  117.4370 O.2    31  ALA31      -0.2715
     45  CB        33.1740    7.7810  119.0440 C.3    31  ALA31       0.0334
     46  N         33.9090    6.1180  116.4670 N.am   32  VAL32      -0.1977
     47  CA        33.3780    5.9410  115.1120 C.3    32  VAL32       0.1596
     48  C         33.2590    4.4830  114.6450 C.2    32  VAL32       0.2287
     49  O         32.2350    4.1030  114.0790 O.2    32  VAL32      -0.2864
     50  CB        34.2300    6.7260  114.0650 C.3    32  VAL32       0.0276
     51  CG1       35.6380    6.1400  113.9090 C.3    32  VAL32       0.0022
     52  CG2       33.5090    6.7680  112.7200 C.3    32  VAL32       0.0022
     53  N         40.9370   -1.3360  120.8080 N.3    39  TYR39      -0.1241
     54  CA        42.3440   -1.3950  121.2080 C.3    39  TYR39       0.1605
     55  C         42.4830   -1.9890  122.5940 C.2    39  TYR39       0.2264
     56  O         41.6140   -1.8280  123.4370 O.2    39  TYR39      -0.2867
     57  CB        42.9690   -0.0020  121.1960 C.3    39  TYR39       0.0534
     58  CG        42.9100    0.6580  119.8540 C.ar   39  TYR39      -0.0201
     59  CD1       41.7750    1.3500  119.4410 C.ar   39  TYR39      -0.0009
     60  CD2       43.9910    0.6100  118.9940 C.ar   39  TYR39      -0.0009
     61  CE1       41.7170    1.9420  118.2000 C.ar   39  TYR39       0.0417
     62  CE2       43.9410    1.2080  117.7500 C.ar   39  TYR39       0.0417
     63  CZ        42.7990    1.8670  117.3500 C.ar   39  TYR39       0.1957
     64  OH        42.7520    2.4580  116.1020 O.3    39  TYR39      -0.2866
     65  N         47.6770    3.1320  120.4720 N.3    64  TRP64      -0.1241
     66  CA        46.7280    3.1660  119.3680 C.3    64  TRP64       0.1605
     67  C         47.1930    2.3610  118.1450 C.2    64  TRP64       0.2264
     68  O         47.1890    2.8530  117.0100 O.2    64  TRP64      -0.2867
     69  CB        46.4100    4.6180  118.9930 C.3    64  TRP64       0.0550
     70  CG        45.8200    5.3350  120.1560 C.ar   64  TRP64       0.0003
     71  CD1       46.4340    6.2600  120.9520 C.ar   64  TRP64       0.0946
     72  CD2       44.5060    5.1530  120.6870 C.ar   64  TRP64       0.0152
     73  NE1       45.5880    6.6570  121.9470 N.ar   64  TRP64      -0.2442
     74  CE2       44.3930    6.0000  121.8070 C.ar   64  TRP64       0.0810
     75  CE3       43.4130    4.3600  120.3200 C.ar   64  TRP64       0.0012
     76  CZ2       43.2340    6.0780  122.5670 C.ar   64  TRP64       0.0191
     77  CZ3       42.2580    4.4370  121.0690 C.ar   64  TRP64       0.0001
     78  CH2       42.1720    5.3000  122.1850 C.ar   64  TRP64       0.0015
     79  N         44.2540   -3.3490  112.5230 N.3    68  TYR68      -0.1227
     80  CA        43.7390   -2.5510  111.4110 C.3    68  TYR68       0.1736
     81  C         44.4870   -1.2330  111.2100 C.2    68  TYR68       0.2595
     82  O         44.6150   -0.7550  110.0830 O.2    68  TYR68      -0.2718
     83  CB        42.2620   -2.2240  111.6310 C.3    68  TYR68       0.0548
     84  CG        41.3380   -3.4110  111.6550 C.ar   68  TYR68      -0.0200
     85  CD1       41.1990   -4.1850  112.7990 C.ar   68  TYR68      -0.0009
     86  CD2       40.5810   -3.7430  110.5390 C.ar   68  TYR68      -0.0009
     87  CE1       40.3390   -5.2640  112.8270 C.ar   68  TYR68       0.0417
     88  CE2       39.7230   -4.8230  110.5580 C.ar   68  TYR68       0.0417
     89  CZ        39.6070   -5.5770  111.7050 C.ar   68  TYR68       0.1957
     90  OH        38.7510   -6.6520  111.7230 O.3    68  TYR68      -0.2866
     91  N         44.9340   -0.6380  112.3120 N.am   69  ARG69      -0.1966
     92  CA        45.4610    0.7190  112.3130 C.3    69  ARG69       0.1729
     93  C         46.6230    0.9010  113.2710 C.2    69  ARG69       0.2616
     94  O         46.7200    0.1970  114.2660 O.2    69  ARG69      -0.2715
     95  CB        44.3810    1.7100  112.7350 C.3    69  ARG69       0.0348
     96  CG        43.0550    1.5120  112.0840 C.3    69  ARG69       0.0492
     97  CD        42.0590    2.5330  112.6030 C.3    69  ARG69       0.2205
     98  NE        40.9640    2.6730  111.6470 N.pl3  69  ARG69      -0.0865
     99  CZ        39.9560    3.5260  111.7740 C.cat  69  ARG69       0.5346
    100  NH1       39.8830    4.3200  112.8310 N.pl3  69  ARG69       0.1354
    101  NH2       39.0140    3.5800  110.8360 N.pl3  69  ARG69       0.1354
    102  N         47.4480    1.9150  113.0170 N.am   70  ASN70      -0.1958
    103  CA        48.4840    2.3110  113.9660 C.3    70  ASN70       0.1819
    104  C         48.7130    3.8180  113.8680 C.2    70  ASN70       0.2621
    105  O         49.2010    4.3070  112.8520 O.2    70  ASN70      -0.2715
    106  CB        49.7840    1.5540  113.7030 C.3    70  ASN70       0.1195
    107  CG        50.8100    1.7630  114.8050 C.2    70  ASN70       0.2630
    108  OD1       50.6330    2.6160  115.6640 O.2    70  ASN70      -0.2716
    109  ND2       51.8790    0.9830  114.7790 N.am   70  ASN70      -0.0877
    110  N         48.3220    4.5440  114.9070 N.am   71  ASP71      -0.1971
    111  CA        48.4260    6.0030  114.9240 C.3    71  ASP71       0.1709
    112  C         49.7290    6.4610  115.5990 C.2    71  ASP71       0.2293
    113  O         49.9230    7.6410  115.8320 O.2    71  ASP71      -0.2864
    114  CB        47.2130    6.6140  115.6520 C.3    71  ASP71       0.1436
    115  CG        46.7390    7.9260  115.0310 C.2    71  ASP71       0.3671
    116  OD1       47.3870    8.4270  114.0890 O.co2  71  ASP71      -0.2456
    117  OD2       45.6930    8.4590  115.4810 O.co2  71  ASP71      -0.2456
    118  N         50.9390    6.3540  118.6010 N.3    73  SER73      -0.1217
    119  CA        50.6300    7.1950  119.7430 C.3    73  SER73       0.1889
    120  C         50.0330    6.3660  120.8620 C.2    73  SER73       0.2288
    121  O         49.6110    5.2320  120.6450 O.2    73  SER73      -0.2866
    122  CB        49.6710    8.3190  119.3310 C.3    73  SER73       0.2089
    123  OG        48.5180    7.8190  118.6750 O.3    73  SER73      -0.2183
    124  N         47.7450    6.8890  124.7460 N.3    75  THR75      -0.1218
    125  CA        47.0560    7.7280  125.7120 C.3    75  THR75       0.1862
    126  C         47.0680    7.0790  127.0750 C.2    75  THR75       0.2287
    127  O         46.8650    5.8590  127.1870 O.2    75  THR75      -0.2866
    128  CB        45.5990    7.9760  125.2990 C.3    75  THR75       0.1770
    129  OG1       45.5900    8.6300  124.0300 O.3    75  THR75      -0.2211
    130  CG2       44.8960    8.8880  126.3050 C.3    75  THR75       0.0375
    131  N         45.1650    7.6000  130.8360 N.3    77  TRP77      -0.1241
    132  CA        44.1620    8.2430  131.6640 C.3    77  TRP77       0.1605
    133  C         44.4850    8.0430  133.1280 C.2    77  TRP77       0.2264
    134  O         44.7340    6.9360  133.5700 O.2    77  TRP77      -0.2867
    135  CB        42.7710    7.6810  131.4090 C.3    77  TRP77       0.0550
    136  CG        42.1350    7.9240  130.0810 C.ar   77  TRP77       0.0003
    137  CD1       41.1200    8.7930  129.8160 C.ar   77  TRP77       0.0946
    138  CD2       42.4010    7.2320  128.8480 C.ar   77  TRP77       0.0152
    139  NE1       40.7450    8.7180  128.5010 N.ar   77  TRP77      -0.2442
    140  CE2       41.5240    7.7610  127.8870 C.ar   77  TRP77       0.0810
    141  CE3       43.3040    6.2290  128.4690 C.ar   77  TRP77       0.0012
    142  CZ2       41.5050    7.3060  126.5580 C.ar   77  TRP77       0.0191
    143  CZ3       43.2790    5.7830  127.1480 C.ar   77  TRP77       0.0001
    144  CH2       42.3830    6.3150  126.2270 C.ar   77  TRP77       0.0015
    145  N         43.8390   13.0550  130.8810 N.3    93  TRP93      -0.1241
    146  CA        44.6270   12.1930  130.0310 C.3    93  TRP93       0.1605
    147  C         45.7120   12.9560  129.3040 C.2    93  TRP93       0.2264
    148  O         45.6630   14.1860  129.1440 O.2    93  TRP93      -0.2867
    149  CB        43.7290   11.4460  129.0290 C.3    93  TRP93       0.0550
    150  CG        42.8380   12.2490  128.1440 C.ar   93  TRP93       0.0003
    151  CD1       41.4760   12.3990  128.2680 C.ar   93  TRP93       0.0946
    152  CD2       43.2030   13.0200  126.9890 C.ar   93  TRP93       0.0152
    153  NE1       40.9840   13.1800  127.2790 N.ar   93  TRP93      -0.2442
    154  CE2       42.0220   13.5730  126.4670 C.ar   93  TRP93       0.0810
    155  CE3       44.4140   13.2540  126.3160 C.ar   93  TRP93       0.0012
    156  CZ2       42.0060   14.3930  125.3360 C.ar   93  TRP93       0.0191
    157  CZ3       44.3830   14.0460  125.1750 C.ar   93  TRP93       0.0001
    158  CH2       43.1990   14.6180  124.7120 C.ar   93  TRP93       0.0015
    159  N         48.0100   12.2650  125.7220 N.3    95  LEU95      -0.1245
    160  CA        48.1770   11.5070  124.4780 C.3    95  LEU95       0.1561
    161  C         49.5010   11.9180  123.8810 C.2    95  LEU95       0.2260
    162  O         49.6610   13.0480  123.4560 O.2    95  LEU95      -0.2867
    163  CB        47.0320   11.7810  123.5010 C.3    95  LEU95       0.0270
    164  CG        46.9910   10.9810  122.1980 C.3    95  LEU95       0.0019
    165  CD1       45.6250   11.1510  121.5420 C.3    95  LEU95       0.0001
    166  CD2       48.0810   11.3470  121.2140 C.3    95  LEU95       0.0001
    167  N         38.3310   13.3760  130.3330 N.3   113  ASP113     -0.1239
    168  CA        37.1590   12.5530  129.9890 C.3   113  ASP113      0.1674
    169  C         36.4070   12.2130  131.2600 C.2   113  ASP113      0.2266
    170  O         37.0160   11.8810  132.2630 O.2   113  ASP113     -0.2867
    171  CB        37.5450   11.2310  129.3250 C.3   113  ASP113      0.1410
    172  CG        38.0710   11.3800  127.9120 C.2   113  ASP113      0.3668
    173  OD1       37.8950   12.4360  127.2740 O.co2 113  ASP113     -0.2456
    174  OD2       38.6740   10.3850  127.4420 O.co2 113  ASP113     -0.2456
@<TRIPOS>BOND
     1    82    81    2
     2    86    88   ar
     3    86    84   ar
     4    88    89   ar
     5   101    99    1
     6    81    80    1
     7    81    91   am
     8    80    83    1
     9    80    79    1
    10    83    84    1
    11    98    99    2
    12    98    97    1
    13    84    85   ar
    14    89    90    1
    15    89    87   ar
    16    99   100    1
    17    96    97    1
    18    96    95    1
    19    91    92    1
    20    92    95    1
    21    92    93    1
    22    52    50    1
    23    85    87   ar
    24   105   104    2
    25   102    93   am
    26   102   103    1
    27    93    94    2
    28   106   103    1
    29   106   107    1
    30   104   103    1
    31   104   110   am
    32    51    50    1
    33    50    47    1
    34    49    48    2
    35   116   115   ar
    36    48    47    1
    37   109   107   am
    38   107   108    2
    39   110   111    1
    40   111   112    1
    41   111   114    1
    42   115   117   ar
    43   115   114    1
    44    47    46    1
    45   112   113    2
    46    64    63    1
    47    46    43   am
    48    68    67    2
    49    63    62   ar
    50    63    61   ar
    51    44    43    2
    52    43    42    1
    53    62    60   ar
    54    67    66    1
    55    61    59   ar
    56    40    39    1
    57   118   119    1
    58    38    37    2
    59   123   122    1
    60    42    45    1
    61    42    41    1
    62    69    66    1
    63    69    70    1
    64    60    58   ar
    65    39    36    1
    66    37    41   am
    67    37    36    1
    68   122   119    1
    69    66    65    1
    70    59    58   ar
    71   119   120    1
    72    58    57    1
    73    36    35    1
    74    70    72   ar
    75    70    71   ar
    76    75    72   ar
    77    75    77   ar
    78   121   120    2
    79    72    74   ar
    80    53    54    1
    81    71    73   ar
    82    12    11    2
    83    77    78   ar
    84    57    54    1
    85    54    55    1
    86   166   164    1
    87   165   164    1
    88    74    73   ar
    89    74    76   ar
    90    16    14    1
    91    26    25    2
    92    78    76   ar
    93   164   163    1
    94    11    10    1
    95    22    21    1
    96    55    56    2
    97    13    10    1
    98    13    14    1
    99    10     9    1
   100    15    14    1
   101    25    24    1
   102    17    18    1
   103    18    21    1
   104    18    19    1
   105   162   161    2
   106   163   160    1
   107   161   160    1
   108   129   128    1
   109    29    31   ar
   110    29    28   ar
   111    19    20    2
   112    31    33   ar
   113    24    23    1
   114    24    27    1
   115   160   159    1
   116   158   157   ar
   117   158   156   ar
   118   124   125    1
   119    27    28    1
   120    28    30   ar
   121   157   155   ar
   122   128   125    1
   123   128   130    1
   124   156   154   ar
   125     7     6    2
   126    33    34    1
   127    33    32   ar
   128   125   126    1
   129     4     3    2
   130   144   142   ar
   131   144   143   ar
   132     8     6   am
   133   155   152   ar
   134     6     5    1
   135    30    32   ar
   136   154   152   ar
   137   154   153   ar
   138   142   140   ar
   139     3     2    1
   140   152   150   ar
   141   126   127    2
   142   143   141   ar
   143   173   172   ar
   144   153   151   ar
   145   174   172   ar
   146     1     2    1
   147     5     2    1
   148   140   139   ar
   149   140   138   ar
   150   172   171    1
   151   150   151   ar
   152   150   149    1
   153   141   138   ar
   154   139   137   ar
   155   138   136   ar
   156   149   146    1
   157   148   147    2
   158   147   146    1
   159   171   168    1
   160   137   136   ar
   161   168   167    1
   162   168   169    1
   163   146   145    1
   164   136   135    1
   165   131   132    1
   166   169   170    2
   167   135   132    1
   168   132   133    1
   169   133   134    2
