@<TRIPOS>MOLECULE
tmp/4cpiB00.pdb
 142 135 0 0 0
SMALL
GASTEIGER

@<TRIPOS>ATOM
      1  N          7.9780   24.1010   83.5410 N.3     9  ASN9       -0.1240
      2  CA         9.3860   23.7770   83.7880 C.3     9  ASN9        0.1653
      3  C         10.3350   24.5840   82.9360 C.2     9  ASN9        0.2266
      4  O          9.9370   25.4890   82.1860 O.2     9  ASN9       -0.2867
      5  CB         9.6620   22.2730   83.6300 C.3     9  ASN9        0.1155
      6  CG         9.6380   21.7820   82.2000 C.2     9  ASN9        0.2627
      7  OD1        9.6150   22.5500   81.2400 O.2     9  ASN9       -0.2716
      8  ND2        9.6650   20.4420   82.0600 N.am    9  ASN9       -0.0877
      9  N         12.1100   23.7730   80.4610 N.3    11  LEU11      -0.1245
     10  CA        12.1270   23.4220   79.0370 C.3    11  LEU11       0.1561
     11  C         10.9840   24.0570   78.2420 C.2    11  LEU11       0.2260
     12  O         10.9440   23.9430   77.0190 O.2    11  LEU11      -0.2867
     13  CB        12.0460   21.9000   78.8620 C.3    11  LEU11       0.0270
     14  CG        13.2670   21.0610   79.2450 C.3    11  LEU11       0.0019
     15  CD1       12.9490   19.5650   79.1130 C.3    11  LEU11       0.0001
     16  CD2       14.4660   21.4330   78.3920 C.3    11  LEU11       0.0001
     17  N          7.7250   23.2820   79.0830 N.3    13  SER13      -0.1217
     18  CA         6.5670   22.4210   79.2300 C.3    13  SER13       0.1889
     19  C          5.5890   22.9170   80.2870 C.2    13  SER13       0.2288
     20  O          5.9660   23.6070   81.2290 O.2    13  SER13      -0.2866
     21  CB         6.9990   20.9980   79.5890 C.3    13  SER13       0.2089
     22  OG         7.8420   20.5100   78.5760 O.3    13  SER13      -0.2183
     23  N         -0.2910   17.0930   80.5200 N.3    29  TYR29      -0.1241
     24  CA         1.0640   17.5540   80.3330 C.3    29  TYR29       0.1605
     25  C          1.2040   17.9330   78.8830 C.2    29  TYR29       0.2264
     26  O          0.8480   17.1760   77.9900 O.2    29  TYR29      -0.2867
     27  CB         2.0590   16.4550   80.7190 C.3    29  TYR29       0.0534
     28  CG         3.4490   16.9360   81.0340 C.ar   29  TYR29      -0.0201
     29  CD1        4.3830   17.1370   80.0350 C.ar   29  TYR29      -0.0009
     30  CD2        3.8290   17.1700   82.3360 C.ar   29  TYR29      -0.0009
     31  CE1        5.6600   17.5930   80.3320 C.ar   29  TYR29       0.0417
     32  CE2        5.0950   17.6280   82.6500 C.ar   29  TYR29       0.0417
     33  CZ         6.0060   17.8410   81.6400 C.ar   29  TYR29       0.1957
     34  OH         7.2660   18.2920   81.9360 O.3    29  TYR29      -0.2866
     35  N          4.1650   19.0600   76.4020 N.3    31  SER31      -0.1217
     36  CA         5.6200   19.1540   76.2950 C.3    31  SER31       0.1889
     37  C          6.0290   20.1900   75.2610 C.2    31  SER31       0.2288
     38  O          6.0860   19.8930   74.0700 O.2    31  SER31      -0.2866
     39  CB         6.2210   17.7950   75.9320 C.3    31  SER31       0.2089
     40  OG         5.6990   17.3230   74.7000 O.3    31  SER31      -0.2183
     41  N         -0.9810   15.4540   76.7000 N.3    37  TYR37      -0.1241
     42  CA        -1.0410   14.0540   77.1260 C.3    37  TYR37       0.1605
     43  C         -1.6240   13.9140   78.5240 C.2    37  TYR37       0.2264
     44  O         -1.4630   14.7880   79.3620 O.2    37  TYR37      -0.2867
     45  CB         0.3590   13.4380   77.0950 C.3    37  TYR37       0.0534
     46  CG         1.0010   13.4620   75.7370 C.ar   37  TYR37      -0.0201
     47  CD1        1.6740   14.5880   75.2910 C.ar   37  TYR37      -0.0009
     48  CD2        0.9560   12.3600   74.9040 C.ar   37  TYR37      -0.0009
     49  CE1        2.2560   14.6290   74.0590 C.ar   37  TYR37       0.0417
     50  CE2        1.5390   12.3840   73.6680 C.ar   37  TYR37       0.0417
     51  CZ         2.1960   13.5170   73.2460 C.ar   37  TYR37       0.1957
     52  OH         2.7870   13.5530   72.0050 O.3    37  TYR37      -0.2866
     53  N          3.4640    8.6630   76.4560 N.3    62  TRP62      -0.1241
     54  CA         3.5290    9.5860   75.3240 C.3    62  TRP62       0.1605
     55  C          2.7160    9.1160   74.1130 C.2    62  TRP62       0.2264
     56  O          3.2060    9.0900   72.9820 O.2    62  TRP62      -0.2867
     57  CB         5.0010    9.8290   74.9580 C.3    62  TRP62       0.0550
     58  CG         5.7290   10.4960   76.1140 C.ar   62  TRP62       0.0003
     59  CD1        6.6840    9.9450   76.9170 C.ar   62  TRP62       0.0946
     60  CD2        5.5100   11.8330   76.6110 C.ar   62  TRP62       0.0152
     61  NE1        7.0790   10.8560   77.8810 N.ar   62  TRP62      -0.2442
     62  CE2        6.3660   12.0180   77.7130 C.ar   62  TRP62       0.0810
     63  CE3        4.6720   12.8790   76.2320 C.ar   62  TRP62       0.0012
     64  CZ2        6.4170   13.2130   78.4300 C.ar   62  TRP62       0.0191
     65  CZ3        4.7280   14.0750   76.9470 C.ar   62  TRP62       0.0001
     66  CH2        5.6010   14.2290   78.0320 C.ar   62  TRP62       0.0015
     67  N         -0.4410   11.2130   68.2270 N.3    67  ARG67      -0.1245
     68  CA         0.9150   10.6610   68.1500 C.3    67  ARG67       0.1563
     69  C          1.1560    9.5740   69.1840 C.2    67  ARG67       0.2260
     70  O          0.4930    9.5270   70.2070 O.2    67  ARG67      -0.2867
     71  CB         1.9670   11.7530   68.3760 C.3    67  ARG67       0.0307
     72  CG         1.5760   13.1130   67.8550 C.3    67  ARG67       0.0489
     73  CD         2.7390   14.0930   67.9160 C.3    67  ARG67       0.2205
     74  NE         2.3110   15.4440   67.5630 N.pl3  67  ARG67      -0.0865
     75  CZ         1.8960   15.8100   66.3530 C.cat  67  ARG67       0.5346
     76  NH1        1.8490   14.9310   65.3600 N.pl3  67  ARG67       0.1354
     77  NH2        1.5260   17.0630   66.1320 N.pl3  67  ARG67       0.1354
     78  N          4.8060    7.8670   70.7930 N.3    69  ASP69      -0.1239
     79  CA         6.2640    7.7330   70.8340 C.3    69  ASP69       0.1674
     80  C          6.6990    6.4100   71.4740 C.2    69  ASP69       0.2266
     81  O          7.9020    6.1490   71.5800 O.2    69  ASP69      -0.2867
     82  CB         6.8940    8.8880   71.6120 C.3    69  ASP69       0.1410
     83  CG         8.3970    8.9010   71.5110 C.2    69  ASP69       0.3668
     84  OD1        8.9080    9.0300   70.3780 O.co2  69  ASP69      -0.2456
     85  OD2        9.0700    8.7870   72.5650 O.co2  69  ASP69      -0.2456
     86  N          6.6880    5.3150   74.5820 N.3    71  SER71      -0.1217
     87  CA         7.5340    5.6610   75.7180 C.3    71  SER71       0.1889
     88  C          6.6920    6.2590   76.8260 C.2    71  SER71       0.2288
     89  O          5.5200    6.6050   76.6180 O.2    71  SER71      -0.2866
     90  CB         8.6260    6.6430   75.2820 C.3    71  SER71       0.2089
     91  OG         8.0330    7.8360   74.8380 O.3    71  SER71      -0.2183
     92  N          7.2470    8.6570   80.6650 N.3    73  THR73      -0.1218
     93  CA         8.0870    9.3400   81.6440 C.3    73  THR73       0.1862
     94  C          7.4250    9.3000   83.0060 C.2    73  THR73       0.2287
     95  O          6.2250    9.5060   83.1170 O.2    73  THR73      -0.2866
     96  CB         8.3290   10.7910   81.2440 C.3    73  THR73       0.1770
     97  OG1        8.9770   10.8020   79.9730 O.3    73  THR73      -0.2211
     98  CG2        9.2210   11.5240   82.2820 C.3    73  THR73       0.0375
     99  N          7.9330   11.2190   86.7670 N.3    75  TRP75      -0.1241
    100  CA         8.5780   12.2410   87.5820 C.3    75  TRP75       0.1605
    101  C          8.3840   11.9200   89.0540 C.2    75  TRP75       0.2264
    102  O          7.2680   11.6850   89.4990 O.2    75  TRP75      -0.2867
    103  CB         7.9970   13.6240   87.3090 C.3    75  TRP75       0.0550
    104  CG         8.2440   14.2470   85.9930 C.ar   75  TRP75       0.0003
    105  CD1        9.1250   15.2570   85.7290 C.ar   75  TRP75       0.0946
    106  CD2        7.5530   13.9880   84.7530 C.ar   75  TRP75       0.0152
    107  NE1        9.0460   15.6400   84.4020 N.ar   75  TRP75      -0.2442
    108  CE2        8.0790   14.8790   83.7940 C.ar   75  TRP75       0.0810
    109  CE3        6.5330   13.1060   84.3720 C.ar   75  TRP75       0.0012
    110  CZ2        7.6340   14.9010   82.4760 C.ar   75  TRP75       0.0191
    111  CZ3        6.0940   13.1350   83.0560 C.ar   75  TRP75       0.0001
    112  CH2        6.6370   14.0290   82.1340 C.ar   75  TRP75       0.0015
    113  N         13.4150   12.5570   86.8080 N.3    91  TRP91      -0.1241
    114  CA        12.5290   11.7730   85.9560 C.3    91  TRP91       0.1605
    115  C         13.2790   10.6590   85.2510 C.2    91  TRP91       0.2264
    116  O         14.5170   10.6960   85.1040 O.2    91  TRP91      -0.2867
    117  CB        11.7880   12.6640   84.9290 C.3    91  TRP91       0.0550
    118  CG        12.6020   13.5540   84.0470 C.ar   91  TRP91       0.0003
    119  CD1       12.7530   14.9010   84.1770 C.ar   91  TRP91       0.0946
    120  CD2       13.3660   13.1810   82.8910 C.ar   91  TRP91       0.0152
    121  NE1       13.5500   15.3980   83.1810 N.ar   91  TRP91      -0.2442
    122  CE2       13.9390   14.3530   82.3730 C.ar   91  TRP91       0.0810
    123  CE3       13.5890   11.9720   82.2210 C.ar   91  TRP91       0.0012
    124  CZ2       14.7510   14.3480   81.2460 C.ar   91  TRP91       0.0191
    125  CZ3       14.4000   11.9890   81.0910 C.ar   91  TRP91       0.0001
    126  CH2       14.9670   13.1570   80.6230 C.ar   91  TRP91       0.0015
    127  N         12.6370    8.3590   81.6880 N.3    93  LEU93      -0.1245
    128  CA        11.9210    8.1460   80.4420 C.3    93  LEU93       0.1561
    129  C         12.3480    6.7890   79.9010 C.2    93  LEU93       0.2260
    130  O         13.4980    6.5780   79.5540 O.2    93  LEU93      -0.2867
    131  CB        12.1990    9.2680   79.4370 C.3    93  LEU93       0.0270
    132  CG        11.3290    9.3280   78.1760 C.3    93  LEU93       0.0019
    133  CD1       11.3850   10.7240   77.5720 C.3    93  LEU93       0.0001
    134  CD2       11.7600    8.2980   77.1570 C.3    93  LEU93       0.0001
    135  N         13.6910   18.0030   86.2490 N.3   111  ASP111     -0.1239
    136  CA        12.8640   19.1680   85.9170 C.3   111  ASP111      0.1674
    137  C         12.5330   19.9070   87.1990 C.2   111  ASP111      0.2266
    138  O         12.1960   19.2740   88.2050 O.2   111  ASP111     -0.2867
    139  CB        11.5570   18.7630   85.2450 C.3   111  ASP111      0.1410
    140  CG        11.7340   18.2820   83.8260 C.2   111  ASP111      0.3668
    141  OD1       12.8230   18.4770   83.2210 O.co2 111  ASP111     -0.2456
    142  OD2       10.7480   17.7240   83.3070 O.co2 111  ASP111     -0.2456
@<TRIPOS>BOND
     1    76    75    1
     2    77    75    1
     3    75    74    2
     4    74    73    1
     5    72    73    1
     6    72    71    1
     7    68    67    1
     8    68    71    1
     9    68    69    1
    10    69    70    2
    11    84    83   ar
    12    78    79    1
    13    79    80    1
    14    79    82    1
    15    80    81    2
    16    83    82    1
    17    83    85   ar
    18    52    51    1
    19    56    55    2
    20    51    50   ar
    21    51    49   ar
    22    50    48   ar
    23    49    47   ar
    24    38    37    2
    25    55    54    1
    26    86    87    1
    27    40    39    1
    28    91    90    1
    29    48    46   ar
    30    57    54    1
    31    57    58    1
    32    37    36    1
    33    90    87    1
    34    47    46   ar
    35    54    53    1
    36    87    88    1
    37    46    45    1
    38    39    36    1
    39    58    60   ar
    40    58    59   ar
    41    63    60   ar
    42    63    65   ar
    43    36    35    1
    44    60    62   ar
    45    89    88    2
    46    41    42    1
    47    59    61   ar
    48    65    66   ar
    49    12    11    2
    50    45    42    1
    51    42    43    1
    52   134   132    1
    53   133   132    1
    54    62    61   ar
    55    62    64   ar
    56    26    25    2
    57    66    64   ar
    58   132   131    1
    59    11    10    1
    60    16    14    1
    61    43    44    2
    62    22    21    1
    63    13    10    1
    64    13    14    1
    65    25    24    1
    66    10     9    1
    67    17    18    1
    68    15    14    1
    69    18    21    1
    70    18    19    1
    71   131   128    1
    72   130   129    2
    73   129   128    1
    74    97    96    1
    75    29    31   ar
    76    29    28   ar
    77    19    20    2
    78    31    33   ar
    79    24    23    1
    80    24    27    1
    81   128   127    1
    82   126   125   ar
    83   126   124   ar
    84    92    93    1
    85    27    28    1
    86    28    30   ar
    87   125   123   ar
    88     7     6    2
    89    96    93    1
    90    96    98    1
    91   124   122   ar
    92    33    34    1
    93    33    32   ar
    94    93    94    1
    95     8     6   am
    96   112   110   ar
    97   112   111   ar
    98     4     3    2
    99     6     5    1
   100   123   120   ar
   101    30    32   ar
   102   122   120   ar
   103   122   121   ar
   104   110   108   ar
   105   120   118   ar
   106     3     2    1
   107    94    95    2
   108   111   109   ar
   109   121   119   ar
   110   141   140   ar
   111   142   140   ar
   112     1     2    1
   113     5     2    1
   114   108   107   ar
   115   108   106   ar
   116   140   139    1
   117   118   119   ar
   118   118   117    1
   119   109   106   ar
   120   107   105   ar
   121   106   104   ar
   122   117   114    1
   123   116   115    2
   124   139   136    1
   125   115   114    1
   126   105   104   ar
   127   136   135    1
   128   136   137    1
   129   114   113    1
   130   104   103    1
   131    99   100    1
   132   137   138    2
   133   103   100    1
   134   100   101    1
   135   101   102    2
