@<TRIPOS>MOLECULE
tmp/4cpmB00.pdb
 93 94 0 0 0
SMALL
GASTEIGER

@<TRIPOS>ATOM
      1  N         19.3550  -58.2360   21.5040 N.3     3  GLU3       -0.1231
      2  CA        18.0520  -58.4320   20.8740 C.3     3  GLU3        0.1699
      3  C         17.8680  -59.9100   20.5910 C.2     3  GLU3        0.2592
      4  O         18.8240  -60.6690   20.6450 O.2     3  GLU3       -0.2718
      5  CB        17.9840  -57.6970   19.5320 C.3     3  GLU3        0.0402
      6  CG        18.2620  -56.2010   19.5570 C.3     3  GLU3        0.1161
      7  CD        18.4150  -55.6290   18.1500 C.2     3  GLU3        0.3649
      8  OE1       19.4490  -55.9040   17.5010 O.co2   3  GLU3       -0.2457
      9  OE2       17.4980  -54.9140   17.6870 O.co2   3  GLU3       -0.2457
     10  N         16.6450  -60.3220   20.2630 N.am    4  TRP4       -0.1962
     11  CA        16.4430  -61.6680   19.7240 C.3     4  TRP4        0.1771
     12  C         17.0490  -61.6770   18.3410 C.2     4  TRP4        0.2620
     13  O         17.3330  -60.6280   17.7640 O.2     4  TRP4       -0.2715
     14  CB        14.9710  -62.0540   19.5900 C.3     4  TRP4        0.0590
     15  CG        14.1460  -62.0540   20.8350 C.ar    4  TRP4        0.0006
     16  CD1       13.0070  -61.3420   21.0540 C.ar    4  TRP4        0.0946
     17  CD2       14.3590  -62.8400   22.0110 C.ar    4  TRP4        0.0152
     18  NE1       12.5070  -61.6160   22.2990 N.ar    4  TRP4       -0.2442
     19  CE2       13.3170  -62.5370   22.9080 C.ar    4  TRP4        0.0810
     20  CE3       15.3340  -63.7690   22.3970 C.ar    4  TRP4        0.0012
     21  CZ2       13.2190  -63.1260   24.1680 C.ar    4  TRP4        0.0191
     22  CZ3       15.2310  -64.3580   23.6470 C.ar    4  TRP4        0.0001
     23  CH2       14.1820  -64.0310   24.5180 C.ar    4  TRP4        0.0015
     24  N         17.2070  -62.8710   17.7980 N.am    5  THR5       -0.1937
     25  CA        17.9350  -63.0670   16.5650 C.3     5  THR5        0.2028
     26  C         17.0290  -63.6060   15.4720 C.2     5  THR5        0.2642
     27  O         16.0390  -64.2900   15.7390 O.2     5  THR5       -0.2714
     28  CB        19.1660  -63.9810   16.8020 C.3     5  THR5        0.1808
     29  OG1       20.3520  -63.2170   16.5580 O.3     5  THR5       -0.2208
     30  CG2       19.1450  -65.2350   15.9220 C.3     5  THR5        0.0379
     31  N         17.3710  -63.2720   14.2380 N.am    6  TYR6       -0.1960
     32  CA        16.5520  -63.5930   13.0930 C.3     6  TYR6        0.1756
     33  C         17.4660  -64.0260   11.9790 C.2     6  TYR6        0.2461
     34  O         18.6220  -63.6110   11.9310 O.2     6  TYR6       -0.2730
     35  CB        15.7540  -62.3620   12.6490 C.3     6  TYR6        0.0574
     36  CG        14.6700  -61.9520   13.6120 C.ar    6  TYR6       -0.0198
     37  CD1       14.9590  -61.1470   14.7050 C.ar    6  TYR6       -0.0009
     38  CD2       13.3480  -62.3660   13.4260 C.ar    6  TYR6       -0.0009
     39  CE1       13.9710  -60.7670   15.6010 C.ar    6  TYR6        0.0417
     40  CE2       12.3440  -61.9830   14.3120 C.ar    6  TYR6        0.0417
     41  CZ        12.6650  -61.1840   15.3990 C.ar    6  TYR6        0.1957
     42  OH        11.6880  -60.7970   16.2890 O.3     6  TYR6       -0.2866
     43  N         16.9590  -64.8700   11.0740 N.am    7  PRO7       -0.2716
     44  CA        17.8080  -65.2190    9.9390 C.3     7  PRO7        0.1536
     45  C         18.0120  -63.9900    9.0700 C.2     7  PRO7        0.2598
     46  O         17.0520  -63.2870    8.7640 O.2     7  PRO7       -0.2715
     47  CB        16.9950  -66.2940    9.2110 C.3     7  PRO7        0.0310
     48  CG        15.6020  -66.0460    9.6330 C.3     7  PRO7        0.0237
     49  CD        15.6710  -65.5800   11.0380 C.3     7  PRO7        0.0939
     50  N         19.2620  -63.7230    8.7090 N.am    8  ARG8       -0.1964
     51  CA        19.5790  -62.6200    7.8090 C.3     8  ARG8        0.1729
     52  C         19.8300  -63.1550    6.4130 C.2     8  ARG8        0.2616
     53  O         19.9310  -64.3640    6.2140 O.2     8  ARG8       -0.2715
     54  CB        20.7950  -61.8510    8.3150 C.3     8  ARG8        0.0348
     55  CG        20.5740  -61.2900    9.6980 C.3     8  ARG8        0.0492
     56  CD        21.7700  -60.5220   10.1920 C.3     8  ARG8        0.2205
     57  NE        22.8340  -61.4150   10.6080 N.pl3   8  ARG8       -0.0865
     58  CZ        24.0580  -61.0070   10.9060 C.cat   8  ARG8        0.5346
     59  NH1       24.3560  -59.7220   10.8170 N.pl3   8  ARG8        0.1354
     60  NH2       24.9810  -61.8810   11.2850 N.pl3   8  ARG8        0.1354
     61  N         19.8990  -62.2560    5.4400 N.am    9  LEU9       -0.1977
     62  CA        20.2920  -62.6510    4.1000 C.3     9  LEU9        0.1596
     63  C         21.6510  -63.3110    4.2090 C.2     9  LEU9        0.2287
     64  O         22.4110  -63.0300    5.1370 O.2     9  LEU9       -0.2864
     65  CB        20.3670  -61.4410    3.1710 C.3     9  LEU9        0.0297
     66  CG        19.0670  -60.9010    2.5940 C.3     9  LEU9        0.0022
     67  CD1       19.3210  -59.6010    1.8500 C.3     9  LEU9        0.0001
     68  CD2       18.4550  -61.9140    1.6580 C.3     9  LEU9        0.0001
     69  N         13.4420  -68.7370    5.0360 N.3   207  SER207     -0.1202
     70  CA        12.9490  -67.3710    5.0470 C.3   207  SER207      0.2020
     71  C         12.6550  -66.9740    6.4800 C.2   207  SER207      0.2618
     72  O         12.7660  -67.7880    7.4010 O.2   207  SER207     -0.2717
     73  CB        11.6740  -67.2390    4.2070 C.3   207  SER207      0.2103
     74  OG        10.5460  -67.8230    4.8560 O.3   207  SER207     -0.2182
     75  N         12.2770  -65.7170    6.6630 N.am  208  ASN208     -0.1974
     76  CA        11.8170  -65.2340    7.9470 C.3   208  ASN208      0.1688
     77  C         10.4770  -65.8930    8.3540 C.2   208  ASN208      0.2292
     78  O         10.0090  -65.7180    9.4880 O.2   208  ASN208     -0.2864
     79  CB        11.6540  -63.7240    7.8520 C.3   208  ASN208      0.1181
     80  CG        12.5400  -62.9560    8.8230 C.2   208  ASN208      0.2629
     81  OD1       13.2920  -63.5260    9.6250 O.2   208  ASN208     -0.2716
     82  ND2       12.4150  -61.6350    8.7700 N.am  208  ASN208     -0.0877
     83  N         20.3530  -68.0010    1.6170 N.3   280  ARG280     -0.1245
     84  CA        19.2240  -67.0790    1.4580 C.3   280  ARG280      0.1563
     85  C         19.5830  -65.8130    0.6890 C.2   280  ARG280      0.2260
     86  O         20.3760  -64.9940    1.1430 O.2   280  ARG280     -0.2867
     87  CB        18.6340  -66.7100    2.8110 C.3   280  ARG280      0.0307
     88  CG        17.9860  -67.8620    3.5160 C.3   280  ARG280      0.0489
     89  CD        17.5110  -67.4410    4.8730 C.3   280  ARG280      0.2205
     90  NE        18.6060  -66.8800    5.6450 N.pl3 280  ARG280     -0.0865
     91  CZ        19.4880  -67.6150    6.3030 C.cat 280  ARG280      0.5346
     92  NH1       19.3900  -68.9350    6.2710 N.pl3 280  ARG280      0.1354
     93  NH2       20.4620  -67.0340    6.9890 N.pl3 280  ARG280      0.1354
@<TRIPOS>BOND
     1    85    86    2
     2    85    84    1
     3    84    83    1
     4    84    87    1
     5    68    66    1
     6    67    66    1
     7    66    65    1
     8    87    88    1
     9    65    62    1
    10    88    89    1
    11    62    63    1
    12    62    61    1
    13    73    74    1
    14    73    70    1
    15    63    64    2
    16    89    90    1
    17    69    70    1
    18    70    71    1
    19    61    52   am
    20    90    91    2
    21    53    52    2
    22    92    91    1
    23    91    93    1
    24    52    51    1
    25    71    75   am
    26    71    72    2
    27    75    76    1
    28    51    54    1
    29    51    50    1
    30    79    76    1
    31    79    80    1
    32    76    77    1
    33    54    55    1
    34    77    78    2
    35    50    45   am
    36    46    45    2
    37    82    80   am
    38    80    81    2
    39    45    44    1
    40    47    48    1
    41    47    44    1
    42    48    49    1
    43    55    56    1
    44    44    43    1
    45    56    57    1
    46    57    58    2
    47    59    58    1
    48    58    60    1
    49    49    43    1
    50    43    33   am
    51    34    33    2
    52    33    32    1
    53    35    32    1
    54    35    36    1
    55    32    31    1
    56    38    36   ar
    57    38    40   ar
    58    36    37   ar
    59    31    26   am
    60    40    41   ar
    61    37    39   ar
    62    41    39   ar
    63    41    42    1
    64    26    27    2
    65    26    25    1
    66    30    28    1
    67    29    28    1
    68    25    28    1
    69    25    24    1
    70     8     7   ar
    71     9     7   ar
    72    13    12    2
    73    24    12   am
    74     7     6    1
    75    12    11    1
    76     5     6    1
    77     5     2    1
    78    14    11    1
    79    14    15    1
    80    11    10    1
    81    10     3   am
    82     3     4    2
    83     3     2    1
    84    15    16   ar
    85    15    17   ar
    86     2     1    1
    87    16    18   ar
    88    17    20   ar
    89    17    19   ar
    90    18    19   ar
    91    20    22   ar
    92    19    21   ar
    93    22    23   ar
    94    21    23   ar
