@<TRIPOS>MOLECULE
tmp/4cprB00.pdb
 122 115 0 0 0
SMALL
GASTEIGER

@<TRIPOS>ATOM
      1  N          8.8330   34.3360   -1.2250 N.3     8  ARG8       -0.1245
      2  CA         9.5460   33.0770   -1.4370 C.3     8  ARG8        0.1563
      3  C         10.4330   33.1630   -2.6750 C.2     8  ARG8        0.2260
      4  O          9.9870   33.6230   -3.7270 O.2     8  ARG8       -0.2867
      5  CB         8.5520   31.9250   -1.5950 C.3     8  ARG8        0.0307
      6  CG         7.8240   31.5670   -0.3170 C.3     8  ARG8        0.0489
      7  CD         6.8650   30.4120   -0.5260 C.3     8  ARG8        0.2205
      8  NE         6.2240   30.0280    0.7250 N.pl3   8  ARG8       -0.0865
      9  CZ         5.0520   29.4100    0.8050 C.cat   8  ARG8        0.5346
     10  NH1        4.3790   29.1160   -0.3000 N.pl3   8  ARG8        0.1354
     11  NH2        4.5400   29.1100    1.9910 N.pl3   8  ARG8        0.1354
     12  N         11.9980   26.1790   -5.1180 N.3    23  LEU23      -0.1245
     13  CA        12.3450   27.1230   -4.0720 C.3    23  LEU23       0.1561
     14  C         13.8470   27.0290   -3.7890 C.2    23  LEU23       0.2260
     15  O         14.3740   25.9340   -3.5890 O.2    23  LEU23      -0.2867
     16  CB        11.5620   26.7500   -2.8130 C.3    23  LEU23       0.0270
     17  CG        11.6760   27.6180   -1.5690 C.3    23  LEU23       0.0019
     18  CD1       11.0170   28.9690   -1.8040 C.3    23  LEU23       0.0001
     19  CD2       11.0190   26.8850   -0.4040 C.3    23  LEU23       0.0001
     20  N         16.6440   27.0520   -1.4800 N.3    25  ASP25      -0.1239
     21  CA        16.5070   26.7230   -0.0600 C.3    25  ASP25       0.1674
     22  C         17.8700   26.4590    0.5680 C.2    25  ASP25       0.2266
     23  O         18.3750   25.3370    0.5260 O.2    25  ASP25      -0.2867
     24  CB        15.6300   25.4800    0.1020 C.3    25  ASP25       0.1410
     25  CG        15.2330   25.2200    1.5450 C.2    25  ASP25       0.3668
     26  OD1       15.7780   25.8810    2.4580 O.co2  25  ASP25      -0.2456
     27  OD2       14.3800   24.3340    1.7630 O.co2  25  ASP25      -0.2456
     28  N         18.5570   26.2460    3.5880 N.3    27  GLY27      -0.1210
     29  CA        18.4020   25.3570    4.7360 C.3    27  GLY27       0.1956
     30  C         18.3140   23.8780    4.3870 C.2    27  GLY27       0.2612
     31  O         18.1730   23.0350    5.2720 O.2    27  GLY27      -0.2717
     32  N         18.3980   23.5570    3.1030 N.am   28  ALA28      -0.1965
     33  CA        18.3570   22.1660    2.6530 C.3    28  ALA28       0.1728
     34  C         19.7300   21.7140    2.1700 C.2    28  ALA28       0.2616
     35  O         20.3280   22.3550    1.3020 O.2    28  ALA28      -0.2715
     36  CB        17.3360   22.0070    1.5420 C.3    28  ALA28       0.0334
     37  N         20.2120   20.5860    2.6880 N.am   29  ASP29      -0.1957
     38  CA        21.4650   20.0180    2.1860 C.3    29  ASP29       0.1840
     39  C         21.2760   19.5650    0.7350 C.2    29  ASP29       0.2622
     40  O         22.2120   19.6080   -0.0680 O.2    29  ASP29      -0.2715
     41  CB        21.9060   18.8120    3.0140 C.3    29  ASP29       0.1450
     42  CG        22.1440   19.1390    4.4760 C.2    29  ASP29       0.3671
     43  OD1       22.4550   20.3030    4.8180 O.co2  29  ASP29      -0.2456
     44  OD2       22.2300   18.1640    5.2550 O.co2  29  ASP29      -0.2456
     45  N         20.1060   18.9940    0.4630 N.am   30  ASP30      -0.1971
     46  CA        19.8570   18.2450   -0.7570 C.3    30  ASP30       0.1709
     47  C         18.7470   18.9060   -1.5690 C.2    30  ASP30       0.2293
     48  O         17.9470   19.6700   -1.0320 O.2    30  ASP30      -0.2864
     49  CB        19.4500   16.8050   -0.4170 C.3    30  ASP30       0.1436
     50  CG        20.4700   16.0990    0.4600 C.2    30  ASP30       0.3671
     51  OD1       21.6550   16.0520    0.0730 O.co2  30  ASP30      -0.2456
     52  OD2       20.0900   15.6290    1.5530 O.co2  30  ASP30      -0.2456
     53  N         15.2450   18.2240   -3.4960 N.3    32  VAL32      -0.1245
     54  CA        14.1700   17.2460   -3.5330 C.3    32  VAL32       0.1561
     55  C         12.9870   17.7630   -4.3440 C.2    32  VAL32       0.2260
     56  O         12.5750   18.9090   -4.1960 O.2    32  VAL32      -0.2867
     57  CB        13.7120   16.8410   -2.1150 C.3    32  VAL32       0.0252
     58  CG1       13.1650   18.0390   -1.3700 C.3    32  VAL32       0.0019
     59  CG2       12.6770   15.7270   -2.1790 C.3    32  VAL32       0.0019
     60  N         15.5910   11.4990    4.3650 N.3    47  ILE47      -0.1231
     61  CA        15.9080   12.8830    4.6690 C.3    47  ILE47       0.1692
     62  C         14.9540   13.4270    5.7280 C.2    47  ILE47       0.2593
     63  O         13.8410   12.9260    5.8900 O.2    47  ILE47      -0.2718
     64  CB        15.8460   13.7750    3.4160 C.3    47  ILE47       0.0266
     65  CG1       14.4500   13.7470    2.8000 C.3    47  ILE47       0.0019
     66  CG2       16.8690   13.3250    2.3820 C.3    47  ILE47       0.0020
     67  CD1       14.2740   14.7320    1.6670 C.3    47  ILE47       0.0001
     68  N         15.4690   14.3340    6.5490 N.am   48  GLY48      -0.1942
     69  CA        14.7160   14.8750    7.6730 C.3    48  GLY48       0.2014
     70  C         14.3280   16.3210    7.4370 C.2    48  GLY48       0.2639
     71  O         15.1400   17.1260    6.9900 O.2    48  GLY48      -0.2714
     72  N         13.0790   16.6500    7.7470 N.am   49  GLY49      -0.1939
     73  CA        12.6210   18.0290    7.7280 C.3    49  GLY49       0.2014
     74  C         11.9950   18.4000    9.0570 C.2    49  GLY49       0.2638
     75  O         12.0840   17.6450   10.0280 O.2    49  GLY49      -0.2714
     76  N         11.2730   19.5120    9.0760 N.am   50  ILE50      -0.1977
     77  CA        10.7260   20.0320   10.3230 C.3    50  ILE50       0.1596
     78  C          9.7480   19.0440   10.9430 C.2    50  ILE50       0.2287
     79  O          9.6130   18.9790   12.1610 O.2    50  ILE50      -0.2864
     80  CB        10.0040   21.3740   10.1120 C.3    50  ILE50       0.0276
     81  CG1        9.8860   22.1150   11.4470 C.3    50  ILE50       0.0022
     82  CG2        8.6260   21.1460    9.5050 C.3    50  ILE50       0.0022
     83  CD1        9.1730   23.4440   11.3460 C.3    50  ILE50       0.0001
     84  N         10.9250   12.4950    9.2530 N.3    53  PHE53      -0.1241
     85  CA        11.7140   11.9070    8.1720 C.3    53  PHE53       0.1605
     86  C         10.8200   11.3300    7.0770 C.2    53  PHE53       0.2264
     87  O          9.7140   10.8600    7.3450 O.2    53  PHE53      -0.2867
     88  CB        12.6370   10.8150    8.7200 C.3    53  PHE53       0.0534
     89  CG        13.7810   11.3450    9.5340 C.ar   53  PHE53      -0.0203
     90  CD1       13.6220   11.6010   10.8860 C.ar   53  PHE53      -0.0042
     91  CD2       14.9750   11.7000    8.9250 C.ar   53  PHE53      -0.0042
     92  CE1       14.6340   12.1950   11.6180 C.ar   53  PHE53      -0.0003
     93  CE2       16.0070   12.2510    9.6600 C.ar   53  PHE53      -0.0003
     94  CZ        15.8350   12.5020   11.0080 C.ar   53  PHE53      -0.0000
     95  N          7.5240   15.8420   -1.1040 N.3    80  THR80      -0.1204
     96  CA         7.8400   17.1470   -0.5440 C.3    80  THR80       0.1979
     97  C          6.7210   18.1490   -0.8090 C.2    80  THR80       0.2460
     98  O          6.0670   18.1090   -1.8540 O.2    80  THR80      -0.2732
     99  CB         9.1690   17.6850   -1.1170 C.3    80  THR80       0.1783
    100  OG1        9.4020   19.0160   -0.6430 O.3    80  THR80      -0.2211
    101  CG2        9.1410   17.6800   -2.6410 C.3    80  THR80       0.0376
    102  N          6.5140   19.0790    0.1330 N.am   81  PRO81      -0.2717
    103  CA         5.5130   20.1410   -0.0050 C.3    81  PRO81       0.1535
    104  C          5.7450   21.0240   -1.2300 C.2    81  PRO81       0.2599
    105  O          4.8040   21.6180   -1.7550 O.2    81  PRO81      -0.2715
    106  CB         5.6890   20.9630    1.2760 C.3    81  PRO81       0.0310
    107  CG         6.3080   20.0350    2.2510 C.3    81  PRO81       0.0237
    108  CD         7.1190   19.0450    1.4740 C.3    81  PRO81       0.0939
    109  N          7.0100   21.2280   -1.5790 N.am   82  THR82      -0.1951
    110  CA         7.3680   22.0040   -2.7590 C.3    82  THR82       0.1897
    111  C          8.6670   21.4500   -3.3190 C.2    82  THR82       0.2313
    112  O          9.4600   20.8560   -2.5850 O.2    82  THR82      -0.2863
    113  CB         7.5930   23.4920   -2.4270 C.3    82  THR82       0.1794
    114  OG1        8.5920   23.6110   -1.4050 O.3    82  THR82      -0.2208
    115  CG2        6.3070   24.1450   -1.9610 C.3    82  THR82       0.0378
    116  N         12.3420   21.7770   -3.9990 N.3    84  VAL84      -0.1245
    117  CA        13.3510   22.5600   -3.3090 C.3    84  VAL84       0.1561
    118  C         14.7340   22.3100   -3.8890 C.2    84  VAL84       0.2260
    119  O         15.1310   21.1630   -4.1130 O.2    84  VAL84      -0.2867
    120  CB        13.3770   22.2820   -1.7940 C.3    84  VAL84       0.0252
    121  CG1       12.0700   22.7220   -1.1420 C.3    84  VAL84       0.0019
    122  CG2       13.6600   20.8230   -1.5250 C.3    84  VAL84       0.0019
@<TRIPOS>BOND
     1    12    13    1
     2    55    56    2
     3    55    54    1
     4   119   118    2
     5    13    14    1
     6    13    16    1
     7   116   117    1
     8   118   117    1
     9    14    15    2
    10     4     3    2
    11    54    53    1
    12    54    57    1
    13   111   110    1
    14   111   112    2
    15   117   120    1
    16    16    17    1
    17   110   113    1
    18   110   109    1
    19     3     2    1
    20   101    99    1
    21   113   115    1
    22   113   114    1
    23    59    57    1
    24    57    58    1
    25    98    97    2
    26    18    17    1
    27   120   122    1
    28   120   121    1
    29   105   104    2
    30     5     2    1
    31     5     6    1
    32   109   104   am
    33    17    19    1
    34    47    48    2
    35    47    46    1
    36    20    21    1
    37     2     1    1
    38   104   103    1
    39    99   100    1
    40    99    96    1
    41    95    96    1
    42    97    96    1
    43    97   102   am
    44    46    49    1
    45    46    45    1
    46     7     6    1
    47     7     8    1
    48    49    50    1
    49    10     9    1
    50    40    39    2
    51    21    24    1
    52    21    22    1
    53   103   102    1
    54   103   106    1
    55    51    50   ar
    56    24    25    1
    57   102   108    1
    58    50    52   ar
    59    45    39   am
    60    23    22    2
    61     8     9    2
    62    39    38    1
    63     9    11    1
    64   106   107    1
    65    35    34    2
    66   108   107    1
    67    36    33    1
    68    25    27   ar
    69    25    26   ar
    70    67    65    1
    71    34    33    1
    72    34    37   am
    73    38    37    1
    74    38    41    1
    75    66    64    1
    76    33    32    1
    77    65    64    1
    78    41    42    1
    79    32    30   am
    80    64    61    1
    81    28    29    1
    82    60    61    1
    83    30    29    1
    84    30    31    2
    85    42    43   ar
    86    42    44   ar
    87    61    62    1
    88    62    63    2
    89    62    68   am
    90    68    69    1
    91    71    70    2
    92    86    87    2
    93    86    85    1
    94    70    69    1
    95    70    72   am
    96    73    72    1
    97    73    74    1
    98    85    88    1
    99    85    84    1
   100    88    89    1
   101    91    89   ar
   102    91    93   ar
   103    74    76   am
   104    74    75    2
   105    76    77    1
   106    82    80    1
   107    89    90   ar
   108    93    94   ar
   109    80    77    1
   110    80    81    1
   111    77    78    1
   112    90    92   ar
   113    78    79    2
   114    94    92   ar
   115    83    81    1
