@<TRIPOS>MOLECULE
tmp/4cpsA00.pdb
 111 104 0 0 0
SMALL
GASTEIGER

@<TRIPOS>ATOM
      1  N         26.6760   24.1850    5.7590 N.3     8  ARG8       -0.1245
      2  CA        25.4380   24.7650    6.2840 C.3     8  ARG8        0.1563
      3  C         25.7040   26.1630    6.8060 C.2     8  ARG8        0.2260
      4  O         26.7050   26.3900    7.4820 O.2     8  ARG8       -0.2867
      5  CB        24.8740   23.9080    7.4120 C.3     8  ARG8        0.0307
      6  CG        24.4360   22.5290    6.9840 C.3     8  ARG8        0.0489
      7  CD        23.9910   21.6920    8.1700 C.3     8  ARG8        0.2205
      8  NE        23.5050   20.3960    7.7240 N.pl3   8  ARG8       -0.0865
      9  CZ        23.5510   19.2870    8.4530 C.cat   8  ARG8        0.5346
     10  NH1       23.9920   19.3300    9.7040 N.pl3   8  ARG8        0.1354
     11  NH2       23.1000   18.1490    7.9490 N.pl3   8  ARG8        0.1354
     12  N         20.3390   28.2400   11.6590 N.3    23  LEU23      -0.1245
     13  CA        20.5840   28.0380   10.2350 C.3    23  LEU23       0.1561
     14  C         19.8910   29.1350    9.4220 C.2    23  LEU23       0.2260
     15  O         18.7000   29.3790    9.5900 O.2    23  LEU23      -0.2867
     16  CB        20.0310   26.6670    9.8570 C.3    23  LEU23       0.0270
     17  CG        20.2210   26.1320    8.4510 C.3    23  LEU23       0.0019
     18  CD1       21.6900   25.8910    8.1410 C.3    23  LEU23       0.0001
     19  CD2       19.4090   24.8470    8.3380 C.3    23  LEU23       0.0001
     20  N         17.9730   30.2260    6.5140 N.3    25  ASP25      -0.1239
     21  CA        17.1630   29.3160    5.7090 C.3    25  ASP25       0.1674
     22  C         16.2030   30.0650    4.7880 C.2    25  ASP25       0.2266
     23  O         15.1400   30.5130    5.2180 O.2    25  ASP25      -0.2867
     24  CB        16.3760   28.3880    6.6310 C.3    25  ASP25       0.1410
     25  CG        15.6790   27.2720    5.8870 C.2    25  ASP25       0.3668
     26  OD1       15.6810   27.2820    4.6420 O.co2  25  ASP25      -0.2456
     27  OD2       15.1460   26.3660    6.5660 O.co2  25  ASP25      -0.2456
     28  N         14.5050   28.9780    2.4630 N.3    27  GLY27      -0.1210
     29  CA        13.3210   28.1690    2.1860 C.3    27  GLY27       0.1956
     30  C         12.2580   28.2520    3.2650 C.2    27  GLY27       0.2612
     31  O         11.1860   27.6500    3.1460 O.2    27  GLY27      -0.2717
     32  N         12.5600   28.9430    4.3600 N.am   28  ALA28      -0.1965
     33  CA        11.6340   28.9880    5.4900 C.3    28  ALA28       0.1728
     34  C         10.8950   30.3180    5.5240 C.2    28  ALA28       0.2616
     35  O         11.5270   31.3730    5.5500 O.2    28  ALA28      -0.2715
     36  CB        12.3850   28.7770    6.7920 C.3    28  ALA28       0.0334
     37  N          9.5620   30.2680    5.5720 N.am   29  ASP29      -0.1957
     38  CA         8.7690   31.4950    5.7260 C.3    29  ASP29       0.1840
     39  C          9.0640   32.1210    7.0810 C.2    29  ASP29       0.2622
     40  O          9.1340   33.3420    7.2080 O.2    29  ASP29      -0.2715
     41  CB         7.2680   31.1940    5.6430 C.3    29  ASP29       0.1450
     42  CG         6.8180   30.7230    4.2660 C.2    29  ASP29       0.3671
     43  OD1        7.5160   30.9700    3.2560 O.co2  29  ASP29      -0.2456
     44  OD2        5.6520   30.2680    4.1760 O.co2  29  ASP29      -0.2456
     45  N          9.1700   31.2570    8.0940 N.am   30  ASP30      -0.1971
     46  CA         9.1320   31.6470    9.5000 C.3    30  ASP30       0.1709
     47  C         10.4480   31.2660   10.1800 C.2    30  ASP30       0.2293
     48  O         11.1540   30.3650    9.7390 O.2    30  ASP30      -0.2864
     49  CB         7.9850   30.9220   10.2290 C.3    30  ASP30       0.1436
     50  CG         6.6380   31.1020    9.5430 C.2    30  ASP30       0.3671
     51  OD1        6.2710   32.2610    9.2610 O.co2  30  ASP30      -0.2456
     52  OD2        5.8810   30.1040    9.4370 O.co2  30  ASP30      -0.2456
     53  N         12.0240   29.5430   13.4130 N.3    32  VAL32      -0.1245
     54  CA        11.5940   28.5270   14.3730 C.3    32  VAL32       0.1561
     55  C         12.7670   28.0710   15.2160 C.2    32  VAL32       0.2260
     56  O         13.7870   27.6340   14.6860 O.2    32  VAL32      -0.2867
     57  CB        10.9900   27.2950   13.6800 C.3    32  VAL32       0.0252
     58  CG1       10.1930   26.4660   14.6890 C.3    32  VAL32       0.0019
     59  CG2       10.1470   27.7100   12.4850 C.3    32  VAL32       0.0019
     60  N          3.0240   24.4590   11.7190 N.3    47  ILE47      -0.1231
     61  CA         3.8820   24.7150   10.5800 C.3    47  ILE47       0.1692
     62  C          4.3720   23.4170    9.9750 C.2    47  ILE47       0.2593
     63  O          4.5080   22.4040   10.6640 O.2    47  ILE47      -0.2718
     64  CB         5.0910   25.6040   10.9340 C.3    47  ILE47       0.0266
     65  CG1        5.9390   24.9550   12.0310 C.3    47  ILE47       0.0019
     66  CG2        4.6260   26.9990   11.3170 C.3    47  ILE47       0.0020
     67  CD1        7.2280   25.6960   12.3360 C.3    47  ILE47       0.0001
     68  N          4.5270   23.4420    8.6580 N.am   48  GLY48      -0.1942
     69  CA         4.7780   22.2440    7.8830 C.3    48  GLY48       0.2014
     70  C          6.0820   22.3110    7.1190 C.2    48  GLY48       0.2639
     71  O          6.4860   23.3700    6.6390 O.2    48  GLY48      -0.2714
     72  N          6.6780   21.1440    6.9170 N.am   49  GLY49      -0.1939
     73  CA         7.9160   21.0280    6.1670 C.3    49  GLY49       0.2014
     74  C          7.9740   19.6220    5.6190 C.2    49  GLY49       0.2638
     75  O          6.9760   18.9090    5.6300 O.2    49  GLY49      -0.2714
     76  N          9.1550   19.1790    5.2100 N.am   50  ILE50      -0.1977
     77  CA         9.3160   17.7820    4.8680 C.3    50  ILE50       0.1596
     78  C          9.0400   16.9530    6.1190 C.2    50  ILE50       0.2287
     79  O          9.4140   17.3530    7.2270 O.2    50  ILE50      -0.2864
     80  CB        10.7310   17.4920    4.3320 C.3    50  ILE50       0.0276
     81  CG1       10.7850   17.7360    2.8190 C.3    50  ILE50       0.0022
     82  CG2       11.1280   16.0560    4.6310 C.3    50  ILE50       0.0022
     83  CD1       10.8230   19.2000    2.4390 C.3    50  ILE50       0.0001
     84  N         11.1800   21.7910   16.8740 N.3    80  THR80      -0.1204
     85  CA        11.9250   21.7390   15.6340 C.3    80  THR80       0.1979
     86  C         13.2380   20.9880   15.8400 C.2    80  THR80       0.2460
     87  O         13.9150   21.1750   16.8470 O.2    80  THR80      -0.2732
     88  CB        12.1940   23.1450   15.0460 C.3    80  THR80       0.1783
     89  OG1       12.9950   23.0190   13.8670 O.3    80  THR80      -0.2211
     90  CG2       12.9030   24.0600   16.0400 C.3    80  THR80       0.0376
     91  N         13.6150   20.1550   14.8650 N.am   81  PRO81      -0.2717
     92  CA        14.8750   19.4270   14.9970 C.3    81  PRO81       0.1535
     93  C         16.0950   20.3400   14.9470 C.2    81  PRO81       0.2599
     94  O         17.1700   19.9490   15.3900 O.2    81  PRO81      -0.2715
     95  CB        14.8680   18.4640   13.8040 C.3    81  PRO81       0.0310
     96  CG        13.7350   18.8810   12.9330 C.3    81  PRO81       0.0237
     97  CD        12.7650   19.6240   13.7890 C.3    81  PRO81       0.0939
     98  N         15.9630   21.5130   14.3370 N.am   82  THR82      -0.1951
     99  CA        17.0610   22.4660   14.3380 C.3    82  THR82       0.1897
    100  C         16.5790   23.9130   14.2560 C.2    82  THR82       0.2313
    101  O         15.4490   24.1930   13.8400 O.2    82  THR82      -0.2863
    102  CB        18.0680   22.1660   13.2060 C.3    82  THR82       0.1794
    103  OG1       19.3440   22.7440   13.5200 O.3    82  THR82      -0.2208
    104  CG2       17.5660   22.7030   11.8670 C.3    82  THR82       0.0378
    105  N         16.0920   27.4550   12.9960 N.3    84  VAL84      -0.1245
    106  CA        16.1400   28.0560   11.6640 C.3    84  VAL84       0.1561
    107  C         15.7430   29.5280   11.7000 C.2    84  VAL84       0.2260
    108  O         14.7930   29.9200   12.3830 O.2    84  VAL84      -0.2867
    109  CB        15.2550   27.2920   10.6570 C.3    84  VAL84       0.0252
    110  CG1       15.6080   25.8090   10.6290 C.3    84  VAL84       0.0019
    111  CG2       13.7990   27.4650   10.9910 C.3    84  VAL84       0.0019
@<TRIPOS>BOND
     1    29    28    1
     2    29    30    1
     3    83    81    1
     4    81    80    1
     5    31    30    2
     6    43    42   ar
     7    30    32   am
     8    44    42   ar
     9    42    41    1
    10    80    82    1
    11    80    77    1
    12    32    33    1
    13    26    25   ar
    14    22    23    2
    15    22    21    1
    16    77    76    1
    17    77    78    1
    18    76    74   am
    19    33    34    1
    20    33    36    1
    21    34    35    2
    22    34    37   am
    23    37    38    1
    24    74    75    2
    25    74    73    1
    26    41    38    1
    27    21    20    1
    28    21    24    1
    29    38    39    1
    30     1     2    1
    31    25    27   ar
    32    25    24    1
    33    78    79    2
    34    73    72    1
    35     2     3    1
    36     2     5    1
    37    71    70    2
    38     3     4    2
    39    72    70   am
    40     6     5    1
    41     6     7    1
    42    39    40    2
    43    39    45   am
    44    70    69    1
    45     8     7    1
    46     8     9    2
    47    69    68    1
    48    11     9    1
    49    45    46    1
    50    18    17    1
    51    19    17    1
    52    17    16    1
    53     9    10    1
    54    68    62   am
    55    51    50   ar
    56    14    15    2
    57    14    13    1
    58    52    50   ar
    59    46    47    1
    60    46    49    1
    61    50    49    1
    62    48    47    2
    63    16    13    1
    64    62    61    1
    65    62    63    2
    66    13    12    1
    67    61    64    1
    68    61    60    1
    69   110   109    1
    70   109   111    1
    71   109   106    1
    72    64    66    1
    73    64    65    1
    74   106   107    1
    75   106   105    1
    76   107   108    2
    77   104   102    1
    78    65    67    1
    79    59    57    1
    80    96    97    1
    81    96    95    1
    82   102   103    1
    83   102    99    1
    84    53    54    1
    85    57    54    1
    86    57    58    1
    87    97    91    1
    88    95    92    1
    89   101   100    2
    90    89    88    1
    91   100    99    1
    92    98    99    1
    93    98    93   am
    94    54    55    1
    95    56    55    2
    96    91    92    1
    97    91    86   am
    98    93    92    1
    99    93    94    2
   100    88    85    1
   101    88    90    1
   102    85    86    1
   103    85    84    1
   104    86    87    2
