@<TRIPOS>MOLECULE
tmp/4cpzH01.pdb
 171 160 0 0 0
SMALL
GASTEIGER

@<TRIPOS>ATOM
      1  N         48.0290   -5.9860  107.2320 N.3    40  ARG40      -0.1231
      2  CA        47.3960   -4.7660  106.7390 C.3    40  ARG40       0.1694
      3  C         46.7540   -4.0770  107.9290 C.2    40  ARG40       0.2591
      4  O         46.8360   -4.5770  109.0510 O.2    40  ARG40      -0.2718
      5  CB        46.3470   -5.0500  105.6600 C.3    40  ARG40       0.0321
      6  CG        46.8260   -4.8070  104.2410 C.3    40  ARG40       0.0489
      7  CD        45.6760   -4.3500  103.3560 C.3    40  ARG40       0.2205
      8  NE        45.1560   -3.0650  103.8070 N.pl3  40  ARG40      -0.0865
      9  CZ        44.0290   -2.5120  103.3660 C.cat  40  ARG40       0.5346
     10  NH1       43.2880   -3.1350  102.4540 N.pl3  40  ARG40       0.1354
     11  NH2       43.6430   -1.3330  103.8420 N.pl3  40  ARG40       0.1354
     12  N         46.1100   -2.9410  107.6770 N.am   41  GLU41      -0.1979
     13  CA        45.5130   -2.1400  108.7400 C.3    41  GLU41       0.1602
     14  C         46.4680   -1.9540  109.9260 C.2    41  GLU41       0.2287
     15  O         46.1570   -2.3370  111.0560 O.2    41  GLU41      -0.2864
     16  CB        44.1800   -2.7640  109.1860 C.3    41  GLU41       0.0415
     17  CG        43.1420   -2.9180  108.0480 C.3    41  GLU41       0.1163
     18  CD        43.2530   -4.2430  107.2850 C.2    41  GLU41       0.3649
     19  OE1       43.8610   -5.1970  107.8190 O.co2  41  GLU41      -0.2457
     20  OE2       42.7220   -4.3370  106.1520 O.co2  41  GLU41      -0.2457
     21  N         46.9980   -6.2180  111.7040 N.3    56  LEU56      -0.1245
     22  CA        46.2260   -7.4400  111.5340 C.3    56  LEU56       0.1561
     23  C         46.9400   -8.3560  110.5420 C.2    56  LEU56       0.2260
     24  O         46.9520   -8.0810  109.3430 O.2    56  LEU56      -0.2867
     25  CB        44.8160   -7.1120  111.0310 C.3    56  LEU56       0.0270
     26  CG        44.0100   -6.2020  111.9640 C.3    56  LEU56       0.0019
     27  CD1       42.6270   -5.8820  111.3820 C.3    56  LEU56       0.0001
     28  CD2       43.9170   -6.8180  113.3750 C.3    56  LEU56       0.0001
     29  N         39.7850   -9.7310  103.2350 N.3    73  ASP73      -0.1225
     30  CA        39.5210   -8.8740  104.3840 C.3    73  ASP73       0.1805
     31  C         39.4160   -9.6500  105.6810 C.2    73  ASP73       0.2597
     32  O         39.9810   -9.2530  106.6940 O.2    73  ASP73      -0.2718
     33  CB        38.2370   -8.0730  104.1730 C.3    73  ASP73       0.1424
     34  CG        38.5040   -6.6900  103.6340 C.2    73  ASP73       0.3668
     35  OD1       39.5070   -6.0710  104.0610 O.co2  73  ASP73      -0.2456
     36  OD2       37.7170   -6.2280  102.7810 O.co2  73  ASP73      -0.2456
     37  N         38.6710  -10.7500  105.6500 N.am   74  ARG74      -0.1979
     38  CA        38.3340  -11.4770  106.8650 C.3    74  ARG74       0.1597
     39  C         38.4390  -12.9960  106.6930 C.2    74  ARG74       0.2287
     40  O         38.0670  -13.5390  105.6510 O.2    74  ARG74      -0.2864
     41  CB        36.9200  -11.0910  107.3250 C.3    74  ARG74       0.0334
     42  CG        36.7110   -9.5880  107.5190 C.3    74  ARG74       0.0492
     43  CD        35.2760   -9.2270  107.9320 C.3    74  ARG74       0.2205
     44  NE        34.2640   -9.6860  106.9790 N.pl3  74  ARG74      -0.0865
     45  CZ        33.9710   -9.0820  105.8280 C.cat  74  ARG74       0.5346
     46  NH1       34.6160   -7.9850  105.4580 N.pl3  74  ARG74       0.1354
     47  NH2       33.0240   -9.5820  105.0420 N.pl3  74  ARG74       0.1354
     48  N         43.2450  -14.5420  110.7300 N.3    78  ARG78      -0.1245
     49  CA        43.7380  -13.2130  111.0590 C.3    78  ARG78       0.1563
     50  C         43.8270  -12.9660  112.5650 C.2    78  ARG78       0.2260
     51  O         42.9950  -13.4440  113.3480 O.2    78  ARG78      -0.2867
     52  CB        42.9170  -12.1240  110.3600 C.3    78  ARG78       0.0307
     53  CG        43.1590  -12.0660  108.8530 C.3    78  ARG78       0.0489
     54  CD        42.7760  -10.7170  108.2590 C.3    78  ARG78       0.2205
     55  NE        43.9020   -9.7900  108.2050 N.pl3  78  ARG78      -0.0865
     56  CZ        43.8430   -8.5830  107.6510 C.cat  78  ARG78       0.5346
     57  NH1       42.7080   -8.1510  107.1060 N.pl3  78  ARG78       0.1354
     58  NH2       44.9160   -7.8040  107.6440 N.pl3  78  ARG78       0.1354
     59  N         39.8580   -9.7820  112.7770 N.3   101  TRP101     -0.1227
     60  CA        39.9530   -9.1760  111.4460 C.3   101  TRP101      0.1737
     61  C         39.5780   -7.6880  111.4650 C.2   101  TRP101      0.2596
     62  O         39.4840   -7.0340  110.4210 O.2   101  TRP101     -0.2718
     63  CB        39.1580   -9.9540  110.3890 C.3   101  TRP101      0.0564
     64  CG        37.8480  -10.5060  110.8480 C.ar  101  TRP101      0.0003
     65  CD1       37.5390  -11.8210  111.0420 C.ar  101  TRP101      0.0946
     66  CD2       36.6570   -9.7670  111.1440 C.ar  101  TRP101      0.0152
     67  NE1       36.2340  -11.9470  111.4480 N.ar  101  TRP101     -0.2442
     68  CE2       35.6690  -10.7010  111.5180 C.ar  101  TRP101      0.0810
     69  CE3       36.3310   -8.4080  111.1320 C.ar  101  TRP101      0.0012
     70  CZ2       34.3790  -10.3190  111.8780 C.ar  101  TRP101      0.0191
     71  CZ3       35.0490   -8.0320  111.4910 C.ar  101  TRP101      0.0001
     72  CH2       34.0910   -8.9830  111.8630 C.ar  101  TRP101      0.0015
     73  N         39.3720   -7.1700  112.6720 N.am  102  SER102     -0.1952
     74  CA        39.2310   -5.7380  112.9150 C.3   102  SER102      0.1924
     75  C         39.7740   -5.5050  114.3160 C.2   102  SER102      0.2314
     76  O         39.5430   -6.3250  115.2030 O.2   102  SER102     -0.2863
     77  CB        37.7630   -5.2990  112.8200 C.3   102  SER102      0.2116
     78  OG        37.6220   -3.9100  113.0760 O.3   102  SER102     -0.2180
     79  N         27.7670   -6.3160  109.7230 N.3   145  LEU145     -0.1245
     80  CA        29.2050   -6.5280  109.9650 C.3   145  LEU145      0.1561
     81  C         29.7820   -5.6390  111.0620 C.2   145  LEU145      0.2260
     82  O         30.2250   -4.5220  110.7980 O.2   145  LEU145     -0.2867
     83  CB        30.0340   -6.3510  108.6870 C.3   145  LEU145      0.0270
     84  CG        31.4830   -6.8180  108.7930 C.3   145  LEU145      0.0019
     85  CD1       31.5520   -8.2270  109.3690 C.3   145  LEU145      0.0001
     86  CD2       32.1560   -6.7550  107.4340 C.3   145  LEU145      0.0001
     87  N         32.3570   -3.9930  113.4340 N.3   147  ARG147     -0.1245
     88  CA        33.7410   -3.6230  113.1410 C.3   147  ARG147      0.1563
     89  C         34.1410   -2.3770  113.9320 C.2   147  ARG147      0.2260
     90  O         33.2840   -1.6790  114.4770 O.2   147  ARG147     -0.2867
     91  CB        33.8960   -3.3700  111.6430 C.3   147  ARG147      0.0307
     92  CG        32.8890   -2.3770  111.0940 C.3   147  ARG147      0.0489
     93  CD        32.6950   -2.5560  109.5960 C.3   147  ARG147      0.2205
     94  NE        32.0230   -1.4090  108.9880 N.pl3 147  ARG147     -0.0865
     95  CZ        30.7040   -1.2740  108.8930 C.cat 147  ARG147      0.5346
     96  NH1       29.9010   -2.2170  109.3670 N.pl3 147  ARG147      0.1354
     97  NH2       30.1850   -0.1920  108.3230 N.pl3 147  ARG147      0.1354
     98  N         40.3930    0.3430  113.7160 N.3   150  GLU150     -0.1245
     99  CA        41.7110    0.0410  113.1320 C.3   150  GLU150      0.1567
    100  C         42.7150    1.1560  113.4300 C.2   150  GLU150      0.2260
    101  O         43.5600    1.4720  112.6040 O.2   150  GLU150     -0.2867
    102  CB        41.6470   -0.2070  111.6170 C.3   150  GLU150      0.0388
    103  CG        40.3410   -0.7970  111.0980 C.3   150  GLU150      0.1160
    104  CD        40.1690   -2.2700  111.4260 C.2   150  GLU150      0.3649
    105  OE1       40.9670   -2.8110  112.2230 O.co2 150  GLU150     -0.2457
    106  OE2       39.2270   -2.8890  110.8770 O.co2 150  GLU150     -0.2457
    107  N         27.6900   -1.7280  104.1630 N.3   169  ALA169     -0.1245
    108  CA        28.8570   -1.0420  103.6370 C.3   169  ALA169      0.1562
    109  C         28.4470   -0.0210  102.5770 C.2   169  ALA169      0.2260
    110  O         29.1810    0.9320  102.3030 O.2   169  ALA169     -0.2867
    111  CB        29.8470   -2.0500  103.0630 C.3   169  ALA169      0.0290
    112  N         32.1640    5.0820  109.8640 N.3   199  GLU199     -0.1231
    113  CA        33.0350    3.9460  110.1640 C.3   199  GLU199      0.1699
    114  C         34.5110    4.3400  110.2080 C.2   199  GLU199      0.2592
    115  O         34.9110    5.3590  109.6480 O.2   199  GLU199     -0.2718
    116  CB        32.8230    2.8100  109.1580 C.3   199  GLU199      0.0402
    117  CG        33.0800    3.1950  107.7040 C.3   199  GLU199      0.1161
    118  CD        33.1530    1.9880  106.7860 C.2   199  GLU199      0.3649
    119  OE1       32.7220    0.8880  107.2000 O.co2 199  GLU199     -0.2457
    120  OE2       33.6530    2.1340  105.6510 O.co2 199  GLU199     -0.2457
    121  N         35.3020    3.5260  110.8980 N.am  200  GLU200     -0.1979
    122  CA        36.7530    3.6840  110.9530 C.3   200  GLU200      0.1602
    123  C         37.2170    5.0600  111.4090 C.2   200  GLU200      0.2287
    124  O         38.0660    5.6850  110.7730 O.2   200  GLU200     -0.2864
    125  CB        37.3770    3.3080  109.6090 C.3   200  GLU200      0.0415
    126  CG        37.1390    1.8510  109.2690 C.3   200  GLU200      0.1163
    127  CD        37.8090    1.4270  107.9920 C.2   200  GLU200      0.3649
    128  OE1       37.9940    2.2840  107.1030 O.co2 200  GLU200     -0.2457
    129  OE2       38.1560    0.2310  107.8750 O.co2 200  GLU200     -0.2457
    130  N         34.9740    7.6780  108.3200 N.3   216  ARG216     -0.1245
    131  CA        34.8090    7.3220  106.9120 C.3   216  ARG216      0.1563
    132  C         33.3480    7.0300  106.5670 C.2   216  ARG216      0.2260
    133  O         32.6690    6.3000  107.2870 O.2   216  ARG216     -0.2867
    134  CB        35.6810    6.1070  106.5800 C.3   216  ARG216      0.0307
    135  CG        35.3700    5.3930  105.2680 C.3   216  ARG216      0.0489
    136  CD        36.2580    4.1600  105.1480 C.3   216  ARG216      0.2205
    137  NE        36.0000    3.3210  103.9750 N.pl3 216  ARG216     -0.0865
    138  CZ        36.7430    2.2670  103.6330 C.cat 216  ARG216      0.5346
    139  NH1       37.7970    1.9180  104.3660 N.pl3 216  ARG216      0.1354
    140  NH2       36.4440    1.5590  102.5530 N.pl3 216  ARG216      0.1354
    141  N         31.4300    5.2100  103.6110 N.3   218  ASN218     -0.1240
    142  CA        31.6940    4.3360  102.4800 C.3   218  ASN218      0.1653
    143  C         30.5630    4.3390  101.4560 C.2   218  ASN218      0.2266
    144  O         30.6430    3.6550  100.4340 O.2   218  ASN218     -0.2867
    145  CB        31.9620    2.9090  102.9790 C.3   218  ASN218      0.1155
    146  CG        32.7220    2.0650  101.9670 C.2   218  ASN218      0.2627
    147  OD1       33.8890    2.3270  101.6770 O.2   218  ASN218     -0.2716
    148  ND2       32.0620    1.0400  101.4310 N.am  218  ASN218     -0.0877
    149  N         44.2880    4.7390   95.6510 N.3   298  ARG298     -0.1245
    150  CA        45.0020    4.7190   96.9170 C.3   298  ARG298      0.1563
    151  C         46.5010    4.9380   96.6820 C.2   298  ARG298      0.2260
    152  O         47.3320    4.0960   97.0190 O.2   298  ARG298     -0.2867
    153  CB        44.7340    3.4050   97.6430 C.3   298  ARG298      0.0307
    154  CG        43.2630    3.0360   97.6440 C.3   298  ARG298      0.0489
    155  CD        42.9620    1.9420   98.6310 C.3   298  ARG298      0.2205
    156  NE        41.7760    2.2600   99.4190 N.pl3 298  ARG298     -0.0865
    157  CZ        41.1830    1.4150  100.2540 C.cat 298  ARG298      0.5346
    158  NH1       41.6570    0.1880  100.4080 N.pl3 298  ARG298      0.1354
    159  NH2       40.1060    1.7940  100.9310 N.pl3 298  ARG298      0.1354
    160  N         45.6100    3.2720  104.1080 N.3   333  TYR333     -0.1241
    161  CA        45.1200    3.7640  105.3950 C.3   333  TYR333      0.1605
    162  C         46.0950    4.7420  106.0400 C.2   333  TYR333      0.2264
    163  O         47.3060    4.5740  105.9200 O.2   333  TYR333     -0.2867
    164  CB        44.8560    2.5960  106.3510 C.3   333  TYR333      0.0534
    165  CG        43.4650    2.0270  106.2480 C.ar  333  TYR333     -0.0201
    166  CD1       42.6670    2.2930  105.1350 C.ar  333  TYR333     -0.0009
    167  CD2       42.9310    1.2500  107.2710 C.ar  333  TYR333     -0.0009
    168  CE1       41.3820    1.7950  105.0420 C.ar  333  TYR333      0.0417
    169  CE2       41.6420    0.7430  107.1880 C.ar  333  TYR333      0.0417
    170  CZ        40.8780    1.0200  106.0670 C.ar  333  TYR333      0.1957
    171  OH        39.6000    0.5330  105.9690 O.3   333  TYR333     -0.2866
@<TRIPOS>BOND
     1   149   150    1
     2   151   150    1
     3   151   152    2
     4   150   153    1
     5   153   154    1
     6   154   155    1
     7   155   156    1
     8   156   157    2
     9   157   158    1
    10   157   159    1
    11   144   143    2
    12   148   146   am
    13   143   142    1
    14   147   146    2
    15   146   145    1
    16   110   109    2
    17    10     9    1
    18   142   145    1
    19   142   141    1
    20   140   138    1
    21   109   108    1
    22    36    34   ar
    23   111   108    1
    24    29    30    1
    25     7     8    1
    26     7     6    1
    27     9     8    2
    28     9    11    1
    29   138   137    2
    30   138   139    1
    31    34    35   ar
    32    34    33    1
    33   108   107    1
    34   137   136    1
    35   160   161    1
    36    33    30    1
    37     6     5    1
    38    30    31    1
    39   168   166   ar
    40   168   170   ar
    41    47    45    1
    42   166   165   ar
    43   136   135    1
    44   135   134    1
    45   161   162    1
    46   161   164    1
    47    46    45    1
    48    37    31   am
    49    37    38    1
    50   120   118   ar
    51    40    39    2
    52     5     2    1
    53    31    32    2
    54    45    44    2
    55   163   162    2
    56   171   170    1
    57   170   169   ar
    58    20    18   ar
    59   165   164    1
    60   165   167   ar
    61   132   131    1
    62   132   133    2
    63   134   131    1
    64    39    38    1
    65     2     1    1
    66     2     3    1
    67   118   119   ar
    68   118   117    1
    69    38    41    1
    70   131   130    1
    71    44    43    1
    72   128   127   ar
    73    57    56    1
    74   169   167   ar
    75    18    19   ar
    76    18    17    1
    77    41    42    1
    78    86    84    1
    79    42    43    1
    80    58    56    1
    81    56    55    2
    82    12     3   am
    83    12    13    1
    84   117   116    1
    85   129   127   ar
    86     3     4    2
    87   127   126    1
    88    17    16    1
    89    55    54    1
    90    54    53    1
    91    97    95    1
    92    83    84    1
    93    83    80    1
    94    13    16    1
    95    13    14    1
    96    84    85    1
    97    53    52    1
    98    95    94    2
    99    95    96    1
   100    94    93    1
   101   116   113    1
   102   126   125    1
   103    24    23    2
   104    93    92    1
   105   125   122    1
   106   115   114    2
   107    79    80    1
   108   112   113    1
   109    14    15    2
   110    80    81    1
   111   113   114    1
   112   114   121   am
   113    52    49    1
   114    63    64    1
   115    63    60    1
   116    62    61    2
   117    23    22    1
   118    48    49    1
   119   124   123    2
   120    82    81    2
   121    64    65   ar
   122    64    66   ar
   123   106   104   ar
   124   121   122    1
   125   122   123    1
   126    25    22    1
   127    25    26    1
   128    65    67   ar
   129    49    50    1
   130    92    91    1
   131   103   104    1
   132   103   102    1
   133    69    66   ar
   134    69    71   ar
   135    66    68   ar
   136    27    26    1
   137   104   105   ar
   138    60    61    1
   139    60    59    1
   140    67    68   ar
   141    61    73   am
   142    71    72   ar
   143    68    70   ar
   144    22    21    1
   145   102    99    1
   146    91    88    1
   147    72    70   ar
   148    26    28    1
   149    50    51    2
   150   101   100    2
   151    73    74    1
   152    77    74    1
   153    77    78    1
   154    74    75    1
   155    99   100    1
   156    99    98    1
   157    88    87    1
   158    88    89    1
   159    89    90    2
   160    75    76    2
