@<TRIPOS>MOLECULE
tmp/4cq6C00.pdb
 168 160 0 0 0
SMALL
GASTEIGER

@<TRIPOS>ATOM
      1  N        -14.8510  -14.2710   19.8220 N.3     9  GLU9       -0.1245
      2  CA       -14.1340  -14.3870   18.5410 C.3     9  GLU9        0.1567
      3  C        -15.0620  -13.9300   17.4100 C.2     9  GLU9        0.2260
      4  O        -16.1820  -14.4480   17.2670 O.2     9  GLU9       -0.2867
      5  CB       -13.6770  -15.8530   18.3330 C.3     9  GLU9        0.0388
      6  CG       -12.9660  -16.0700   17.0190 C.3     9  GLU9        0.1160
      7  CD       -12.6220  -17.5370   16.7180 C.2     9  GLU9        0.3649
      8  OE1      -13.1520  -18.4140   17.4110 O.co2   9  GLU9       -0.2457
      9  OE2      -11.8190  -17.7850   15.7800 O.co2   9  GLU9       -0.2457
     10  N        -15.3530  -12.8730   13.2450 N.3    11  ASN11      -0.1240
     11  CA       -14.8490  -12.7080   11.8860 C.3    11  ASN11       0.1653
     12  C        -15.4070  -11.4310   11.2730 C.2    11  ASN11       0.2266
     13  O        -16.6100  -11.3980   10.9250 O.2    11  ASN11      -0.2867
     14  CB       -15.2210  -13.9230   11.0370 C.3    11  ASN11       0.1155
     15  CG       -14.5580  -13.9150    9.6730 C.2    11  ASN11       0.2627
     16  OD1      -13.9180  -12.9370    9.2660 O.2    11  ASN11      -0.2716
     17  ND2      -14.7120  -15.0210    8.9480 N.am   11  ASN11      -0.0877
     18  N        -10.1090  -14.6270    5.8120 N.3    17  SER17      -0.1203
     19  CA       -10.4420  -15.8400    6.5390 C.3    17  SER17       0.2005
     20  C        -11.9420  -16.1310    6.5580 C.2    17  SER17       0.2460
     21  O        -12.7700  -15.1910    6.6440 O.2    17  SER17      -0.2732
     22  CB        -9.9290  -15.7030    7.9980 C.3    17  SER17       0.2103
     23  OG       -10.0160  -16.9260    8.7020 O.3    17  SER17      -0.2182
     24  N        -12.3340  -17.4110    6.5270 N.am   18  PRO18      -0.2728
     25  CA       -11.5020  -18.6210    6.4620 C.3    18  PRO18       0.1401
     26  C        -11.0280  -18.8740    5.0350 C.2    18  PRO18       0.2269
     27  O        -11.6160  -18.3260    4.0790 O.2    18  PRO18      -0.2865
     28  CB       -12.4600  -19.7180    6.9350 C.3    18  PRO18       0.0296
     29  CG       -13.7850  -19.2830    6.4620 C.3    18  PRO18       0.0237
     30  CD       -13.7660  -17.7610    6.6040 C.3    18  PRO18       0.0939
     31  N        -10.5740  -21.9120    2.3820 N.3    20  ILE20      -0.1245
     32  CA       -10.9760  -23.3120    2.2230 C.3    20  ILE20       0.1561
     33  C        -10.0690  -23.9840    1.2040 C.2    20  ILE20       0.2260
     34  O         -9.9700  -23.5390    0.0690 O.2    20  ILE20      -0.2867
     35  CB       -12.4510  -23.4520    1.7910 C.3    20  ILE20       0.0252
     36  CG1      -13.3630  -22.8870    2.9020 C.3    20  ILE20       0.0019
     37  CG2      -12.7650  -24.9200    1.5490 C.3    20  ILE20       0.0019
     38  CD1      -14.7970  -22.6860    2.4990 C.3    20  ILE20       0.0001
     39  N        -18.7120  -30.0930    2.7550 N.3    29  PHE29      -0.1241
     40  CA       -17.4360  -30.3110    3.4670 C.3    29  PHE29       0.1605
     41  C        -17.2710  -31.8190    3.6520 C.2    29  PHE29       0.2264
     42  O        -18.2510  -32.5550    3.9140 O.2    29  PHE29      -0.2867
     43  CB       -17.4100  -29.6040    4.8360 C.3    29  PHE29       0.0534
     44  CG       -17.0460  -28.1430    4.7900 C.ar   29  PHE29      -0.0203
     45  CD1      -15.7760  -27.7330    4.3820 C.ar   29  PHE29      -0.0042
     46  CD2      -17.9640  -27.1750    5.2090 C.ar   29  PHE29      -0.0042
     47  CE1      -15.4450  -26.3620    4.3510 C.ar   29  PHE29      -0.0003
     48  CE2      -17.6450  -25.8100    5.1790 C.ar   29  PHE29      -0.0003
     49  CZ       -16.3760  -25.4100    4.7640 C.ar   29  PHE29      -0.0000
     50  N         -9.0610  -26.0380    6.5460 N.3    35  VAL35      -0.1245
     51  CA        -9.4720  -24.6390    6.6880 C.3    35  VAL35       0.1561
     52  C         -8.5750  -23.8800    7.6560 C.2    35  VAL35       0.2260
     53  O         -8.8760  -23.7930    8.8490 O.2    35  VAL35      -0.2867
     54  CB       -10.9290  -24.5420    7.1680 C.3    35  VAL35       0.0252
     55  CG1      -11.3990  -23.0940    7.0570 C.3    35  VAL35       0.0019
     56  CG2      -11.8440  -25.4650    6.2910 C.3    35  VAL35       0.0019
     57  N         -7.4530  -20.5640    9.4070 N.3    37  PHE37      -0.1241
     58  CA        -8.2900  -19.4200    9.7550 C.3    37  PHE37       0.1605
     59  C         -7.6220  -18.4960   10.7640 C.2    37  PHE37       0.2264
     60  O         -6.7250  -18.9120   11.4950 O.2    37  PHE37      -0.2867
     61  CB        -9.6270  -19.9110   10.3350 C.3    37  PHE37       0.0534
     62  CG        -9.5020  -20.5390   11.6940 C.ar   37  PHE37      -0.0203
     63  CD1       -9.1460  -21.8740   11.8310 C.ar   37  PHE37      -0.0042
     64  CD2       -9.7640  -19.7920   12.8560 C.ar   37  PHE37      -0.0042
     65  CE1       -9.0260  -22.4390   13.0870 C.ar   37  PHE37      -0.0003
     66  CE2       -9.6370  -20.3660   14.1220 C.ar   37  PHE37      -0.0003
     67  CZ        -9.2780  -21.6750   14.2400 C.ar   37  PHE37      -0.0000
     68  N         -9.3260  -15.1360   13.1740 N.3    39  ASN39      -0.1240
     69  CA       -10.3680  -14.1480   13.4690 C.3    39  ASN39       0.1653
     70  C         -9.8840  -13.1350   14.5330 C.2    39  ASN39       0.2266
     71  O         -8.8410  -13.3450   15.1460 O.2    39  ASN39      -0.2867
     72  CB       -11.5970  -14.8810   13.9390 C.3    39  ASN39       0.1155
     73  CG       -12.2290  -15.6750   12.8460 C.2    39  ASN39       0.2627
     74  OD1      -12.4320  -15.1920   11.7180 O.2    39  ASN39      -0.2716
     75  ND2      -12.5190  -16.9460   13.1460 N.am   39  ASN39      -0.0877
     76  N         -8.4760  -25.7020   11.0290 N.3    57  CYS57      -0.1235
     77  CA        -9.6030  -26.6400   11.1740 C.3    57  CYS57       0.1677
     78  C         -9.4920  -27.7480   10.1230 C.2    57  CYS57       0.2270
     79  O         -9.3850  -27.4710    8.9360 O.2    57  CYS57      -0.2867
     80  CB       -10.9480  -25.9440   11.0260 C.3    57  CYS57       0.0956
     81  SG       -11.5850  -25.2710   12.5590 S.3    57  CYS57      -0.0801
     82  N        -15.3830  -30.5930   12.7420 N.3    71  PHE71      -0.1241
     83  CA       -13.9860  -30.2720   12.5210 C.3    71  PHE71       0.1605
     84  C        -13.1470  -30.7520   13.7090 C.2    71  PHE71       0.2264
     85  O        -13.6510  -30.8420   14.8370 O.2    71  PHE71      -0.2867
     86  CB       -13.7460  -28.7840   12.3890 C.3    71  PHE71       0.0534
     87  CG       -14.4240  -28.1120   11.1880 C.ar   71  PHE71      -0.0203
     88  CD1      -15.7070  -27.6090   11.2840 C.ar   71  PHE71      -0.0042
     89  CD2      -13.7280  -27.8930   10.0080 C.ar   71  PHE71      -0.0042
     90  CE1      -16.3090  -26.9380   10.2080 C.ar   71  PHE71      -0.0003
     91  CE2      -14.3280  -27.2250    8.9360 C.ar   71  PHE71      -0.0003
     92  CZ       -15.6400  -26.7670    9.0440 C.ar   71  PHE71      -0.0000
     93  N         -9.8470  -29.1750   15.5060 N.3    73  ALA73      -0.1245
     94  CA        -9.2070  -27.8260   15.5120 C.3    73  ALA73       0.1562
     95  C         -7.9500  -27.8040   16.3610 C.2    73  ALA73       0.2260
     96  O         -7.9210  -28.3480   17.4600 O.2    73  ALA73      -0.2867
     97  CB       -10.1960  -26.7530   16.0140 C.3    73  ALA73       0.0290
     98  N         -5.3130  -24.6650   17.3800 N.3    75  TYR75      -0.1241
     99  CA        -5.1770  -23.2140   17.2210 C.3    75  TYR75       0.1605
    100  C         -4.8630  -22.5050   18.5260 C.2    75  TYR75       0.2264
    101  O         -4.8760  -23.1150   19.6040 O.2    75  TYR75      -0.2867
    102  CB        -6.4280  -22.6220   16.5800 C.3    75  TYR75       0.0534
    103  CG        -7.7560  -22.6700   17.2700 C.ar   75  TYR75      -0.0201
    104  CD1       -8.4490  -23.8670   17.4250 C.ar   75  TYR75      -0.0009
    105  CD2       -8.3950  -21.5000   17.6960 C.ar   75  TYR75      -0.0009
    106  CE1       -9.7310  -23.8960   17.9750 C.ar   75  TYR75       0.0417
    107  CE2       -9.6950  -21.5370   18.2410 C.ar   75  TYR75       0.0417
    108  CZ       -10.3310  -22.7400   18.3850 C.ar   75  TYR75       0.1957
    109  OH       -11.5980  -22.8180   18.9020 O.3    75  TYR75      -0.2866
    110  N        -14.5850  -28.8750   16.9830 N.3    91  TYR91      -0.1241
    111  CA       -15.4610  -27.7390   16.6410 C.3    91  TYR91       0.1605
    112  C        -16.5760  -28.3260   15.8130 C.2    91  TYR91       0.2264
    113  O        -16.3180  -28.8300   14.7170 O.2    91  TYR91      -0.2867
    114  CB       -14.7070  -26.6260   15.9160 C.3    91  TYR91       0.0534
    115  CG       -15.6350  -25.6110   15.2400 C.ar   91  TYR91      -0.0201
    116  CD1      -16.7440  -25.0790   15.9100 C.ar   91  TYR91      -0.0009
    117  CD2      -15.4340  -25.2360   13.9500 C.ar   91  TYR91      -0.0009
    118  CE1      -17.6100  -24.1680   15.2690 C.ar   91  TYR91       0.0417
    119  CE2      -16.2520  -24.3210   13.3150 C.ar   91  TYR91       0.0417
    120  CZ       -17.3350  -23.7950   13.9620 C.ar   91  TYR91       0.1957
    121  OH       -18.1210  -22.9060   13.2570 O.3    91  TYR91      -0.2866
    122  N        -16.6290  -23.9160   24.0070 N.3   117  LEU117     -0.1245
    123  CA       -16.9380  -23.2020   22.7690 C.3   117  LEU117      0.1561
    124  C        -18.4410  -23.1450   22.5550 C.2   117  LEU117      0.2260
    125  O        -19.0690  -24.1800   22.4940 O.2   117  LEU117     -0.2867
    126  CB       -16.2730  -23.9070   21.5700 C.3   117  LEU117      0.0270
    127  CG       -16.3430  -23.2940   20.1670 C.3   117  LEU117      0.0019
    128  CD1      -15.3200  -24.0420   19.2680 C.3   117  LEU117      0.0001
    129  CD2      -17.6890  -23.4380   19.5600 C.3   117  LEU117      0.0001
    130  N        -23.2430  -18.5530   12.9390 N.3   122  TYR122     -0.1228
    131  CA       -22.3690  -19.3840   12.1140 C.3   122  TYR122      0.1721
    132  C        -21.9630  -18.6220   10.8520 C.2   122  TYR122      0.2437
    133  O        -22.8240  -18.1220   10.1330 O.2   122  TYR122     -0.2733
    134  CB       -23.0670  -20.7080   11.7400 C.3   122  TYR122      0.0547
    135  CG       -22.2250  -21.6080   10.8320 C.ar  122  TYR122     -0.0200
    136  CD1      -20.9640  -22.0280   11.2140 C.ar  122  TYR122     -0.0009
    137  CD2      -22.6910  -22.0110    9.5840 C.ar  122  TYR122     -0.0009
    138  CE1      -20.1730  -22.8450   10.3730 C.ar  122  TYR122      0.0417
    139  CE2      -21.9270  -22.8220    8.7530 C.ar  122  TYR122      0.0417
    140  CZ       -20.6680  -23.2360    9.1530 C.ar  122  TYR122      0.1957
    141  OH       -19.9020  -24.0550    8.3270 O.3   122  TYR122     -0.2866
    142  N        -20.6590  -18.5260   10.5690 N.am  123  PRO123     -0.2729
    143  CA       -19.4590  -18.8990   11.3280 C.3   123  PRO123      0.1401
    144  C        -18.7650  -17.6810   11.9240 C.2   123  PRO123      0.2269
    145  O        -17.5660  -17.7750   12.2410 O.2   123  PRO123     -0.2865
    146  CB       -18.5630  -19.5190   10.2500 C.3   123  PRO123      0.0296
    147  CG       -18.8290  -18.6060    9.0700 C.3   123  PRO123      0.0237
    148  CD       -20.3040  -18.2290    9.1630 C.3   123  PRO123      0.0939
    149  N        -18.3640  -16.3240   17.8160 N.3   126  LEU126     -0.1245
    150  CA       -18.2850  -17.3530   18.8380 C.3   126  LEU126      0.1561
    151  C        -17.9160  -16.7800   20.2100 C.2   126  LEU126      0.2260
    152  O        -17.2500  -15.7490   20.3170 O.2   126  LEU126     -0.2867
    153  CB       -17.2590  -18.4120   18.4380 C.3   126  LEU126      0.0270
    154  CG       -17.5130  -19.0480   17.0530 C.3   126  LEU126      0.0019
    155  CD1      -16.7170  -18.2740   16.0180 C.3   126  LEU126      0.0001
    156  CD2      -17.1100  -20.4780   17.0450 C.3   126  LEU126      0.0001
    157  N        -16.3030  -18.0160   24.1160 N.3   128  TYR128     -0.1241
    158  CA       -15.5260  -19.0360   24.8050 C.3   128  TYR128      0.1605
    159  C        -15.4280  -18.7280   26.2890 C.2   128  TYR128      0.2264
    160  O        -15.2780  -17.5780   26.6890 O.2   128  TYR128     -0.2867
    161  CB       -14.0890  -19.1100   24.2650 C.3   128  TYR128      0.0534
    162  CG       -13.9160  -19.5230   22.8180 C.ar  128  TYR128     -0.0201
    163  CD1      -13.9960  -18.5940   21.7960 C.ar  128  TYR128     -0.0009
    164  CD2      -13.6300  -20.8430   22.4820 C.ar  128  TYR128     -0.0009
    165  CE1      -13.8290  -18.9600   20.4820 C.ar  128  TYR128      0.0417
    166  CE2      -13.4450  -21.2160   21.1530 C.ar  128  TYR128      0.0417
    167  CZ       -13.5300  -20.2770   20.1680 C.ar  128  TYR128      0.1957
    168  OH       -13.2980  -20.6620   18.8640 O.3   128  TYR128     -0.2866
@<TRIPOS>BOND
     1    34    33    2
     2    33    32    1
     3    37    35    1
     4    35    32    1
     5    35    36    1
     6    32    31    1
     7    38    36    1
     8    39    40    1
     9    40    41    1
    10    40    43    1
    11    41    42    2
    12    27    26    2
    13    47    45   ar
    14    47    49   ar
    15    45    44   ar
    16    49    48   ar
    17    44    43    1
    18    44    46   ar
    19    26    25    1
    20    48    46   ar
    21    18    19    1
    22    56    54    1
    23    29    30    1
    24    29    28    1
    25    25    24    1
    26    25    28    1
    27    24    20   am
    28    24    30    1
    29    19    20    1
    30    19    22    1
    31    50    51    1
    32    20    21    2
    33    51    54    1
    34    51    52    1
    35    55    54    1
    36    52    53    2
    37    22    23    1
    38   141   140    1
    39   139   140   ar
    40   139   137   ar
    41    79    78    2
    42    91    92   ar
    43    91    89   ar
    44    17    15   am
    45    92    90   ar
    46   147   148    1
    47   147   146    1
    48   140   138   ar
    49   148   142    1
    50    16    15    2
    51    57    58    1
    52   137   135   ar
    53    15    14    1
    54    58    61    1
    55    58    59    1
    56    89    87   ar
    57    78    77    1
    58   133   132    2
    59    90    88   ar
    60   146   143    1
    61    61    62    1
    62   138   136   ar
    63   142   132   am
    64   142   143    1
    65    59    60    2
    66   135   136   ar
    67   135   134    1
    68   132   131    1
    69    13    12    2
    70    80    77    1
    71    80    81    1
    72    76    77    1
    73    14    11    1
    74    87    88   ar
    75    87    86    1
    76    12    11    1
    77   143   144    1
    78    62    63   ar
    79    62    64   ar
    80    74    73    2
    81   134   131    1
    82    63    65   ar
    83    11    10    1
    84   144   145    2
    85   131   130    1
    86    86    83    1
    87    83    82    1
    88    83    84    1
    89    73    75   am
    90    73    72    1
    91    64    66   ar
    92    65    67   ar
    93    68    69    1
    94   121   120    1
    95   119   117   ar
    96   119   120   ar
    97    69    72    1
    98    69    70    1
    99    84    85    2
   100   117   115   ar
   101   120   118   ar
   102    66    67   ar
   103    70    71    2
   104   113   112    2
   105   115   116   ar
   106   115   114    1
   107   118   116   ar
   108    93    94    1
   109    94    97    1
   110    94    95    1
   111     9     7   ar
   112   112   111    1
   113   114   111    1
   114   155   154    1
   115    95    96    2
   116   102    99    1
   117   102   103    1
   118   111   110    1
   119     7     6    1
   120     7     8   ar
   121     6     5    1
   122   156   154    1
   123   154   153    1
   124    99    98    1
   125    99   100    1
   126     4     3    2
   127   103   104   ar
   128   103   105   ar
   129     3     2    1
   130   104   106   ar
   131   105   107   ar
   132   149   150    1
   133   106   108   ar
   134   107   108   ar
   135     5     2    1
   136   108   109    1
   137   153   150    1
   138   100   101    2
   139     2     1    1
   140   150   151    1
   141   168   167    1
   142   128   127    1
   143   129   127    1
   144   127   126    1
   145   167   165   ar
   146   167   166   ar
   147   151   152    2
   148   165   163   ar
   149   166   164   ar
   150   126   123    1
   151   163   162   ar
   152   164   162   ar
   153   125   124    2
   154   124   123    1
   155   123   122    1
   156   162   161    1
   157   157   158    1
   158   161   158    1
   159   158   159    1
   160   159   160    2
