@<TRIPOS>MOLECULE
tmp/4cq7C00.pdb
 153 146 0 0 0
SMALL
GASTEIGER

@<TRIPOS>ATOM
      1  N         18.3320  -25.4600   16.1350 N.3     8  GLU8       -0.1245
      2  CA        17.6580  -26.0180   14.9760 C.3     8  GLU8        0.1567
      3  C         18.3640  -25.4910   13.7400 C.2     8  GLU8        0.2260
      4  O         18.5210  -24.2740   13.5790 O.2     8  GLU8       -0.2867
      5  CB        16.1720  -25.6350   14.9700 C.3     8  GLU8        0.0388
      6  CG        15.3990  -26.2370   13.8140 C.3     8  GLU8        0.1160
      7  CD        13.9570  -25.7600   13.7500 C.2     8  GLU8        0.3649
      8  OE1       13.6220  -24.7920   14.4540 O.co2   8  GLU8       -0.2457
      9  OE2       13.1680  -26.3460   12.9850 O.co2   8  GLU8       -0.2457
     10  N         18.6660  -25.9040    9.5020 N.3    10  ASN10      -0.1240
     11  CA        18.2540  -26.4210    8.2270 C.3    10  ASN10       0.1653
     12  C         19.5010  -26.5480    7.3460 C.2    10  ASN10       0.2266
     13  O         20.0770  -25.5420    6.9000 O.2    10  ASN10      -0.2867
     14  CB        17.2100  -25.5160    7.5870 C.3    10  ASN10       0.1155
     15  CG        16.6040  -26.1290    6.3560 C.2    10  ASN10       0.2627
     16  OD1       17.0920  -27.1370    5.8590 O.2    10  ASN10      -0.2716
     17  ND2       15.5310  -25.5250    5.8590 N.am   10  ASN10      -0.0877
     18  N         13.2100  -29.8330    3.0130 N.3    16  SER16      -0.1203
     19  CA        12.4760  -28.9170    3.8890 C.3    16  SER16       0.2005
     20  C         13.0230  -27.5100    3.7670 C.2    16  SER16       0.2460
     21  O         14.2340  -27.3370    3.7100 O.2    16  SER16      -0.2732
     22  CB        12.5890  -29.3870    5.3330 C.3    16  SER16       0.2103
     23  OG        11.6910  -28.6930    6.1740 O.3    16  SER16      -0.2182
     24  N         12.1510  -26.4910    3.7630 N.am   17  PRO17      -0.2728
     25  CA        10.6960  -26.5270    3.8910 C.3    17  PRO17       0.1401
     26  C         10.0180  -26.9370    2.5930 C.2    17  PRO17       0.2269
     27  O         10.5770  -26.7450    1.5070 O.2    17  PRO17      -0.2865
     28  CB        10.3450  -25.0840    4.2520 C.3    17  PRO17       0.0296
     29  CG        11.3870  -24.2850    3.5790 C.3    17  PRO17       0.0237
     30  CD        12.6480  -25.1160    3.5970 C.3    17  PRO17       0.0939
     31  N          3.1610  -24.9720    5.3610 N.3    34  VAL34      -0.1245
     32  CA         4.5710  -25.3360    5.2360 C.3    34  VAL34       0.1561
     33  C          4.9330  -26.4570    6.1960 C.2    34  VAL34       0.2260
     34  O          5.3470  -26.2100    7.3250 O.2    34  VAL34      -0.2867
     35  CB         5.4920  -24.1160    5.4870 C.3    34  VAL34       0.0252
     36  CG1        6.9620  -24.4580    5.2180 C.3    34  VAL34       0.0019
     37  CG2        5.0540  -22.9340    4.6310 C.3    34  VAL34       0.0019
     38  N          7.5130  -29.0820    7.5740 N.3    36  PHE36      -0.1241
     39  CA         8.9520  -28.9010    7.7220 C.3    36  PHE36       0.1605
     40  C          9.5820  -29.9230    8.6710 C.2    36  PHE36       0.2264
     41  O          8.9050  -30.5410    9.5110 O.2    36  PHE36      -0.2867
     42  CB         9.2510  -27.4780    8.2060 C.3    36  PHE36       0.0534
     43  CG         8.9060  -27.2350    9.6430 C.ar   36  PHE36      -0.0203
     44  CD1        7.6150  -26.8920   10.0080 C.ar   36  PHE36      -0.0042
     45  CD2        9.8770  -27.3410   10.6350 C.ar   36  PHE36      -0.0042
     46  CE1        7.2880  -26.6820   11.3270 C.ar   36  PHE36      -0.0003
     47  CE2        9.5510  -27.1210   11.9690 C.ar   36  PHE36      -0.0003
     48  CZ         8.2550  -26.7940   12.3090 C.ar   36  PHE36      -0.0000
     49  N         13.7720  -30.0220   10.3700 N.3    38  ASN38      -0.1240
     50  CA        15.1810  -29.6140   10.4000 C.3    38  ASN38       0.1653
     51  C         15.9570  -30.4950   11.3620 C.2    38  ASN38       0.2266
     52  O         15.3760  -31.3040   12.0920 O.2    38  ASN38      -0.2867
     53  CB        15.3300  -28.1520   10.8130 C.3    38  ASN38       0.1155
     54  CG        14.7810  -27.1850    9.7680 C.2    38  ASN38       0.2627
     55  OD1       14.9580  -27.3740    8.5590 O.2    38  ASN38      -0.2716
     56  ND2       14.0880  -26.1450   10.2370 N.am   38  ASN38      -0.0877
     57  N          3.9120  -25.5390    9.7750 N.3    56  CYS56      -0.1235
     58  CA         3.6740  -24.1210    9.9140 C.3    56  CYS56       0.1677
     59  C          2.4790  -23.7000    9.0500 C.2    56  CYS56       0.2270
     60  O          2.4710  -23.9340    7.8430 O.2    56  CYS56      -0.2867
     61  CB         4.9090  -23.3260    9.5010 C.3    56  CYS56       0.0956
     62  SG         6.1520  -23.0980   10.7790 S.3    56  CYS56      -0.0801
     63  N          3.3810  -17.0670   11.1990 N.3    70  PHE70      -0.1241
     64  CA         2.9280  -18.4690   11.1440 C.3    70  PHE70       0.1605
     65  C          2.3200  -18.8950   12.4720 C.2    70  PHE70       0.2264
     66  O          2.7120  -18.3800   13.5180 O.2    70  PHE70      -0.2867
     67  CB         4.0830  -19.4320   10.8670 C.3    70  PHE70       0.0534
     68  CG         4.7160  -19.3070    9.5040 C.ar   70  PHE70      -0.0203
     69  CD1        4.2550  -20.0710    8.4410 C.ar   70  PHE70      -0.0042
     70  CD2        5.8260  -18.5080    9.3140 C.ar   70  PHE70      -0.0042
     71  CE1        4.8700  -20.0030    7.1860 C.ar   70  PHE70      -0.0003
     72  CE2        6.4370  -18.4270    8.0660 C.ar   70  PHE70      -0.0003
     73  CZ         5.9500  -19.1780    7.0060 C.ar   70  PHE70      -0.0000
     74  N          4.4510  -28.4630   16.1670 N.3    74  TYR74      -0.1241
     75  CA         5.5840  -29.3460   15.8740 C.3    74  TYR74       0.1605
     76  C          6.2470  -29.9230   17.0940 C.2    74  TYR74       0.2264
     77  O          5.9950  -29.4940   18.2140 O.2    74  TYR74      -0.2867
     78  CB         6.6460  -28.6360   15.0140 C.3    74  TYR74       0.0534
     79  CG         7.3520  -27.3650   15.5070 C.ar   74  TYR74      -0.0201
     80  CD1        6.6600  -26.1700   15.7030 C.ar   74  TYR74      -0.0009
     81  CD2        8.7410  -27.3280   15.6370 C.ar   74  TYR74      -0.0009
     82  CE1        7.3140  -25.0160   16.0780 C.ar   74  TYR74       0.0417
     83  CE2        9.4040  -26.1630   15.9900 C.ar   74  TYR74       0.0417
     84  CZ         8.6930  -25.0180   16.2110 C.ar   74  TYR74       0.1957
     85  OH         9.3240  -23.8520   16.5720 O.3    74  TYR74      -0.2866
     86  N          5.2660  -18.4530   15.2090 N.3    90  TYR90      -0.1241
     87  CA         6.5920  -18.2670   14.6280 C.3    90  TYR90       0.1605
     88  C          6.4790  -17.0700   13.6960 C.2    90  TYR90       0.2264
     89  O          5.7150  -17.0720   12.7200 O.2    90  TYR90      -0.2867
     90  CB         7.0800  -19.5260   13.8850 C.3    90  TYR90       0.0534
     91  CG         8.2100  -19.2490   12.9000 C.ar   90  TYR90      -0.0201
     92  CD1        9.4000  -18.6610   13.3080 C.ar   90  TYR90      -0.0009
     93  CD2        8.0690  -19.5560   11.5520 C.ar   90  TYR90      -0.0009
     94  CE1       10.4230  -18.3900   12.3970 C.ar   90  TYR90       0.0417
     95  CE2        9.0730  -19.2870   10.6410 C.ar   90  TYR90       0.0417
     96  CZ        10.2520  -18.7130   11.0680 C.ar   90  TYR90       0.1957
     97  OH        11.2330  -18.4560   10.1260 O.3    90  TYR90      -0.2866
     98  N         11.8170  -18.7760   21.1700 N.3   116  LEU116     -0.1245
     99  CA        12.3210  -19.0100   19.8320 C.3   116  LEU116      0.1561
    100  C         13.0600  -17.7620   19.3630 C.2   116  LEU116      0.2260
    101  O         12.4720  -16.6870   19.3210 O.2   116  LEU116     -0.2867
    102  CB        11.1670  -19.3450   18.8780 C.3   116  LEU116      0.0270
    103  CG        11.4530  -19.6510   17.3980 C.3   116  LEU116      0.0019
    104  CD1       10.2060  -20.2680   16.7510 C.3   116  LEU116      0.0001
    105  CD2       11.8660  -18.4480   16.6010 C.3   116  LEU116      0.0001
    106  N         15.3560  -16.5760   16.0440 N.3   118  GLN118     -0.1245
    107  CA        15.9190  -16.8490   14.7260 C.3   118  GLN118      0.1566
    108  C         17.2180  -16.0840   14.5540 C.2   118  GLN118      0.2260
    109  O         17.2660  -14.8900   14.8230 O.2   118  GLN118     -0.2867
    110  CB        14.9320  -16.4630   13.6410 C.3   118  GLN118      0.0367
    111  CG        15.3450  -16.9280   12.2820 C.3   118  GLN118      0.0905
    112  CD        14.2240  -16.7860   11.2990 C.2   118  GLN118      0.2608
    113  OE1       13.6290  -17.7780   10.8870 O.2   118  GLN118     -0.2717
    114  NE2       13.9230  -15.5450   10.9140 N.am  118  GLN118     -0.0878
    115  N         17.7250  -16.3420    8.8600 N.3   121  TYR121     -0.1228
    116  CA        16.4840  -16.7200    8.1900 C.3   121  TYR121      0.1721
    117  C         16.7910  -17.4620    6.8970 C.2   121  TYR121      0.2437
    118  O         17.4230  -16.8800    6.0190 O.2   121  TYR121     -0.2733
    119  CB        15.6540  -15.4740    7.8750 C.3   121  TYR121      0.0547
    120  CG        14.2850  -15.7380    7.2520 C.ar  121  TYR121     -0.0200
    121  CD1       13.3800  -16.6070    7.8450 C.ar  121  TYR121     -0.0009
    122  CD2       13.8860  -15.0770    6.0980 C.ar  121  TYR121     -0.0009
    123  CE1       12.1140  -16.8260    7.2960 C.ar  121  TYR121      0.0417
    124  CE2       12.6240  -15.2890    5.5450 C.ar  121  TYR121      0.0417
    125  CZ        11.7510  -16.1650    6.1450 C.ar  121  TYR121      0.1957
    126  OH        10.5000  -16.3760    5.6060 O.3   121  TYR121     -0.2866
    127  N         16.3240  -18.7180    6.7420 N.am  122  PRO122     -0.2729
    128  CA        15.5510  -19.6080    7.6210 C.3   122  PRO122      0.1401
    129  C         16.3670  -20.7630    8.2390 C.2   122  PRO122      0.2269
    130  O         15.7790  -21.7120    8.7630 O.2   122  PRO122     -0.2865
    131  CB        14.4970  -20.1650    6.6600 C.3   122  PRO122      0.0296
    132  CG        15.2790  -20.3440    5.3830 C.3   122  PRO122      0.0237
    133  CD        16.3300  -19.2410    5.3610 C.3   122  PRO122      0.0939
    134  N         18.0800  -21.4720   14.0360 N.3   125  LEU125     -0.1245
    135  CA        17.2470  -21.0010   15.1420 C.3   125  LEU125      0.1561
    136  C         17.7540  -21.5430   16.4530 C.2   125  LEU125      0.2260
    137  O         18.3360  -22.6270   16.5060 O.2   125  LEU125     -0.2867
    138  CB        15.7820  -21.3970   14.9460 C.3   125  LEU125      0.0270
    139  CG        15.0970  -20.9060   13.6690 C.3   125  LEU125      0.0019
    140  CD1       15.3470  -21.8840   12.5340 C.3   125  LEU125      0.0001
    141  CD2       13.5890  -20.7320   13.8930 C.3   125  LEU125      0.0001
    142  N         16.6290  -22.2070   20.5470 N.3   127  TYR127     -0.1241
    143  CA        15.4940  -22.3460   21.4430 C.3   127  TYR127      0.1605
    144  C         15.9340  -22.4860   22.8760 C.2   127  TYR127      0.2264
    145  O         16.9450  -23.1260   23.1550 O.2   127  TYR127     -0.2867
    146  CB        14.6460  -23.5780   21.1000 C.3   127  TYR127      0.0534
    147  CG        13.9620  -23.5380   19.7700 C.ar  127  TYR127     -0.0201
    148  CD1       14.6180  -23.9520   18.6160 C.ar  127  TYR127     -0.0009
    149  CD2       12.6400  -23.1150   19.6690 C.ar  127  TYR127     -0.0009
    150  CE1       13.9770  -23.9440   17.3950 C.ar  127  TYR127      0.0417
    151  CE2       11.9970  -23.0800   18.4460 C.ar  127  TYR127      0.0417
    152  CZ        12.6620  -23.4870   17.3190 C.ar  127  TYR127      0.1957
    153  OH        12.0010  -23.4680   16.1130 O.3   127  TYR127     -0.2866
@<TRIPOS>BOND
     1    27    26    2
     2    26    25    1
     3    18    19    1
     4    29    30    1
     5    29    28    1
     6    30    24    1
     7    21    20    2
     8    24    20   am
     9    24    25    1
    10    20    19    1
    11    19    22    1
    12    25    28    1
    13    37    35    1
    14    36    35    1
    15    32    31    1
    16    32    35    1
    17    32    33    1
    18    22    23    1
    19   133   132    1
    20   133   127    1
    21   132   131    1
    22   124   122   ar
    23   124   125   ar
    24   126   125    1
    25    17    15   am
    26    16    15    2
    27   118   117    2
    28   122   120   ar
    29   125   123   ar
    30    33    34    2
    31    15    14    1
    32   131   128    1
    33   127   117   am
    34   127   128    1
    35   117   116    1
    36    13    12    2
    37    73    71   ar
    38    73    72   ar
    39    71    69   ar
    40   120   121   ar
    41   120   119    1
    42   123   121   ar
    43    12    11    1
    44    38    39    1
    45    14    11    1
    46   128   129    1
    47    39    42    1
    48    39    40    1
    49    60    59    2
    50   119   116    1
    51    72    70   ar
    52   116   115    1
    53    42    43    1
    54    11    10    1
    55   129   130    2
    56    69    68   ar
    57    55    54    2
    58    40    41    2
    59    59    58    1
    60    70    68   ar
    61    61    58    1
    62    61    62    1
    63    68    67    1
    64    43    44   ar
    65    43    45   ar
    66    54    56   am
    67    54    53    1
    68    57    58    1
    69    44    46   ar
    70    97    96    1
    71    49    50    1
    72    50    53    1
    73    50    51    1
    74    45    47   ar
    75    95    96   ar
    76    95    93   ar
    77    67    64    1
    78   113   112    2
    79   114   112   am
    80    96    94   ar
    81    64    63    1
    82    64    65    1
    83   112   111    1
    84    46    48   ar
    85    51    52    2
    86    93    91   ar
    87    47    48   ar
    88   111   110    1
    89    94    92   ar
    90    65    66    2
    91   140   139    1
    92    89    88    2
    93    91    92   ar
    94    91    90    1
    95     9     7   ar
    96     4     3    2
    97   110   107    1
    98   139   141    1
    99   139   138    1
   100    88    87    1
   101     3     2    1
   102     7     6    1
   103     7     8   ar
   104     6     5    1
   105    90    87    1
   106   134   135    1
   107   108   107    1
   108   108   109    2
   109    87    86    1
   110   107   106    1
   111   138   135    1
   112     5     2    1
   113     2     1    1
   114    78    79    1
   115    78    75    1
   116   135   136    1
   117    79    81   ar
   118    79    80   ar
   119    81    83   ar
   120    80    82   ar
   121    75    74    1
   122    75    76    1
   123    83    84   ar
   124    82    84   ar
   125   153   152    1
   126    84    85    1
   127   136   137    2
   128   105   103    1
   129   104   103    1
   130    76    77    2
   131   152   150   ar
   132   152   151   ar
   133   150   148   ar
   134   103   102    1
   135   151   149   ar
   136   148   147   ar
   137   102    99    1
   138   101   100    2
   139   100    99    1
   140   149   147   ar
   141   147   146    1
   142    99    98    1
   143   142   143    1
   144   146   143    1
   145   143   144    1
   146   144   145    2
