@<TRIPOS>MOLECULE
tmp/4cq7A00.pdb
 154 149 0 0 0
SMALL
GASTEIGER

@<TRIPOS>ATOM
      1  N         -8.1100  -48.9920   17.8120 N.3     8  GLU8       -0.1245
      2  CA        -8.5080  -48.1420   16.7040 C.3     8  GLU8        0.1567
      3  C         -8.5540  -48.9960   15.4460 C.2     8  GLU8        0.2260
      4  O         -7.5750  -49.6920   15.1240 O.2     8  GLU8       -0.2867
      5  CB        -7.5240  -46.9620   16.5470 C.3     8  GLU8        0.0388
      6  CG        -7.8650  -46.0230   15.4110 C.3     8  GLU8        0.1160
      7  CD        -6.7630  -45.0250   15.1000 C.2     8  GLU8        0.3649
      8  OE1       -5.6400  -45.1780   15.6290 O.co2   8  GLU8       -0.2457
      9  OE2       -7.0280  -44.0830   14.3200 O.co2   8  GLU8       -0.2457
     10  N         -9.9270  -49.1310   11.2490 N.3    10  ASN10      -0.1240
     11  CA       -10.4680  -48.5680   10.0240 C.3    10  ASN10       0.1653
     12  C        -11.3910  -49.5910    9.3900 C.2    10  ASN10       0.2266
     13  O        -10.9270  -50.6140    8.8740 O.2    10  ASN10      -0.2867
     14  CB        -9.3540  -48.1870    9.0460 C.3    10  ASN10       0.1155
     15  CG        -9.8640  -47.4420    7.8430 C.2    10  ASN10       0.2627
     16  OD1      -11.0740  -47.3250    7.6350 O.2    10  ASN10      -0.2716
     17  ND2       -8.9420  -46.9330    7.0290 N.am   10  ASN10      -0.0877
     18  N        -11.7740  -42.6520    4.9940 N.3    16  SER16      -0.1203
     19  CA       -10.4700  -42.4350    5.6220 C.3    16  SER16       0.2005
     20  C         -9.5330  -43.6020    5.3200 C.2    16  SER16       0.2460
     21  O         -9.9870  -44.7470    5.2290 O.2    16  SER16      -0.2732
     22  CB       -10.6580  -42.2720    7.1390 C.3    16  SER16       0.2103
     23  OG        -9.4730  -41.9100    7.7960 O.3    16  SER16      -0.2182
     24  N         -8.2310  -43.3330    5.1670 N.am   17  PRO17      -0.2728
     25  CA        -7.6070  -42.0080    5.2250 C.3    17  PRO17       0.1401
     26  C         -7.7080  -41.2680    3.8950 C.2    17  PRO17       0.2269
     27  O         -7.8840  -41.8980    2.8470 O.2    17  PRO17      -0.2865
     28  CB        -6.1510  -42.3330    5.5790 C.3    17  PRO17       0.0296
     29  CG        -5.9150  -43.6390    4.8810 C.3    17  PRO17       0.0237
     30  CD        -7.2200  -44.4000    5.0450 C.3    17  PRO17       0.0939
     31  N         -5.5660  -39.0480    1.3390 N.3    19  ILE19      -0.1245
     32  CA        -4.1820  -38.6920    1.0340 C.3    19  ILE19       0.1561
     33  C         -4.1530  -37.4410    0.1680 C.2    19  ILE19       0.2260
     34  O         -4.6840  -37.4210   -0.9520 O.2    19  ILE19      -0.2867
     35  CB        -3.4310  -39.8450    0.3430 C.3    19  ILE19       0.0252
     36  CG1       -3.3530  -41.0460    1.2930 C.3    19  ILE19       0.0019
     37  CG2       -2.0340  -39.4030   -0.0530 C.3    19  ILE19       0.0019
     38  CD1       -2.8500  -42.3200    0.6460 C.3    19  ILE19       0.0001
     39  N          5.5010  -41.7090   -0.1520 N.3    28  PHE28      -0.1241
     40  CA         5.2370  -40.6260    0.7800 C.3    28  PHE28       0.1605
     41  C          6.4930  -39.7720    0.9830 C.2    28  PHE28       0.2264
     42  O          7.6320  -40.2800    1.0350 O.2    28  PHE28      -0.2867
     43  CB         4.7610  -41.1730    2.1210 C.3    28  PHE28       0.0534
     44  CG         3.3080  -41.5550    2.1570 C.ar   28  PHE28      -0.0203
     45  CD1        2.3210  -40.6130    1.9300 C.ar   28  PHE28      -0.0042
     46  CD2        2.9250  -42.8530    2.4710 C.ar   28  PHE28      -0.0042
     47  CE1        0.9740  -40.9560    1.9820 C.ar   28  PHE28      -0.0003
     48  CE2        1.5690  -43.2020    2.5290 C.ar   28  PHE28      -0.0003
     49  CZ         0.6050  -42.2560    2.2840 C.ar   28  PHE28      -0.0000
     50  N         -2.2370  -36.2340    5.5350 N.3    34  VAL34      -0.1245
     51  CA        -3.2170  -37.3060    5.6210 C.3    34  VAL34       0.1561
     52  C         -4.2220  -37.0430    6.7480 C.2    34  VAL34       0.2260
     53  O         -4.0250  -37.4700    7.8950 O.2    34  VAL34      -0.2867
     54  CB        -2.5230  -38.6710    5.8430 C.3    34  VAL34       0.0252
     55  CG1       -3.5560  -39.8060    5.7950 C.3    34  VAL34       0.0019
     56  CG2       -1.4160  -38.8920    4.8040 C.3    34  VAL34       0.0019
     57  N         -7.4540  -37.9750    8.7910 N.3    36  PHE36      -0.1241
     58  CA        -8.0220  -39.2870    9.0560 C.3    36  PHE36       0.1605
     59  C         -9.0170  -39.3070   10.1940 C.2    36  PHE36       0.2264
     60  O         -9.0510  -38.4020   11.0600 O.2    36  PHE36      -0.2867
     61  CB        -6.9080  -40.2880    9.3500 C.3    36  PHE36       0.0534
     62  CG        -6.2310  -40.0730   10.6770 C.ar   36  PHE36      -0.0203
     63  CD1       -5.2500  -39.1100   10.8260 C.ar   36  PHE36      -0.0042
     64  CD2       -6.5760  -40.8480   11.7760 C.ar   36  PHE36      -0.0042
     65  CE1       -4.6210  -38.9180   12.0490 C.ar   36  PHE36      -0.0003
     66  CE2       -5.9500  -40.6670   12.9950 C.ar   36  PHE36      -0.0003
     67  CZ        -4.9700  -39.7020   13.1330 C.ar   36  PHE36      -0.0000
     68  N        -10.8240  -42.8230   12.2900 N.3    38  ASN38      -0.1240
     69  CA       -11.1510  -44.2410   12.4320 C.3    38  ASN38       0.1653
     70  C        -12.0900  -44.4630   13.6070 C.2    38  ASN38       0.2266
     71  O        -12.3540  -43.5380   14.3820 O.2    38  ASN38      -0.2867
     72  CB        -9.8670  -45.0580   12.6010 C.3    38  ASN38       0.1155
     73  CG        -8.9780  -45.0050   11.3760 C.2    38  ASN38       0.2627
     74  OD1       -9.4320  -45.2620   10.2550 O.2    38  ASN38      -0.2716
     75  ND2       -7.7010  -44.6770   11.5770 N.am   38  ASN38      -0.0877
     76  N         -2.2560  -36.4910   10.0190 N.3    56  CYS56      -0.1235
     77  CA        -0.8830  -36.9920    9.9350 C.3    56  CYS56       0.1677
     78  C         -0.1240  -36.2030    8.8790 C.2    56  CYS56       0.2270
     79  O         -0.5360  -36.1440    7.7140 O.2    56  CYS56      -0.2867
     80  CB        -0.8440  -38.4800    9.5800 C.3    56  CYS56       0.0956
     81  SG        -0.9450  -39.6110   10.9830 S.3    56  CYS56      -0.0801
     82  N          5.4810  -40.1450   10.2190 N.3    70  PHE70      -0.1241
     83  CA         4.5110  -39.0460   10.2780 C.3    70  PHE70       0.1605
     84  C          4.7030  -38.2350   11.5740 C.2    70  PHE70       0.2264
     85  O          5.1630  -38.7630   12.5920 O.2    70  PHE70      -0.2867
     86  CB         3.0610  -39.5520   10.2550 C.3    70  PHE70       0.0534
     87  CG         2.6420  -40.2670    8.9900 C.ar   70  PHE70      -0.0203
     88  CD1        2.0610  -39.5780    7.9390 C.ar   70  PHE70      -0.0042
     89  CD2        2.7470  -41.6460    8.8930 C.ar   70  PHE70      -0.0042
     90  CE1        1.6180  -40.2440    6.7980 C.ar   70  PHE70      -0.0003
     91  CE2        2.3100  -42.3240    7.7470 C.ar   70  PHE70      -0.0003
     92  CZ         1.7620  -41.6230    6.6970 C.ar   70  PHE70      -0.0000
     93  N          4.3650  -40.9180   14.6550 N.3    90  TYR90      -0.1241
     94  CA         3.5140  -41.9850   14.1490 C.3    90  TYR90       0.1605
     95  C          4.3370  -42.6980   13.0560 C.2    90  TYR90       0.2264
     96  O          4.4650  -42.1760   11.9480 O.2    90  TYR90      -0.2867
     97  CB         2.2040  -41.3620   13.6380 C.3    90  TYR90       0.0534
     98  CG         1.0400  -42.2670   13.2790 C.ar   90  TYR90      -0.0201
     99  CD1        1.1150  -43.1570   12.2130 C.ar   90  TYR90      -0.0009
    100  CD2       -0.1690  -42.1690   13.9660 C.ar   90  TYR90      -0.0009
    101  CE1        0.0290  -43.9550   11.8740 C.ar   90  TYR90       0.0417
    102  CE2       -1.2580  -42.9570   13.6330 C.ar   90  TYR90       0.0417
    103  CZ        -1.1540  -43.8510   12.5940 C.ar   90  TYR90       0.1957
    104  OH        -2.2340  -44.6310   12.2570 O.3    90  TYR90      -0.2866
    105  N         -1.8960  -54.0800   12.3610 N.3   120  VAL120     -0.1231
    106  CA        -2.0630  -54.2540   10.9210 C.3   120  VAL120      0.1692
    107  C         -1.9580  -52.9020   10.2580 C.2   120  VAL120      0.2592
    108  O         -2.7990  -52.0380   10.5030 O.2   120  VAL120     -0.2718
    109  CB        -3.4520  -54.8260   10.5230 C.3   120  VAL120      0.0266
    110  CG1       -3.4770  -55.1700    9.0280 C.3   120  VAL120      0.0020
    111  CG2       -3.8060  -56.0040   11.3400 C.3   120  VAL120      0.0020
    112  N         -0.9440  -52.7060    9.4260 N.am  121  TYR121     -0.1963
    113  CA        -0.8580  -51.4850    8.6380 C.3   121  TYR121      0.1756
    114  C         -1.6170  -51.6900    7.3300 C.2   121  TYR121      0.2461
    115  O         -1.3720  -52.6750    6.6390 O.2   121  TYR121     -0.2730
    116  CB         0.5960  -51.1250    8.3570 C.3   121  TYR121      0.0574
    117  CG         0.7750  -49.8230    7.6060 C.ar  121  TYR121     -0.0198
    118  CD1        0.4700  -48.6120    8.2070 C.ar  121  TYR121     -0.0009
    119  CD2        1.2730  -49.8080    6.3090 C.ar  121  TYR121     -0.0009
    120  CE1        0.6460  -47.4160    7.5280 C.ar  121  TYR121      0.0417
    121  CE2        1.4540  -48.6170    5.6260 C.ar  121  TYR121      0.0417
    122  CZ         1.1340  -47.4240    6.2470 C.ar  121  TYR121      0.1957
    123  OH         1.3040  -46.2170    5.5910 O.3   121  TYR121     -0.2866
    124  N         -2.5350  -50.7800    6.9820 N.am  122  PRO122     -0.2716
    125  CA        -3.0310  -49.5960    7.6790 C.3   122  PRO122      0.1536
    126  C         -4.4770  -49.7910    8.1130 C.2   122  PRO122      0.2599
    127  O         -5.3770  -49.2730    7.4500 O.2   122  PRO122     -0.2715
    128  CB        -2.9250  -48.5160    6.6020 C.3   122  PRO122      0.0310
    129  CG        -3.2240  -49.2820    5.3090 C.3   122  PRO122      0.0237
    130  CD        -3.0220  -50.7680    5.5930 C.3   122  PRO122      0.0939
    131  N         -4.7080  -50.5370    9.1890 N.am  123  THR123     -0.1937
    132  CA        -6.0740  -50.9200    9.5220 C.3   123  THR123      0.2028
    133  C         -6.3950  -51.0120   11.0100 C.2   123  THR123      0.2642
    134  O         -7.5130  -50.7120   11.4070 O.2   123  THR123     -0.2714
    135  CB        -6.4190  -52.2920    8.8990 C.3   123  THR123      0.1808
    136  OG1       -5.7580  -52.4390    7.6370 O.3   123  THR123     -0.2208
    137  CG2       -7.9190  -52.4140    8.7090 C.3   123  THR123      0.0379
    138  N         -5.4410  -51.4810   11.8080 N.am  124  LYS124     -0.1963
    139  CA        -5.6570  -51.7340   13.2330 C.3   124  LYS124      0.1728
    140  C         -4.4650  -51.2810   14.0610 C.2   124  LYS124      0.2616
    141  O         -3.3190  -51.5630   13.7250 O.2   124  LYS124     -0.2715
    142  CB        -5.9010  -53.2270   13.5070 C.3   124  LYS124      0.0311
    143  CG        -7.0200  -53.8670   12.7130 C.3   124  LYS124      0.0038
    144  CD        -7.1770  -55.3490   13.0900 C.3   124  LYS124      0.0206
    145  CE        -8.1830  -56.0540   12.1860 C.3   124  LYS124      0.1093
    146  NZ        -8.2790  -57.5180   12.4730 N.3   124  LYS124     -0.1314
    147  N         -4.7630  -50.5900   15.1520 N.am  125  LEU125     -0.1977
    148  CA        -3.7770  -50.1420   16.1270 C.3   125  LEU125      0.1596
    149  C         -4.3090  -50.3460   17.5350 C.2   125  LEU125      0.2287
    150  O         -5.5330  -50.3180   17.7680 O.2   125  LEU125     -0.2864
    151  CB        -3.4400  -48.6560   15.9510 C.3   125  LEU125      0.0297
    152  CG        -2.8010  -48.1500   14.6570 C.3   125  LEU125      0.0022
    153  CD1       -2.5530  -46.6560   14.7560 C.3   125  LEU125      0.0001
    154  CD2       -1.4920  -48.8240   14.3810 C.3   125  LEU125      0.0001
@<TRIPOS>BOND
     1    34    33    2
     2    39    40    1
     3    37    35    1
     4    33    32    1
     5    35    32    1
     6    35    36    1
     7    38    36    1
     8    40    41    1
     9    40    43    1
    10    41    42    2
    11    32    31    1
    12    45    47   ar
    13    45    44   ar
    14    47    49   ar
    15    43    44    1
    16    44    46   ar
    17    49    48   ar
    18    46    48   ar
    19    27    26    2
    20    26    25    1
    21    56    54    1
    22    29    30    1
    23    29    28    1
    24    18    19    1
    25    30    24    1
    26    24    25    1
    27    24    20   am
    28    25    28    1
    29    21    20    2
    30   129   130    1
    31   129   128    1
    32    20    19    1
    33    50    51    1
    34   123   122    1
    35   130   124    1
    36    51    54    1
    37    51    52    1
    38    19    22    1
    39   121   122   ar
    40   121   119   ar
    41    55    54    1
    42   122   120   ar
    43   119   117   ar
    44   128   125    1
    45   115   114    2
    46    92    90   ar
    47    92    91   ar
    48    52    53    2
    49    90    88   ar
    50   124   114   am
    51   124   125    1
    52    17    15   am
    53    22    23    1
    54   114   113    1
    55   127   126    2
    56   120   118   ar
    57   117   118   ar
    58   117   116    1
    59    16    15    2
    60   136   135    1
    61   125   126    1
    62    79    78    2
    63    91    89   ar
    64    15    14    1
    65    88    87   ar
    66   126   131   am
    67   116   113    1
    68   113   112    1
    69   137   135    1
    70    57    58    1
    71    13    12    2
    72    78    77    1
    73    89    87   ar
    74   135   132    1
    75    87    86    1
    76   110   109    1
    77    14    11    1
    78    58    61    1
    79    58    59    1
    80   131   132    1
    81    61    62    1
    82    12    11    1
    83   112   107   am
    84   132   133    1
    85    80    77    1
    86    80    81    1
    87    77    76    1
    88    11    10    1
    89    59    60    2
    90    82    83    1
    91    86    83    1
    92    74    73    2
    93   107   108    2
    94   107   106    1
    95    83    84    1
    96   109   106    1
    97   109   111    1
    98    62    63   ar
    99    62    64   ar
   100    63    65   ar
   101   106   105    1
   102   133   134    2
   103   133   138   am
   104    73    75   am
   105    73    72    1
   106    84    85    2
   107    64    66   ar
   108   138   139    1
   109   101    99   ar
   110   101   103   ar
   111    96    95    2
   112    65    67   ar
   113   145   146    1
   114   145   144    1
   115    99    98   ar
   116   104   103    1
   117    68    69    1
   118    69    72    1
   119    69    70    1
   120   103   102   ar
   121   143   144    1
   122   143   142    1
   123    66    67   ar
   124    95    94    1
   125   139   142    1
   126   139   140    1
   127    98    97    1
   128    98   100   ar
   129    70    71    2
   130   102   100   ar
   131    97    94    1
   132   141   140    2
   133   140   147   am
   134    94    93    1
   135     9     7   ar
   136   154   152    1
   137   152   153    1
   138   152   151    1
   139     7     6    1
   140     7     8   ar
   141     4     3    2
   142   147   148    1
   143     6     5    1
   144     3     2    1
   145   151   148    1
   146   148   149    1
   147     5     2    1
   148     2     1    1
   149   149   150    2
