@<TRIPOS>MOLECULE
tmp/4cq8B02.pdb
 161 153 0 0 0
SMALL
GASTEIGER

@<TRIPOS>ATOM
      1  N         65.5350    3.0120   23.6040 N.3    14  TYR14      -0.1241
      2  CA        64.2350    2.9270   22.9360 C.3    14  TYR14       0.1605
      3  C         63.0740    2.8030   23.9210 C.2    14  TYR14       0.2264
      4  O         62.0040    3.3680   23.6680 O.2    14  TYR14      -0.2867
      5  CB        64.2210    1.8060   21.8870 C.3    14  TYR14       0.0534
      6  CG        65.1850    2.0610   20.7490 C.ar   14  TYR14      -0.0201
      7  CD1       65.1310    3.2450   20.0160 C.ar   14  TYR14      -0.0009
      8  CD2       66.1510    1.1190   20.4010 C.ar   14  TYR14      -0.0009
      9  CE1       66.0360    3.5010   18.9900 C.ar   14  TYR14       0.0417
     10  CE2       67.0560    1.3610   19.3690 C.ar   14  TYR14       0.0417
     11  CZ        66.9920    2.5550   18.6650 C.ar   14  TYR14       0.1957
     12  OH        67.8410    2.8100   17.6190 O.3    14  TYR14      -0.2866
     13  N         62.7870    6.4130   25.6080 N.3    17  PHE17      -0.1227
     14  CA        62.0920    7.2790   24.6530 C.3    17  PHE17       0.1736
     15  C         60.5900    6.9850   24.6000 C.2    17  PHE17       0.2595
     16  O         59.7990    7.9270   24.6430 O.2    17  PHE17      -0.2718
     17  CB        62.7150    7.1850   23.2410 C.3    17  PHE17       0.0547
     18  CG        64.1370    7.6890   23.0800 C.ar   17  PHE17      -0.0202
     19  CD1       64.6760    8.6170   23.9730 C.ar   17  PHE17      -0.0042
     20  CD2       64.9220    7.2730   22.0090 C.ar   17  PHE17      -0.0042
     21  CE1       65.9840    9.0910   23.8160 C.ar   17  PHE17      -0.0003
     22  CE2       66.2300    7.7570   21.8500 C.ar   17  PHE17      -0.0003
     23  CZ        66.7450    8.6700   22.7480 C.ar   17  PHE17      -0.0000
     24  N         60.2040    5.6800   24.5660 N.am   18  LEU18      -0.1980
     25  CA        58.8120    5.2250   24.5230 C.3    18  LEU18       0.1596
     26  C         58.0470    5.5300   25.8120 C.2    18  LEU18       0.2287
     27  O         56.9450    6.0720   25.7290 O.2    18  LEU18      -0.2864
     28  CB        58.7080    3.7230   24.1450 C.3    18  LEU18       0.0297
     29  CG        57.2890    3.1100   24.0840 C.3    18  LEU18       0.0022
     30  CD1       56.4580    3.7210   22.9760 C.3    18  LEU18       0.0001
     31  CD2       57.3430    1.6230   23.9600 C.3    18  LEU18       0.0001
     32  N         57.1830    9.1770   25.8600 N.3    21  CYS21      -0.1235
     33  CA        56.1290    9.4600   24.8860 C.3    21  CYS21       0.1677
     34  C         54.7540    8.9480   25.3570 C.2    21  CYS21       0.2270
     35  O         53.7610    9.6750   25.2390 O.2    21  CYS21      -0.2867
     36  CB        56.5050    8.9210   23.5080 C.3    21  CYS21       0.0956
     37  SG        57.9340    9.7550   22.7580 S.3    21  CYS21      -0.0801
     38  N         48.5850   10.1450   21.8810 N.3    27  GLY27      -0.1225
     39  CA        48.6880    8.8370   21.2370 C.3    27  GLY27       0.1811
     40  C         48.9680    8.8470   19.7460 C.2    27  GLY27       0.2280
     41  O         49.9310    8.2170   19.2960 O.2    27  GLY27      -0.2866
     42  N         52.4760   10.2990   18.7950 N.3    30  CYS30      -0.1221
     43  CA        53.4790    9.2350   19.0230 C.3    30  CYS30       0.1808
     44  C         53.5470    8.3200   17.8100 C.2    30  CYS30       0.2601
     45  O         54.6380    8.0220   17.3150 O.2    30  CYS30      -0.2717
     46  CB        53.1350    8.4150   20.2640 C.3    30  CYS30       0.0970
     47  SG        53.3190    9.2950   21.8240 S.3    30  CYS30      -0.0800
     48  N         52.3680    7.8380   17.3650 N.am   31  HIS31      -0.1975
     49  CA        52.2450    6.9240   16.2300 C.3    31  HIS31       0.1656
     50  C         52.8410    7.5480   14.9590 C.2    31  HIS31       0.2291
     51  O         53.6760    6.9130   14.3090 O.2    31  HIS31      -0.2864
     52  CB        50.7790    6.5040   16.0170 C.3    31  HIS31       0.0771
     53  CG        50.6520    5.2770   15.1860 C.ar   31  HIS31       0.0820
     54  ND1       50.7340    4.0140   15.7490 N.ar   31  HIS31      -0.2267
     55  CD2       50.4940    5.1510   13.8480 C.ar   31  HIS31       0.1154
     56  CE1       50.6030    3.1640   14.7400 C.ar   31  HIS31       0.1986
     57  NE2       50.4570    3.8040   13.5790 N.ar   31  HIS31      -0.2212
     58  N         55.0120   10.0290   14.8010 N.3    33  LEU33      -0.1231
     59  CA        56.4470   10.2110   15.0510 C.3    33  LEU33       0.1693
     60  C         57.1950    8.8980   14.7250 C.2    33  LEU33       0.2592
     61  O         58.2300    8.9340   14.0540 O.2    33  LEU33      -0.2718
     62  CB        56.6990   10.6240   16.5120 C.3    33  LEU33       0.0284
     63  CG        58.1130   11.1300   16.8320 C.3    33  LEU33       0.0019
     64  CD1       58.2570   12.6250   16.4970 C.3    33  LEU33       0.0001
     65  CD2       58.4500   10.9180   18.2970 C.3    33  LEU33       0.0001
     66  N         56.6580    7.7420   15.1890 N.am   34  PHE34      -0.1976
     67  CA        57.2340    6.4360   14.8970 C.3    34  PHE34       0.1639
     68  C         57.2910    6.2180   13.3730 C.2    34  PHE34       0.2290
     69  O         58.3420    5.8240   12.8580 O.2    34  PHE34      -0.2864
     70  CB        56.4270    5.3180   15.5760 C.3    34  PHE34       0.0560
     71  CG        56.9090    3.9180   15.2550 C.ar   34  PHE34      -0.0200
     72  CD1       57.9700    3.3530   15.9540 C.ar   34  PHE34      -0.0042
     73  CD2       56.3230    3.1770   14.2330 C.ar   34  PHE34      -0.0042
     74  CE1       58.4220    2.0620   15.6520 C.ar   34  PHE34      -0.0003
     75  CE2       56.7900    1.8930   13.9190 C.ar   34  PHE34      -0.0003
     76  CZ        57.8250    1.3410   14.6440 C.ar   34  PHE34      -0.0000
     77  N         60.0970    8.2290   11.7680 N.3    37  LEU37      -0.1245
     78  CA        61.3930    7.5720   11.9880 C.3    37  LEU37       0.1561
     79  C         61.5460    6.3920   11.0070 C.2    37  LEU37       0.2260
     80  O         62.6220    6.1810   10.4460 O.2    37  LEU37      -0.2867
     81  CB        61.5210    7.0560   13.4400 C.3    37  LEU37       0.0270
     82  CG        61.5420    8.0770   14.5860 C.3    37  LEU37       0.0019
     83  CD1       61.3320    7.3720   15.9260 C.3    37  LEU37       0.0001
     84  CD2       62.8570    8.8490   14.6200 C.3    37  LEU37       0.0001
     85  N         48.3240   -0.1460   11.4950 N.3    73  PHE73      -0.1241
     86  CA        49.5740    0.3480   12.0690 C.3    73  PHE73       0.1605
     87  C         50.2590    1.2120   11.0070 C.2    73  PHE73       0.2264
     88  O         50.5120    2.3880   11.2320 O.2    73  PHE73      -0.2867
     89  CB        50.4590   -0.8000   12.5640 C.3    73  PHE73       0.0534
     90  CG        51.4250   -0.3950   13.6540 C.ar   73  PHE73      -0.0203
     91  CD1       52.5990    0.2890   13.3500 C.ar   73  PHE73      -0.0042
     92  CD2       51.1350   -0.6480   14.9890 C.ar   73  PHE73      -0.0042
     93  CE1       53.4710    0.7080   14.3660 C.ar   73  PHE73      -0.0003
     94  CE2       52.0160   -0.2440   16.0030 C.ar   73  PHE73      -0.0003
     95  CZ        53.1730    0.4370   15.6850 C.ar   73  PHE73      -0.0000
     96  N         42.5910    8.5730   19.5630 N.3   109  ILE109     -0.1245
     97  CA        43.4050    7.4520   20.0460 C.3   109  ILE109      0.1561
     98  C         43.8060    7.7190   21.5050 C.2   109  ILE109      0.2260
     99  O         44.3990    8.7540   21.8070 O.2   109  ILE109     -0.2867
    100  CB        44.6340    7.1150   19.1430 C.3   109  ILE109      0.0252
    101  CG1       44.2330    6.9500   17.6610 C.3   109  ILE109      0.0019
    102  CG2       45.3200    5.8340   19.6610 C.3   109  ILE109      0.0019
    103  CD1       45.4240    6.7340   16.6510 C.3   109  ILE109      0.0001
    104  N         45.2670    5.5960   25.2140 N.3   111  ARG111     -0.1245
    105  CA        45.7710    4.3410   25.7500 C.3   111  ARG111      0.1563
    106  C         46.0390    4.3890   27.2380 C.2   111  ARG111      0.2260
    107  O         46.3680    5.4470   27.7760 O.2   111  ARG111     -0.2867
    108  CB        46.9870    3.7990   24.9790 C.3   111  ARG111      0.0307
    109  CG        47.7630    4.7930   24.1580 C.3   111  ARG111      0.0489
    110  CD        49.1350    4.8990   24.7390 C.3   111  ARG111      0.2205
    111  NE        50.1000    5.4080   23.7690 N.pl3 111  ARG111     -0.0865
    112  CZ        50.4510    6.6830   23.6490 C.cat 111  ARG111      0.5346
    113  NH1       49.8890    7.6100   24.4150 N.pl3 111  ARG111      0.1354
    114  NH2       51.3620    7.0420   22.7620 N.pl3 111  ARG111      0.1354
    115  N         44.2680   -0.0410   24.4830 N.3   118  ILE118     -0.1245
    116  CA        44.0810    1.1310   23.6190 C.3   118  ILE118      0.1561
    117  C         42.5930    1.2170   23.2270 C.2   118  ILE118      0.2260
    118  O         41.9300    0.1900   23.1060 O.2   118  ILE118     -0.2867
    119  CB        45.0000    1.0520   22.3550 C.3   118  ILE118      0.0252
    120  CG1       46.4900    0.7810   22.7310 C.3   118  ILE118      0.0019
    121  CG2       44.8580    2.3140   21.4670 C.3   118  ILE118      0.0019
    122  CD1       47.4370    0.3660   21.5880 C.3   118  ILE118      0.0001
    123  N         49.8800   -5.5220   17.5850 N.3   339  TYR339     -0.1241
    124  CA        49.5910   -4.1030   17.4600 C.3   339  TYR339      0.1605
    125  C         49.9250   -3.4750   18.8110 C.2   339  TYR339      0.2264
    126  O         50.9430   -2.7870   18.9270 O.2   339  TYR339     -0.2867
    127  CB        48.1300   -3.8170   17.0000 C.3   339  TYR339      0.0534
    128  CG        47.9330   -2.3860   16.5280 C.ar  339  TYR339     -0.0201
    129  CD1       48.2640   -1.3060   17.3470 C.ar  339  TYR339     -0.0009
    130  CD2       47.4600   -2.1120   15.2470 C.ar  339  TYR339     -0.0009
    131  CE1       48.1450    0.0080   16.8980 C.ar  339  TYR339      0.0417
    132  CE2       47.3030   -0.7990   14.7990 C.ar  339  TYR339      0.0417
    133  CZ        47.6570    0.2580   15.6260 C.ar  339  TYR339      0.1957
    134  OH        47.5220    1.5520   15.1950 O.3   339  TYR339     -0.2866
    135  N         53.6060   -3.5690   20.0730 N.3   342  LEU342     -0.1231
    136  CA        54.5470   -2.5410   19.5980 C.3   342  LEU342      0.1693
    137  C         54.3940   -1.2500   20.3700 C.2   342  LEU342      0.2591
    138  O         55.3860   -0.6160   20.7060 O.2   342  LEU342     -0.2718
    139  CB        54.3690   -2.2670   18.0970 C.3   342  LEU342      0.0284
    140  CG        55.2140   -3.1000   17.1440 C.3   342  LEU342      0.0019
    141  CD1       54.7430   -2.9250   15.7250 C.3   342  LEU342      0.0001
    142  CD2       56.7150   -2.7710   17.2770 C.3   342  LEU342      0.0001
    143  N         53.1470   -0.8690   20.6680 N.am  343  VAL343     -0.1980
    144  CA        52.8330    0.3660   21.4010 C.3   343  VAL343      0.1595
    145  C         53.4150    0.3610   22.8360 C.2   343  VAL343      0.2287
    146  O         54.0270    1.3420   23.2520 O.2   343  VAL343     -0.2864
    147  CB        51.2950    0.6300   21.3840 C.3   343  VAL343      0.0276
    148  CG1       50.9090    1.8210   22.2580 C.3   343  VAL343      0.0022
    149  CG2       50.7680    0.7970   19.9540 C.3   343  VAL343      0.0022
    150  N         57.4430   -1.6430   22.6210 N.3   346  GLY346     -0.1210
    151  CA        58.3540   -0.8760   21.7810 C.3   346  GLY346      0.1956
    152  C         59.0670   -1.6450   20.6970 C.2   346  GLY346      0.2611
    153  O         58.5900   -2.6970   20.2530 O.2   346  GLY346     -0.2717
    154  N         60.2310   -1.1020   20.2810 N.am  347  MET347     -0.1979
    155  CA        61.1150   -1.6100   19.2220 C.3   347  MET347      0.1605
    156  C         61.4730   -3.0820   19.3940 C.2   347  MET347      0.2287
    157  O         61.5310   -3.8010   18.4060 O.2   347  MET347     -0.2864
    158  CB        62.4210   -0.7850   19.1390 C.3   347  MET347      0.0413
    159  CG        62.2250    0.7060   18.9360 C.3   347  MET347      0.0598
    160  SD        61.5350    1.1780   17.3240 S.3   347  MET347     -0.1393
    161  CE        61.5830    2.9500   17.5110 C.3   347  MET347      0.0692
@<TRIPOS>BOND
     1    80    79    2
     2    87    88    2
     3    87    86    1
     4    79    78    1
     5    85    86    1
     6    77    78    1
     7    78    81    1
     8    86    89    1
     9    89    90    1
    10    69    68    2
    11    91    90   ar
    12    91    93   ar
    13    68    67    1
    14    81    82    1
    15    57    55   ar
    16    57    56   ar
    17    90    92   ar
    18    55    53   ar
    19    75    73   ar
    20    75    76   ar
    21    61    60    2
    22    73    71   ar
    23    51    50    2
    24    93    95   ar
    25    82    84    1
    26    82    83    1
    27    76    74   ar
    28    60    59    1
    29    60    66   am
    30    56    54   ar
    31   132   130   ar
    32   132   133   ar
    33    58    59    1
    34    67    66    1
    35    67    70    1
    36    50    49    1
    37    92    94   ar
    38    59    62    1
    39    53    54   ar
    40    53    52    1
    41   134   133    1
    42   130   128   ar
    43    71    70    1
    44    71    72   ar
    45   133   131   ar
    46    74    72   ar
    47    95    94   ar
    48   141   140    1
    49    52    49    1
    50    49    48    1
    51    64    63    1
    52    62    63    1
    53   128   127    1
    54   128   129   ar
    55   103   101    1
    56    63    65    1
    57   131   129   ar
    58   127   124    1
    59   140   142    1
    60   140   139    1
    61    45    44    2
    62   160   161    1
    63   160   159    1
    64    48    44   am
    65   124   123    1
    66   124   125    1
    67    12    11    1
    68   101   100    1
    69    44    43    1
    70   139   136    1
    71   157   156    2
    72    11     9   ar
    73    11    10   ar
    74    42    43    1
    75   125   126    2
    76   159   158    1
    77     9     7   ar
    78    43    46    1
    79   158   155    1
    80   100   102    1
    81   100    97    1
    82   155   156    1
    83   155   154    1
    84    41    40    2
    85    10     8   ar
    86    96    97    1
    87   136   135    1
    88   136   137    1
    89    40    39    1
    90   149   147    1
    91     7     6   ar
    92    97    98    1
    93   153   152    2
    94    46    47    1
    95   154   152   am
    96   137   143   am
    97   137   138    2
    98     8     6   ar
    99   143   144    1
   100   152   151    1
   101     6     5    1
   102    39    38    1
   103   147   144    1
   104   147   148    1
   105   144   145    1
   106   121   119    1
   107    98    99    2
   108   122   120    1
   109   151   150    1
   110    22    20   ar
   111    22    23   ar
   112     5     2    1
   113    20    18   ar
   114   119   120    1
   115   119   116    1
   116    23    21   ar
   117    37    36    1
   118   114   112    1
   119   145   146    2
   120     2     1    1
   121     2     3    1
   122    30    29    1
   123    18    17    1
   124    18    19   ar
   125   118   117    2
   126   117   116    1
   127    17    14    1
   128    36    33    1
   129   116   115    1
   130   112   111    2
   131   112   113    1
   132     4     3    2
   133   111   110    1
   134    21    19   ar
   135    31    29    1
   136    29    28    1
   137    28    25    1
   138   109   110    1
   139   109   108    1
   140    25    24    1
   141    25    26    1
   142    24    15   am
   143    15    16    2
   144    15    14    1
   145    14    13    1
   146    33    34    1
   147    33    32    1
   148   108   105    1
   149   104   105    1
   150    35    34    2
   151    27    26    2
   152   105   106    1
   153   106   107    2
