@<TRIPOS>MOLECULE
tmp/4cq9B02.pdb
 158 147 0 0 0
SMALL
GASTEIGER

@<TRIPOS>ATOM
      1  N          6.4800   26.0480   -0.4720 N.3     7  LEU7       -0.1245
      2  CA         6.4800   24.6430   -0.0770 C.3     7  LEU7        0.1561
      3  C          5.0980   24.0090   -0.2540 C.2     7  LEU7        0.2260
      4  O          5.0370   22.8460   -0.6410 O.2     7  LEU7       -0.2867
      5  CB         6.9920   24.4820    1.3610 C.3     7  LEU7        0.0270
      6  CG         7.3100   23.0600    1.8050 C.3     7  LEU7        0.0019
      7  CD1        8.7840   22.9100    2.1290 C.3     7  LEU7        0.0001
      8  CD2        6.4160   22.6490    2.9650 C.3     7  LEU7        0.0001
      9  N          4.6800   23.2670   -3.8040 N.3    10  CYS10      -0.1221
     10  CA         5.5670   22.1490   -4.0720 C.3    10  CYS10       0.1808
     11  C          4.9400   20.7990   -3.7100 C.2    10  CYS10       0.2601
     12  O          5.0130   19.8700   -4.5130 O.2    10  CYS10      -0.2717
     13  CB         6.9140   22.3570   -3.3860 C.3    10  CYS10       0.0970
     14  SG         8.1590   23.1640   -4.4320 S.3    10  CYS10      -0.0800
     15  N          4.2890   20.7000   -2.5350 N.am   11  LEU11      -0.1979
     16  CA         3.6430   19.4640   -2.0550 C.3    11  LEU11       0.1596
     17  C          2.4470   19.0240   -2.9010 C.2    11  LEU11       0.2287
     18  O          2.1480   17.8270   -2.9480 O.2    11  LEU11      -0.2864
     19  CB         3.1760   19.6050   -0.5930 C.3    11  LEU11       0.0297
     20  CG         4.2250   19.6100    0.5080 C.3    11  LEU11       0.0022
     21  CD1        3.6790   20.2480    1.7420 C.3    11  LEU11       0.0001
     22  CD2        4.6620   18.2220    0.8650 C.3    11  LEU11       0.0001
     23  N          8.0900   14.6810   -5.0180 N.3    16  GLY16      -0.1225
     24  CA         8.8000   14.6370   -3.7310 C.3    16  GLY16       0.1811
     25  C         10.3080   14.7680   -3.7930 C.2    16  GLY16       0.2280
     26  O         10.8590   15.7170   -3.2300 O.2    16  GLY16      -0.2866
     27  N         11.4730   18.0300   -5.2880 N.3    19  CYS19      -0.1221
     28  CA        11.3550   18.9890   -4.1880 C.3    19  CYS19       0.1808
     29  C         12.5550   18.8950   -3.2550 C.2    19  CYS19       0.2601
     30  O         13.2290   19.9010   -3.0370 O.2    19  CYS19      -0.2717
     31  CB        10.0570   18.7690   -3.4230 C.3    19  CYS19       0.0970
     32  SG         8.5710   19.2260   -4.3300 S.3    19  CYS19      -0.0800
     33  N         12.8210   17.6710   -2.7190 N.am   20  HIS20      -0.1975
     34  CA        13.9260   17.3350   -1.8180 C.3    20  HIS20       0.1656
     35  C         15.2460   17.9340   -2.2870 C.2    20  HIS20       0.2291
     36  O         15.8870   18.6360   -1.5030 O.2    20  HIS20      -0.2864
     37  CB        14.0610   15.8100   -1.7090 C.3    20  HIS20       0.0771
     38  CG        15.1530   15.3150   -0.8070 C.ar   20  HIS20       0.0820
     39  ND1       15.6730   16.0960    0.2110 N.ar   20  HIS20      -0.2267
     40  CD2       15.7320   14.0950   -0.7540 C.ar   20  HIS20       0.1154
     41  CE1       16.5740   15.3450    0.8140 C.ar   20  HIS20       0.1986
     42  NE2       16.6390   14.1300    0.2760 N.ar   20  HIS20      -0.2212
     43  N         15.4050   22.0200   -2.8410 N.3    23  PHE23      -0.1227
     44  CA        15.6020   22.7170   -1.5750 C.3    23  PHE23       0.1736
     45  C         16.9820   22.5010   -1.0010 C.2    23  PHE23       0.2595
     46  O         17.5000   23.4100   -0.3550 O.2    23  PHE23      -0.2718
     47  CB        14.5030   22.3840   -0.5790 C.3    23  PHE23       0.0547
     48  CG        13.1410   22.8720   -1.0170 C.ar   23  PHE23      -0.0202
     49  CD1       12.8600   24.2340   -1.0880 C.ar   23  PHE23      -0.0042
     50  CD2       12.1300   21.9670   -1.3400 C.ar   23  PHE23      -0.0042
     51  CE1       11.6030   24.6790   -1.4990 C.ar   23  PHE23      -0.0003
     52  CE2       10.8690   22.4150   -1.7500 C.ar   23  PHE23      -0.0003
     53  CZ        10.6140   23.7680   -1.8250 C.ar   23  PHE23      -0.0000
     54  N         17.5980   21.3340   -1.2800 N.am   24  LEU24      -0.1980
     55  CA        18.9790   20.9940   -0.9300 C.3    24  LEU24       0.1596
     56  C         19.9040   21.8780   -1.7870 C.2    24  LEU24       0.2287
     57  O         21.0110   22.1820   -1.3410 O.2    24  LEU24      -0.2864
     58  CB        19.2910   19.5390   -1.2990 C.3    24  LEU24       0.0297
     59  CG        18.8830   18.3780   -0.3930 C.3    24  LEU24       0.0022
     60  CD1       19.3870   17.0730   -0.9960 C.3    24  LEU24       0.0001
     61  CD2       19.4050   18.5390    1.0770 C.3    24  LEU24       0.0001
     62  N         18.6180   29.7130    1.9460 N.3    32  LEU32      -0.1245
     63  CA        17.5680   29.1550    2.7850 C.3    32  LEU32       0.1561
     64  C         17.3240   30.1200    3.9590 C.2    32  LEU32       0.2260
     65  O         18.2040   30.9470    4.2250 O.2    32  LEU32      -0.2867
     66  CB        17.9580   27.7470    3.2910 C.3    32  LEU32       0.0270
     67  CG        17.7490   26.5480    2.3460 C.3    32  LEU32       0.0019
     68  CD1       18.0640   25.2350    3.0560 C.3    32  LEU32       0.0001
     69  CD2       16.3330   26.4790    1.8230 C.3    32  LEU32       0.0001
     70  N         18.0790   13.0120    4.7800 N.3    62  PHE62      -0.1241
     71  CA        17.7530   14.3800    4.3940 C.3    62  PHE62       0.1605
     72  C         18.9450   14.9710    3.6540 C.2    62  PHE62       0.2264
     73  O         18.7940   15.4950    2.5490 O.2    62  PHE62      -0.2867
     74  CB        17.4360   15.1920    5.6470 C.3    62  PHE62       0.0534
     75  CG        16.3310   16.1910    5.4300 C.ar   62  PHE62      -0.0203
     76  CD1       16.5960   17.4350    4.8650 C.ar   62  PHE62      -0.0042
     77  CD2       15.0190   15.8880    5.7790 C.ar   62  PHE62      -0.0042
     78  CE1       15.5720   18.3570    4.6600 C.ar   62  PHE62      -0.0003
     79  CE2       13.9910   16.8110    5.5540 C.ar   62  PHE62      -0.0003
     80  CZ        14.2760   18.0360    4.9890 C.ar   62  PHE62      -0.0000
     81  N         21.0720   23.6350    6.6440 N.3    72  ILE72      -0.1245
     82  CA        20.0620   22.8350    7.3240 C.3    72  ILE72       0.1561
     83  C         20.1460   23.1050    8.8410 C.2    72  ILE72       0.2260
     84  O         19.1210   23.3610    9.4680 O.2    72  ILE72      -0.2867
     85  CB        20.1250   21.3120    6.9270 C.3    72  ILE72       0.0252
     86  CG1       19.8330   21.0940    5.4190 C.3    72  ILE72       0.0019
     87  CG2       19.1590   20.4830    7.7700 C.3    72  ILE72       0.0019
     88  CD1       20.0100   19.6580    4.9500 C.3    72  ILE72       0.0001
     89  N         18.7100   26.4030   10.1620 N.3    75  LEU75      -0.1245
     90  CA        17.2440   26.5120   10.1490 C.3    75  LEU75       0.1561
     91  C         16.6790   26.4260   11.5820 C.2    75  LEU75       0.2260
     92  O         15.4590   26.5210   11.7500 O.2    75  LEU75      -0.2867
     93  CB        16.5940   25.4020    9.2800 C.3    75  LEU75       0.0270
     94  CG        16.6610   25.4960    7.7570 C.3    75  LEU75       0.0019
     95  CD1       16.4280   24.1610    7.1430 C.3    75  LEU75       0.0001
     96  CD2       15.6090   26.4080    7.2280 C.3    75  LEU75       0.0001
     97  N          9.5100    8.2240   -3.4610 N.3    98  ILE98      -0.1245
     98  CA         9.0720    9.0580   -2.3470 C.3    98  ILE98       0.1561
     99  C          7.6410    9.4870   -2.6850 C.2    98  ILE98       0.2260
    100  O          7.3970   10.0010   -3.7870 O.2    98  ILE98      -0.2867
    101  CB        10.0290   10.2700   -2.0990 C.3    98  ILE98       0.0252
    102  CG1       11.4030    9.8080   -1.5800 C.3    98  ILE98       0.0019
    103  CG2        9.4130   11.2820   -1.1270 C.3    98  ILE98       0.0019
    104  CD1       12.5880   10.6930   -1.9450 C.3    98  ILE98       0.0001
    105  N          3.8160   11.0650   -0.7320 N.3   100  ARG100     -0.1245
    106  CA         3.2980   11.6890    0.4750 C.3   100  ARG100      0.1563
    107  C          1.8170   12.0110    0.4330 C.2   100  ARG100      0.2260
    108  O          1.2980   12.5310   -0.5610 O.2   100  ARG100     -0.2867
    109  CB         4.1100   12.9420    0.8870 C.3   100  ARG100      0.0307
    110  CG         4.9380   13.6290   -0.1960 C.3   100  ARG100      0.0489
    111  CD         4.2320   14.8250   -0.7540 C.3   100  ARG100      0.2205
    112  NE         5.1830   15.7620   -1.3400 N.pl3 100  ARG100     -0.0865
    113  CZ         5.3340   15.9670   -2.6440 C.cat 100  ARG100      0.5346
    114  NH1        4.5910   15.2980   -3.5190 N.pl3 100  ARG100      0.1354
    115  NH2        6.2220   16.8490   -3.0840 N.pl3 100  ARG100      0.1354
    116  N          4.7630    9.8820    4.7740 N.3   107  ILE107     -0.1245
    117  CA         5.6410    9.6440    3.6170 C.3   107  ILE107      0.1561
    118  C          5.9960    8.1490    3.5030 C.2   107  ILE107      0.2260
    119  O          6.3730    7.5540    4.5130 O.2   107  ILE107     -0.2867
    120  CB         6.9420   10.5120    3.6440 C.3   107  ILE107      0.0252
    121  CG1        6.6570   12.0260    3.8790 C.3   107  ILE107      0.0019
    122  CG2        7.8070   10.2940    2.3740 C.3   107  ILE107      0.0019
    123  CD1        7.8300   12.7900    4.3260 C.3   107  ILE107      0.0001
    124  N         12.1280   14.9040   10.3290 N.3   328  TYR328     -0.1241
    125  CA        12.1460   14.5590    8.9080 C.3   328  TYR328      0.1605
    126  C         10.8380   14.9660    8.2360 C.2   328  TYR328      0.2264
    127  O         10.8570   15.9610    7.5170 O.2   328  TYR328     -0.2867
    128  CB        12.5450   13.1000    8.6040 C.3   328  TYR328      0.0534
    129  CG        13.0710   12.9230    7.1940 C.ar  328  TYR328     -0.0201
    130  CD1       12.3210   13.3340    6.0900 C.ar  328  TYR328     -0.0009
    131  CD2       14.3220   12.3590    6.9600 C.ar  328  TYR328     -0.0009
    132  CE1       12.7920   13.1640    4.7890 C.ar  328  TYR328      0.0417
    133  CE2       14.8040   12.1810    5.6570 C.ar  328  TYR328      0.0417
    134  CZ        14.0320   12.5810    4.5700 C.ar  328  TYR328      0.1957
    135  OH        14.4920   12.4210    3.2720 O.3   328  TYR328     -0.2866
    136  N          9.7520   18.7070    8.3730 N.3   331  LEU331     -0.1231
    137  CA        10.4370   19.5930    7.4240 C.3   331  LEU331      0.1693
    138  C          9.8010   19.5130    6.0480 C.2   331  LEU331      0.2591
    139  O          9.7990   20.4980    5.3190 O.2   331  LEU331     -0.2718
    140  CB        11.9280   19.2400    7.3190 C.3   331  LEU331      0.0284
    141  CG        12.8740   19.8660    8.3400 C.3   331  LEU331      0.0019
    142  CD1       14.1430   19.0480    8.4430 C.3   331  LEU331      0.0001
    143  CD2       13.2000   21.3220    7.9830 C.3   331  LEU331      0.0001
    144  N          9.2510   18.3460    5.7100 N.am  332  VAL332     -0.1980
    145  CA         8.5710   18.0750    4.4530 C.3   332  VAL332      0.1595
    146  C          7.1660   18.7180    4.4160 C.2   332  VAL332      0.2287
    147  O          6.8420   19.3820    3.4260 O.2   332  VAL332     -0.2864
    148  CB         8.5140   16.5470    4.2100 C.3   332  VAL332      0.0276
    149  CG1        7.8050   16.2140    2.8970 C.3   332  VAL332      0.0022
    150  CG2        9.9160   15.9340    4.2550 C.3   332  VAL332      0.0022
    151  N         10.3030   24.9630    6.3220 N.3   336  MET336     -0.1245
    152  CA        11.4730   25.5940    6.9350 C.3   336  MET336      0.1570
    153  C         11.2530   26.0670    8.3650 C.2   336  MET336      0.2261
    154  O         12.2280   26.1570    9.1120 O.2   336  MET336     -0.2867
    155  CB        11.9610   26.7750    6.0760 C.3   336  MET336      0.0387
    156  CG        12.1090   26.4690    4.5960 C.3   336  MET336      0.0595
    157  SD        13.5450   25.4690    4.1670 S.3   336  MET336     -0.1393
    158  CE        13.0730   24.9770    2.5000 C.3   336  MET336      0.0692
@<TRIPOS>BOND
     1    27    28    1
     2    23    24    1
     3    12    11    2
     4    14    13    1
     5    32    31    1
     6    28    31    1
     7    28    29    1
     8    10     9    1
     9    10    11    1
    10    10    13    1
    11    25    24    1
    12    25    26    2
    13   100    99    2
    14    11    15   am
    15   114   113    1
    16    97    98    1
    17    29    30    2
    18    29    33   am
    19   115   113    1
    20    18    17    2
    21    17    16    1
    22    43    44    1
    23    33    34    1
    24    99    98    1
    25   113   112    2
    26    15    16    1
    27    98   101    1
    28    35    34    1
    29    35    36    2
    30   101   102    1
    31   101   103    1
    32    16    19    1
    33   104   102    1
    34    53    52   ar
    35    53    51   ar
    36    34    37    1
    37    56    57    2
    38    56    55    1
    39    52    50   ar
    40    37    38    1
    41    44    45    1
    42    44    47    1
    43    51    49   ar
    44   112   111    1
    45    50    48   ar
    46    58    55    1
    47    58    59    1
    48    54    45   am
    49    54    55    1
    50    49    48   ar
    51    48    47    1
    52    45    46    2
    53    60    59    1
    54    38    40   ar
    55    38    39   ar
    56   111   110    1
    57    40    42   ar
    58   105   106    1
    59     4     3    2
    60    19    20    1
    61   108   107    2
    62     1     2    1
    63    59    61    1
    64     3     2    1
    65   110   109    1
    66     2     5    1
    67    39    41   ar
    68    42    41   ar
    69   107   106    1
    70   106   109    1
    71    20    22    1
    72    20    21    1
    73     5     6    1
    74     6     7    1
    75     6     8    1
    76    69    67    1
    77    62    63    1
    78    67    68    1
    79    67    66    1
    80   122   120    1
    81   158   157    1
    82    73    72    2
    83    63    66    1
    84    63    64    1
    85   149   148    1
    86   135   134    1
    87   147   146    2
    88   118   117    1
    89   118   119    2
    90   117   120    1
    91   117   116    1
    92   120   121    1
    93    72    71    1
    94   121   123    1
    95    64    65    2
    96   157   156    1
    97   148   150    1
    98   148   145    1
    99    71    70    1
   100    71    74    1
   101   146   145    1
   102   145   144    1
   103   134   132   ar
   104   134   133   ar
   105   156   155    1
   106    78    76   ar
   107    78    80   ar
   108   132   130   ar
   109    76    75   ar
   110    88    86    1
   111    80    79   ar
   112   139   138    2
   113    86    85    1
   114    75    74    1
   115    75    77   ar
   116    79    77   ar
   117   133   131   ar
   118   144   138   am
   119   138   137    1
   120   155   152    1
   121   130   129   ar
   122   151   152    1
   123    81    82    1
   124    85    82    1
   125    85    87    1
   126   152   153    1
   127   131   129   ar
   128    95    94    1
   129   129   128    1
   130    96    94    1
   131   140   137    1
   132   140   141    1
   133    82    83    1
   134   137   136    1
   135   127   126    2
   136    94    93    1
   137   143   141    1
   138   126   125    1
   139   141   142    1
   140   153   154    2
   141   128   125    1
   142    83    84    2
   143   125   124    1
   144    93    90    1
   145    90    89    1
   146    90    91    1
   147    91    92    2
