@<TRIPOS>MOLECULE
tmp/4cqaA02.pdb
 177 169 0 0 0
SMALL
GASTEIGER

@<TRIPOS>ATOM
      1  N          1.8410   37.0510   -0.5470 N.3     4  TYR4       -0.1241
      2  CA         1.3440   35.7500   -0.1210 C.3     4  TYR4        0.1605
      3  C          0.1260   35.8650    0.7990 C.2     4  TYR4        0.2264
      4  O         -0.7630   35.0170    0.7310 O.2     4  TYR4       -0.2867
      5  CB         2.4700   34.9410    0.5360 C.3     4  TYR4        0.0534
      6  CG         3.7200   34.8380   -0.3160 C.ar    4  TYR4       -0.0201
      7  CD1        3.7220   34.1110   -1.5020 C.ar    4  TYR4       -0.0009
      8  CD2        4.9010   35.4710    0.0630 C.ar    4  TYR4       -0.0009
      9  CE1        4.8630   34.0270   -2.3000 C.ar    4  TYR4        0.0417
     10  CE2        6.0560   35.3780   -0.7170 C.ar    4  TYR4        0.0417
     11  CZ         6.0310   34.6560   -1.8990 C.ar    4  TYR4        0.1957
     12  OH         7.1590   34.5710   -2.6760 O.3     4  TYR4       -0.2866
     13  N         -2.7880   36.7390   -1.3810 N.3     7  PHE7       -0.1227
     14  CA        -3.0890   35.4690   -2.0270 C.3     7  PHE7        0.1736
     15  C         -3.8670   34.5430   -1.1190 C.2     7  PHE7        0.2595
     16  O         -4.9250   34.0750   -1.5250 O.2     7  PHE7       -0.2718
     17  CB        -1.8190   34.7990   -2.5760 C.3     7  PHE7        0.0547
     18  CG        -1.9040   34.6380   -4.0720 C.ar    7  PHE7       -0.0202
     19  CD1       -2.6970   33.6370   -4.6380 C.ar    7  PHE7       -0.0042
     20  CD2       -1.2540   35.5280   -4.9220 C.ar    7  PHE7       -0.0042
     21  CE1       -2.8120   33.5080   -6.0270 C.ar    7  PHE7       -0.0003
     22  CE2       -1.3710   35.4010   -6.3160 C.ar    7  PHE7       -0.0003
     23  CZ        -2.1470   34.3900   -6.8580 C.ar    7  PHE7       -0.0000
     24  N         -3.3930   34.3680    0.1350 N.am    8  LEU8       -0.1980
     25  CA        -3.9810   33.5280    1.1770 C.3     8  LEU8        0.1596
     26  C         -5.4060   33.9150    1.5620 C.2     8  LEU8        0.2287
     27  O         -6.2710   33.0420    1.5960 O.2     8  LEU8       -0.2864
     28  CB        -3.0700   33.5000    2.4210 C.3     8  LEU8        0.0297
     29  CG        -3.6320   32.8720    3.6920 C.3     8  LEU8        0.0022
     30  CD1       -3.5490   31.3580    3.6400 C.3     8  LEU8        0.0001
     31  CD2       -2.9390   33.4260    4.9130 C.3     8  LEU8        0.0001
     32  N         -7.5750   33.1710   -1.2750 N.3    11  CYS11      -0.1221
     33  CA        -7.6850   31.7190   -1.3650 C.3    11  CYS11       0.1808
     34  C         -8.7090   31.2120   -0.3940 C.2    11  CYS11       0.2601
     35  O         -9.5840   30.4340   -0.7810 O.2    11  CYS11      -0.2717
     36  CB        -6.3370   31.0470   -1.1330 C.3    11  CYS11       0.0970
     37  SG        -5.2380   31.0850   -2.5650 S.3    11  CYS11      -0.0800
     38  N         -8.6220   31.6730    0.8600 N.am   12  LEU12      -0.1979
     39  CA        -9.5550   31.2730    1.9080 C.3    12  LEU12       0.1596
     40  C        -10.9630   31.8070    1.6550 C.2    12  LEU12       0.2287
     41  O        -11.9270   31.2670    2.2010 O.2    12  LEU12      -0.2864
     42  CB        -9.0370   31.6590    3.3010 C.3    12  LEU12       0.0297
     43  CG        -7.7580   30.9740    3.7510 C.3    12  LEU12       0.0022
     44  CD1       -7.1100   31.7420    4.8560 C.3    12  LEU12       0.0001
     45  CD2       -8.0110   29.5540    4.1940 C.3    12  LEU12       0.0001
     46  N        -10.6700   23.9280   -1.1490 N.3    17  GLY17      -0.1225
     47  CA        -9.6080   23.3500   -0.3330 C.3    17  GLY17       0.1811
     48  C         -8.5200   22.6330   -1.1090 C.2    17  GLY17       0.2280
     49  O         -7.3500   23.0160   -1.0220 O.2    17  GLY17      -0.2866
     50  N         -6.3450   24.7330   -3.5430 N.3    20  CYS20      -0.1221
     51  CA        -5.3070   25.4430   -2.7910 C.3    20  CYS20       0.1808
     52  C         -4.1450   24.4910   -2.5230 C.2    20  CYS20       0.2601
     53  O         -2.9940   24.8850   -2.6630 O.2    20  CYS20      -0.2717
     54  CB        -5.8690   26.0100   -1.4890 C.3    20  CYS20       0.0970
     55  SG        -7.0400   27.3780   -1.7020 S.3    20  CYS20      -0.0800
     56  N         -4.4650   23.2380   -2.1570 N.am   21  HIS21      -0.1975
     57  CA        -3.5300   22.1510   -1.8780 C.3    21  HIS21       0.1656
     58  C         -2.7050   21.8160   -3.1270 C.2    21  HIS21       0.2291
     59  O         -1.4840   21.7270   -3.0460 O.2    21  HIS21      -0.2864
     60  CB        -4.3180   20.9420   -1.3200 C.3    21  HIS21       0.0771
     61  CG        -3.6290   19.6110   -1.3910 C.ar   21  HIS21       0.0820
     62  ND1       -4.0710   18.6160   -2.2430 N.ar   21  HIS21      -0.2267
     63  CD2       -2.5880   19.1330   -0.6730 C.ar   21  HIS21       0.1154
     64  CE1       -3.2700   17.5830   -2.0410 C.ar   21  HIS21       0.1986
     65  NE2       -2.3570   17.8510   -1.1090 N.ar   21  HIS21      -0.2212
     66  N         -2.4160   23.8740   -5.6790 N.3    23  LEU23      -0.1231
     67  CA        -1.8410   25.1690   -6.0580 C.3    23  LEU23       0.1693
     68  C         -0.5420   25.4040   -5.2800 C.2    23  LEU23       0.2592
     69  O          0.4200   25.9110   -5.8540 O.2    23  LEU23      -0.2718
     70  CB        -2.8570   26.3080   -5.8230 C.3    23  LEU23       0.0284
     71  CG        -2.3500   27.7460   -5.7570 C.3    23  LEU23       0.0019
     72  CD1       -1.7580   28.1820   -7.0760 C.3    23  LEU23       0.0001
     73  CD2       -3.4620   28.6750   -5.3660 C.3    23  LEU23       0.0001
     74  N         -0.5220   25.0400   -3.9720 N.am   24  PHE24      -0.1962
     75  CA         0.6400   25.1790   -3.0920 C.3    24  PHE24       0.1771
     76  C          1.7430   24.2110   -3.5170 C.2    24  PHE24       0.2619
     77  O          2.9260   24.5440   -3.4720 O.2    24  PHE24      -0.2715
     78  CB         0.2400   24.9300   -1.6280 C.3    24  PHE24       0.0574
     79  CG         1.3410   25.2490   -0.6420 C.ar   24  PHE24      -0.0200
     80  CD1        2.2730   24.2840   -0.2760 C.ar   24  PHE24      -0.0042
     81  CD2        1.4380   26.5090   -0.0690 C.ar   24  PHE24      -0.0042
     82  CE1        3.2940   24.5820    0.6270 C.ar   24  PHE24      -0.0003
     83  CE2        2.4460   26.7990    0.8490 C.ar   24  PHE24      -0.0003
     84  CZ         3.3650   25.8320    1.1980 C.ar   24  PHE24      -0.0000
     85  N          1.3450   23.0050   -3.9130 N.am   25  LEU25      -0.1977
     86  CA         2.2810   21.9940   -4.3620 C.3    25  LEU25       0.1596
     87  C          2.7850   22.3270   -5.7660 C.2    25  LEU25       0.2287
     88  O          3.8640   21.8820   -6.1440 O.2    25  LEU25      -0.2864
     89  CB         1.6660   20.5800   -4.2680 C.3    25  LEU25       0.0297
     90  CG         1.3680   20.0540   -2.8450 C.3    25  LEU25       0.0022
     91  CD1        0.6970   18.7100   -2.8970 C.3    25  LEU25       0.0001
     92  CD2        2.6360   19.9910   -1.9590 C.3    25  LEU25       0.0001
     93  N          3.3830   25.6610   -6.7630 N.3    27  LEU27      -0.1245
     94  CA         4.3670   26.7120   -6.5050 C.3    27  LEU27       0.1561
     95  C          5.7170   26.1460   -6.0360 C.2    27  LEU27       0.2260
     96  O          6.7650   26.5950   -6.4990 O.2    27  LEU27      -0.2867
     97  CB         3.8230   27.7590   -5.5120 C.3    27  LEU27       0.0270
     98  CG         2.4490   28.3700   -5.8340 C.3    27  LEU27       0.0019
     99  CD1        1.9650   29.2480   -4.7100 C.3    27  LEU27       0.0001
    100  CD2        2.4640   29.1400   -7.1370 C.3    27  LEU27       0.0001
    101  N          0.3740   16.6330    3.9870 N.3    63  PHE63      -0.1241
    102  CA         0.6240   17.9180    3.3430 C.3    63  PHE63       0.1605
    103  C          1.2710   17.6220    1.9930 C.2    63  PHE63       0.2264
    104  O          0.6660   17.8740    0.9420 O.2    63  PHE63      -0.2867
    105  CB         1.5310   18.7670    4.2360 C.3    63  PHE63       0.0534
    106  CG         1.4530   20.2420    3.9560 C.ar   63  PHE63      -0.0203
    107  CD1        0.4720   21.0290    4.5490 C.ar   63  PHE63      -0.0042
    108  CD2        2.3750   20.8540    3.1250 C.ar   63  PHE63      -0.0042
    109  CE1        0.4000   22.3960    4.2850 C.ar   63  PHE63      -0.0003
    110  CE2        2.3130   22.2230    2.8770 C.ar   63  PHE63      -0.0003
    111  CZ         1.3270   22.9850    3.4550 C.ar   63  PHE63      -0.0000
    112  N        -12.1270   18.1500    1.1600 N.3    99  ILE99      -0.1245
    113  CA       -11.3960   19.0330    2.0700 C.3    99  ILE99       0.1561
    114  C        -12.2490   20.3040    2.1540 C.2    99  ILE99       0.2260
    115  O        -12.6460   20.8630    1.1180 O.2    99  ILE99      -0.2867
    116  CB        -9.9050   19.3260    1.6890 C.3    99  ILE99       0.0252
    117  CG1       -9.1250   18.0470    1.2670 C.3    99  ILE99       0.0019
    118  CG2       -9.1910   20.0330    2.8590 C.3    99  ILE99       0.0019
    119  CD1       -7.6780   18.2630    0.6420 C.3    99  ILE99       0.0001
    120  N        -13.0350   23.9450    4.9090 N.3   101  ARG101     -0.1245
    121  CA       -12.5170   24.7290    6.0270 C.3   101  ARG101      0.1563
    122  C        -13.5280   25.7000    6.5990 C.2   101  ARG101      0.2260
    123  O        -14.3260   26.2760    5.8520 O.2   101  ARG101     -0.2867
    124  CB       -11.2040   25.4730    5.6670 C.3   101  ARG101      0.0307
    125  CG       -10.6450   25.2260    4.2640 C.3   101  ARG101      0.0489
    126  CD        -9.8110   26.3850    3.7710 C.3   101  ARG101      0.2205
    127  NE       -10.6180   27.3300    2.9970 N.pl3 101  ARG101     -0.0865
    128  CZ       -10.4860   27.5420    1.6910 C.cat 101  ARG101      0.5346
    129  NH1       -9.5620   26.8920    0.9960 N.pl3 101  ARG101      0.1354
    130  NH2      -11.2700   28.4110    1.0710 N.pl3 101  ARG101      0.1354
    131  N        -10.6220   22.2990    9.8680 N.3   108  ILE108     -0.1245
    132  CA       -10.6780   21.5700    8.5890 C.3   108  ILE108      0.1561
    133  C        -11.3390   20.1940    8.8130 C.2   108  ILE108      0.2260
    134  O        -11.1080   19.5660    9.8500 O.2   108  ILE108     -0.2867
    135  CB        -9.2410   21.3670    7.9520 C.3   108  ILE108      0.0252
    136  CG1       -8.3900   22.6540    7.9460 C.3   108  ILE108      0.0019
    137  CG2       -9.3260   20.7530    6.5350 C.3   108  ILE108      0.0019
    138  CD1       -7.0320   22.4730    7.4490 C.3   108  ILE108      0.0001
    139  N         -0.0940   21.5770   10.5340 N.3   332  TYR332     -0.1241
    140  CA        -0.8620   21.3290    9.3250 C.3   332  TYR332      0.1605
    141  C         -1.8410   22.4650    9.0690 C.2   332  TYR332      0.2264
    142  O         -1.6320   23.2130    8.1210 O.2   332  TYR332     -0.2867
    143  CB        -1.5210   19.9380    9.2770 C.3   332  TYR332      0.0534
    144  CG        -1.9300   19.5410    7.8720 C.ar  332  TYR332     -0.0201
    145  CD1       -2.8420   20.3000    7.1470 C.ar  332  TYR332     -0.0009
    146  CD2       -1.3960   18.4130    7.2620 C.ar  332  TYR332     -0.0009
    147  CE1       -3.1820   19.9740    5.8380 C.ar  332  TYR332      0.0417
    148  CE2       -1.7850   18.0380    5.9790 C.ar  332  TYR332      0.0417
    149  CZ        -2.6610   18.8360    5.2600 C.ar  332  TYR332      0.1957
    150  OH        -3.0140   18.5310    3.9680 O.3   332  TYR332     -0.2866
    151  N         -0.4710   26.0220    8.5160 N.3   335  LEU335     -0.1231
    152  CA        -0.0210   26.2950    7.1510 C.3   335  LEU335      0.1693
    153  C         -1.2020   26.6560    6.2400 C.2   335  LEU335      0.2591
    154  O         -1.0260   27.4400    5.3160 O.2   335  LEU335     -0.2718
    155  CB         0.7970   25.1170    6.5980 C.3   335  LEU335      0.0284
    156  CG         2.2680   25.0740    7.0490 C.3   335  LEU335      0.0019
    157  CD1        2.6380   23.7140    7.6080 C.3   335  LEU335      0.0001
    158  CD2        3.1980   25.4430    5.9170 C.3   335  LEU335      0.0001
    159  N         -2.4220   26.1640    6.5700 N.am  336  VAL336     -0.1980
    160  CA        -3.6740   26.4230    5.8300 C.3   336  VAL336      0.1595
    161  C         -4.2740   27.7900    6.2240 C.2   336  VAL336      0.2287
    162  O         -4.8190   28.4810    5.3570 O.2   336  VAL336     -0.2864
    163  CB        -4.7200   25.2690    6.0090 C.3   336  VAL336      0.0276
    164  CG1       -6.0660   25.6120    5.3800 C.3   336  VAL336      0.0022
    165  CG2       -4.2040   23.9490    5.4590 C.3   336  VAL336      0.0022
    166  N         -0.5780   30.3770    6.3260 N.3   339  GLY339     -0.1210
    167  CA         0.1360   30.3190    5.0580 C.3   339  GLY339      0.1956
    168  C          1.6340   30.1710    5.1480 C.2   339  GLY339      0.2611
    169  O          2.1420   29.3420    5.9060 O.2   339  GLY339     -0.2717
    170  N          2.3420   30.9690    4.3400 N.am  340  MET340     -0.1979
    171  CA         3.8040   30.9690    4.1990 C.3   340  MET340      0.1605
    172  C          4.5350   31.4680    5.4360 C.2   340  MET340      0.2287
    173  O          5.6350   30.9790    5.7040 O.2   340  MET340     -0.2864
    174  CB         4.2510   31.7980    2.9800 C.3   340  MET340      0.0413
    175  CG         3.2970   31.7470    1.8010 C.3   340  MET340      0.0598
    176  SD         3.4690   30.2620    0.8070 S.3   340  MET340     -0.1393
    177  CE         2.3940   30.6730   -0.5490 C.3   340  MET340      0.0692
@<TRIPOS>BOND
     1   100    98    1
     2    72    71    1
     3    23    22   ar
     4    23    21   ar
     5    93    94    1
     6    94    95    1
     7    94    97    1
     8    96    95    2
     9    22    20   ar
    10    88    87    2
    11    67    70    1
    12    67    66    1
    13    67    68    1
    14    21    19   ar
    15    69    68    2
    16    98    97    1
    17    98    99    1
    18    70    71    1
    19    87    86    1
    20    71    73    1
    21    68    74   am
    22    20    18   ar
    23    19    18   ar
    24    86    89    1
    25    86    85    1
    26    89    90    1
    27    18    17    1
    28    74    75    1
    29    85    76   am
    30    50    51    1
    31    76    77    2
    32    76    75    1
    33    58    59    2
    34    58    57    1
    35    75    78    1
    36    91    90    1
    37    90    92    1
    38    51    52    1
    39    51    54    1
    40    12    11    1
    41    53    52    2
    42    17    14    1
    43    37    36    1
    44    52    56   am
    45     9    11   ar
    46     9     7   ar
    47    62    64   ar
    48    62    61   ar
    49    56    57    1
    50    64    65   ar
    51    14    13    1
    52    14    15    1
    53    11    10   ar
    54    57    60    1
    55    55    54    1
    56    78    79    1
    57    16    15    2
    58     7     6   ar
    59    61    60    1
    60    61    63   ar
    61    33    32    1
    62    33    36    1
    63    33    34    1
    64    46    47    1
    65    15    24   am
    66    48    49    2
    67    48    47    1
    68    65    63   ar
    69    35    34    2
    70    10     8   ar
    71    79    80   ar
    72    79    81   ar
    73   177   176    1
    74     1     2    1
    75    34    38   am
    76     6     8   ar
    77     6     5    1
    78    80    82   ar
    79     2     5    1
    80     2     3    1
    81    81    83   ar
    82    24    25    1
    83    82    84   ar
    84   119   117    1
    85     4     3    2
    86   176   175    1
    87    83    84   ar
    88    38    39    1
    89   104   103    2
    90   129   128    1
    91   130   128    1
    92   115   114    2
    93   112   113    1
    94    25    26    1
    95    25    28    1
    96   117   116    1
    97    26    27    2
    98    40    39    1
    99    40    41    2
   100   116   113    1
   101   116   118    1
   102   128   127    2
   103   175   174    1
   104    39    42    1
   105   103   102    1
   106   113   114    1
   107    28    29    1
   108   110   108   ar
   109   110   111   ar
   110   174   171    1
   111   127   126    1
   112   108   106   ar
   113    42    43    1
   114   102   101    1
   115   102   105    1
   116   111   109   ar
   117    30    29    1
   118    29    31    1
   119    43    45    1
   120    43    44    1
   121   126   125    1
   122   106   105    1
   123   106   107   ar
   124   150   149    1
   125   171   170    1
   126   171   172    1
   127   125   124    1
   128   109   107   ar
   129   170   168   am
   130   120   121    1
   131   167   168    1
   132   167   166    1
   133   168   169    2
   134   149   147   ar
   135   149   148   ar
   136   154   153    2
   137   162   161    2
   138   164   163    1
   139   172   173    2
   140   165   163    1
   141   124   121    1
   142   160   163    1
   143   160   161    1
   144   160   159    1
   145   147   145   ar
   146   123   122    2
   147   158   156    1
   148   148   146   ar
   149   121   122    1
   150   153   159   am
   151   153   152    1
   152   137   135    1
   153   155   156    1
   154   155   152    1
   155   156   157    1
   156   145   144   ar
   157   152   151    1
   158   146   144   ar
   159   138   136    1
   160   144   143    1
   161   136   135    1
   162   135   132    1
   163   142   141    2
   164   132   133    1
   165   132   131    1
   166   133   134    2
   167   141   140    1
   168   143   140    1
   169   140   139    1
