@<TRIPOS>MOLECULE
tmp/4cqbA00.pdb
 129 125 0 0 0
SMALL
GASTEIGER

@<TRIPOS>ATOM
      1  N         12.1490   -3.3080  139.1270 N.3    61  HIS61      -0.1241
      2  CA        13.2280   -2.3350  139.1750 C.3    61  HIS61       0.1621
      3  C         13.8680   -2.2130  137.7550 C.2    61  HIS61       0.2264
      4  O         14.9680   -2.6380  137.5190 O.2    61  HIS61      -0.2867
      5  CB        14.3300   -2.7190  140.1820 C.3    61  HIS61       0.0745
      6  CG        13.8550   -2.6450  141.6190 C.ar   61  HIS61       0.0817
      7  ND1       13.8130   -1.4730  142.3340 N.ar   61  HIS61      -0.2268
      8  CD2       13.1820   -3.5400  142.3620 C.ar   61  HIS61       0.1154
      9  CE1       13.3340   -1.7040  143.5410 C.ar   61  HIS61       0.1986
     10  NE2       12.8530   -2.9310  143.5430 N.ar   61  HIS61      -0.2212
     11  N         17.7100   -0.6290  136.9380 N.3    64  LYS64      -0.1245
     12  CA        18.9510   -1.2920  137.2050 C.3    64  LYS64       0.1561
     13  C         18.9440   -2.7590  136.7630 C.2    64  LYS64       0.2260
     14  O         19.8670   -3.4960  137.0490 O.2    64  LYS64      -0.2867
     15  CB        19.3730   -1.0610  138.6710 C.3    64  LYS64       0.0271
     16  CG        18.3340   -1.4950  139.6460 C.3    64  LYS64       0.0035
     17  CD        18.4890   -0.8490  141.0010 C.3    64  LYS64       0.0206
     18  CE        17.5880   -1.5580  142.0300 C.3    64  LYS64       0.1093
     19  NZ        17.4890   -0.7940  143.3110 N.3    64  LYS64      -0.1314
     20  N         23.7580  -12.0800  149.4130 N.3    81  TYR81      -0.1241
     21  CA        22.9840  -10.8770  149.4780 C.3    81  TYR81       0.1605
     22  C         22.8170  -10.3510  150.9220 C.2    81  TYR81       0.2264
     23  O         22.5620  -11.1100  151.8160 O.2    81  TYR81      -0.2867
     24  CB        21.6340  -11.0760  148.8370 C.3    81  TYR81       0.0534
     25  CG        20.6230  -10.0290  149.2120 C.ar   81  TYR81      -0.0201
     26  CD1       20.6000   -8.7950  148.5620 C.ar   81  TYR81      -0.0009
     27  CD2       19.7270  -10.2540  150.2790 C.ar   81  TYR81      -0.0009
     28  CE1       19.6890   -7.8320  148.9440 C.ar   81  TYR81       0.0417
     29  CE2       18.8240   -9.2990  150.6730 C.ar   81  TYR81       0.0417
     30  CZ        18.8090   -8.0920  150.0000 C.ar   81  TYR81       0.1957
     31  OH        17.9040   -7.1430  150.4020 O.3    81  TYR81      -0.2866
     32  N         20.7990   -6.4530  152.1660 N.3    83  ARG83      -0.1245
     33  CA        20.2220   -5.1820  151.7240 C.3    83  ARG83       0.1563
     34  C         21.2590   -4.0770  151.6980 C.2    83  ARG83       0.2260
     35  O         21.4200   -3.4050  150.6470 O.2    83  ARG83      -0.2867
     36  CB        19.0290   -4.7710  152.5580 C.3    83  ARG83       0.0307
     37  CG        18.4500   -3.4020  152.1600 C.3    83  ARG83       0.0489
     38  CD        17.6860   -2.7920  153.3230 C.3    83  ARG83       0.2205
     39  NE        18.6140   -2.3920  154.3710 N.pl3  83  ARG83      -0.0865
     40  CZ        18.2470   -2.1440  155.6330 C.cat  83  ARG83       0.5346
     41  NH1       16.9670   -2.2950  155.9740 N.pl3  83  ARG83       0.1354
     42  NH2       19.1690   -1.8160  156.5300 N.pl3  83  ARG83       0.1354
     43  N         11.7140    6.2300  144.2200 N.3   157  PHE157     -0.1241
     44  CA        12.0670    5.3140  145.2530 C.3   157  PHE157      0.1605
     45  C         13.3020    5.7760  146.0200 C.2   157  PHE157      0.2264
     46  O         14.4220    5.7840  145.5280 O.2   157  PHE157     -0.2867
     47  CB        12.2070    3.8780  144.6590 C.3   157  PHE157      0.0534
     48  CG        12.6560    2.8420  145.6320 C.ar  157  PHE157     -0.0203
     49  CD1       12.1480    2.7940  146.9480 C.ar  157  PHE157     -0.0042
     50  CD2       13.5760    1.9260  145.2530 C.ar  157  PHE157     -0.0042
     51  CE1       12.6350    1.8090  147.8820 C.ar  157  PHE157     -0.0003
     52  CE2       14.0770    0.9600  146.1810 C.ar  157  PHE157     -0.0003
     53  CZ        13.5960    0.8820  147.4910 C.ar  157  PHE157     -0.0000
     54  N         15.7520    4.8710  147.7760 N.3   159  GLN159     -0.1245
     55  CA        16.4450    3.5730  148.0680 C.3   159  GLN159      0.1566
     56  C         17.3780    3.6460  149.2280 C.2   159  GLN159      0.2260
     57  O         17.5230    2.6350  149.9270 O.2   159  GLN159     -0.2867
     58  CB        17.2230    3.1280  146.8260 C.3   159  GLN159      0.0367
     59  CG        18.1790    1.9350  146.9570 C.3   159  GLN159      0.0905
     60  CD        17.4130    0.6360  147.1210 C.2   159  GLN159      0.2608
     61  OE1       17.2070   -0.0630  146.1390 O.2   159  GLN159     -0.2717
     62  NE2       17.0120    0.2790  148.3700 N.am  159  GLN159     -0.0878
     63  N         12.0070    2.8790  152.1030 N.3   186  VAL186     -0.1245
     64  CA        12.5070    1.5710  152.5500 C.3   186  VAL186      0.1561
     65  C         12.7050    1.5140  154.0650 C.2   186  VAL186      0.2260
     66  O         13.2650    2.4340  154.6740 O.2   186  VAL186     -0.2867
     67  CB        13.8060    1.1520  151.8390 C.3   186  VAL186      0.0252
     68  CG1       14.9670    2.1140  152.1070 C.3   186  VAL186      0.0019
     69  CG2       14.2140   -0.2780  152.2160 C.3   186  VAL186      0.0019
     70  N          8.5840   -0.1140  150.3610 N.3   216  HIS216     -0.1241
     71  CA         9.3490   -1.3370  150.5140 C.3   216  HIS216      0.1621
     72  C          9.5290   -1.6100  152.0630 C.2   216  HIS216      0.2264
     73  O         10.3280   -0.9410  152.7050 O.2   216  HIS216     -0.2867
     74  CB        10.7640   -1.1660  149.9740 C.3   216  HIS216      0.0745
     75  CG        10.9590   -1.4730  148.5380 C.ar  216  HIS216      0.0817
     76  ND1       10.4180   -0.7020  147.5320 N.ar  216  HIS216     -0.2268
     77  CD2       11.6410   -2.4640  147.9230 C.ar  216  HIS216      0.1154
     78  CE1       10.7640   -1.1940  146.3660 C.ar  216  HIS216      0.1986
     79  NE2       11.5230   -2.2310  146.5780 N.ar  216  HIS216     -0.2212
     80  N         10.8430   -4.7140  154.1140 N.3   218  HIS218     -0.1241
     81  CA        11.4820   -6.0350  154.1710 C.3   218  HIS218      0.1621
     82  C         11.5150   -6.5230  155.6110 C.2   218  HIS218      0.2264
     83  O         11.5750   -7.7240  155.8580 O.2   218  HIS218     -0.2867
     84  CB        12.9530   -6.0280  153.7940 C.3   218  HIS218      0.0745
     85  CG        13.2830   -5.3610  152.5060 C.ar  218  HIS218      0.0817
     86  ND1       13.9980   -4.1890  152.4700 N.ar  218  HIS218     -0.2268
     87  CD2       13.1320   -5.7420  151.2250 C.ar  218  HIS218      0.1154
     88  CE1       14.2500   -3.8590  151.2250 C.ar  218  HIS218      0.1986
     89  NE2       13.6530   -4.7310  150.4490 N.ar  218  HIS218     -0.2212
     90  N          6.3150   -6.5170  149.7980 N.3   248  HIS248     -0.1241
     91  CA         7.0660   -7.5860  150.5420 C.3   248  HIS248      0.1621
     92  C          6.3230   -8.0660  151.7680 C.2   248  HIS248      0.2264
     93  O          5.6770   -9.1370  151.7290 O.2   248  HIS248     -0.2867
     94  CB         8.5310   -7.2640  150.8680 C.3   248  HIS248      0.0745
     95  CG         9.3710   -6.9720  149.6690 C.ar  248  HIS248      0.0817
     96  ND1        9.5240   -7.8720  148.6390 N.ar  248  HIS248     -0.2268
     97  CD2       10.1300   -5.9100  149.3500 C.ar  248  HIS248      0.1154
     98  CE1       10.3240   -7.3890  147.7250 C.ar  248  HIS248      0.1986
     99  NE2       10.6790   -6.1630  148.0990 N.ar  248  HIS248     -0.2212
    100  N         10.0630   -8.4440  141.1550 N.3   302  ASP302     -0.1225
    101  CA        11.1300   -7.6880  141.7900 C.3   302  ASP302      0.1805
    102  C         12.2190   -7.5760  140.7790 C.2   302  ASP302      0.2597
    103  O         11.9900   -7.6010  139.5780 O.2   302  ASP302     -0.2718
    104  CB        11.5940   -8.2450  143.1920 C.3   302  ASP302      0.1424
    105  CG        12.0370   -7.1810  144.1440 C.2   302  ASP302      0.3668
    106  OD1       11.8470   -5.9530  143.8770 O.co2 302  ASP302     -0.2456
    107  OD2       12.5930   -7.4930  145.2300 O.co2 302  ASP302     -0.2456
    108  N         13.4200   -7.3400  141.2480 N.am  303  ASN303     -0.1974
    109  CA        14.5710   -7.1980  140.3960 C.3   303  ASN303      0.1688
    110  C         14.8270   -8.3630  139.4140 C.2   303  ASN303      0.2292
    111  O         14.4880   -9.5070  139.6840 O.2   303  ASN303     -0.2864
    112  CB        15.8140   -7.0640  141.2840 C.3   303  ASN303      0.1181
    113  CG        15.6840   -5.9920  142.3130 C.2   303  ASN303      0.2629
    114  OD1       14.9970   -6.1480  143.3300 O.2   303  ASN303     -0.2716
    115  ND2       16.4490   -4.9360  142.1350 N.am  303  ASN303     -0.0877
    116  N         20.8540   -7.2080  143.2380 N.3   308  TRP308     -0.1241
    117  CA        19.8430   -7.5840  144.2370 C.3   308  TRP308      0.1605
    118  C         19.2890   -9.0450  144.0590 C.2   308  TRP308      0.2264
    119  O         19.1120   -9.7310  145.0320 O.2   308  TRP308     -0.2867
    120  CB        18.6820   -6.6290  144.2160 C.3   308  TRP308      0.0550
    121  CG        19.0050   -5.2030  144.6550 C.ar  308  TRP308      0.0003
    122  CD1       19.5690   -4.1830  143.9090 C.ar  308  TRP308      0.0946
    123  CD2       18.7320   -4.6470  145.9180 C.ar  308  TRP308      0.0152
    124  NE1       19.6580   -3.0180  144.6640 N.ar  308  TRP308     -0.2442
    125  CE2       19.1780   -3.2860  145.9030 C.ar  308  TRP308      0.0810
    126  CE3       18.2060   -5.1650  147.1010 C.ar  308  TRP308      0.0012
    127  CZ2       19.0450   -2.4660  146.9990 C.ar  308  TRP308      0.0191
    128  CZ3       18.0890   -4.3520  148.1880 C.ar  308  TRP308      0.0001
    129  CH2       18.5640   -3.0430  148.1590 C.ar  308  TRP308      0.0015
@<TRIPOS>BOND
     1    13    14    2
     2    13    12    1
     3    11    12    1
     4    12    15    1
     5     4     3    2
     6     3     2    1
     7    15    16    1
     8     1     2    1
     9     2     5    1
    10   110   111    2
    11   110   109    1
    12   103   102    2
    13    16    17    1
    14     5     6    1
    15   109   108    1
    16   109   112    1
    17   102   108   am
    18   102   101    1
    19    17    18    1
    20   100   101    1
    21   112   113    1
    22     6     7   ar
    23     6     8   ar
    24   101   104    1
    25    18    19    1
    26   115   113   am
    27   113   114    2
    28     7     9   ar
    29     8    10   ar
    30   104   105    1
    31   116   117    1
    32     9    10   ar
    33   106   105   ar
    34   122   121   ar
    35   122   124   ar
    36   118   117    1
    37   118   119    2
    38   105   107   ar
    39   120   117    1
    40   120   121    1
    41    43    44    1
    42   121   123   ar
    43    47    44    1
    44    47    48    1
    45   124   125   ar
    46    44    45    1
    47    50    48   ar
    48    50    52   ar
    49    46    45    2
    50    48    49   ar
    51   125   123   ar
    52   125   127   ar
    53   123   126   ar
    54    61    60    2
    55    52    53   ar
    56    78    79   ar
    57    78    76   ar
    58    79    77   ar
    59    58    59    1
    60    58    55    1
    61    49    51   ar
    62    59    60    1
    63   127   129   ar
    64   126   128   ar
    65    60    62   am
    66    53    51   ar
    67    76    75   ar
    68    98    99   ar
    69    98    96   ar
    70    54    55    1
    71    77    75   ar
    72    55    56    1
    73    99    97   ar
    74   129   128   ar
    75    75    74    1
    76    26    28   ar
    77    26    25   ar
    78    96    95   ar
    79    24    25    1
    80    24    21    1
    81    28    30   ar
    82    25    27   ar
    83    56    57    2
    84    97    95   ar
    85    20    21    1
    86    21    22    1
    87    95    94    1
    88    90    91    1
    89    74    71    1
    90    30    31    1
    91    30    29   ar
    92    27    29   ar
    93    70    71    1
    94    89    88   ar
    95    89    87   ar
    96    71    72    1
    97    91    94    1
    98    91    92    1
    99    35    34    2
   100    22    23    2
   101    88    86   ar
   102    87    85   ar
   103    34    33    1
   104    33    32    1
   105    33    36    1
   106    93    92    2
   107    67    68    1
   108    67    69    1
   109    67    64    1
   110    72    73    2
   111    63    64    1
   112    37    36    1
   113    37    38    1
   114    86    85   ar
   115    85    84    1
   116    64    65    1
   117    38    39    1
   118    84    81    1
   119    65    66    2
   120    80    81    1
   121    81    82    1
   122    39    40    2
   123    82    83    2
   124    40    41    1
   125    40    42    1
