@<TRIPOS>MOLECULE
tmp/4cqeA00.pdb
 192 184 0 0 0
SMALL
GASTEIGER

@<TRIPOS>ATOM
      1  N         -6.8710   55.5240   26.3670 N.3    15  ILE15      -0.1231
      2  CA        -7.3500   54.2260   25.8850 C.3    15  ILE15       0.1692
      3  C         -7.2080   53.1350   26.9490 C.2    15  ILE15       0.2593
      4  O         -8.1650   52.4600   27.2780 O.2    15  ILE15      -0.2718
      5  CB        -6.6280   53.8150   24.5780 C.3    15  ILE15       0.0266
      6  CG1       -6.8790   54.8630   23.4740 C.3    15  ILE15       0.0019
      7  CG2       -7.0270   52.4010   24.1430 C.3    15  ILE15       0.0020
      8  CD1       -8.3470   55.2100   23.2700 C.3    15  ILE15       0.0001
      9  N         -6.0080   52.9730   27.4790 N.am   16  GLY16      -0.1942
     10  CA        -5.7490   52.0150   28.5390 C.3    16  GLY16       0.2014
     11  C         -4.4350   52.4050   29.1660 C.2    16  GLY16       0.2639
     12  O         -3.7620   53.2970   28.6560 O.2    16  GLY16      -0.2714
     13  N         -4.0870   51.7530   30.2750 N.am   17  SER17      -0.1949
     14  CA        -2.8300   52.0140   30.9820 C.3    17  SER17       0.1924
     15  C         -1.9790   50.7370   31.0690 C.2    17  SER17       0.2314
     16  O         -2.0900   49.8580   30.2020 O.2    17  SER17      -0.2863
     17  CB        -3.1010   52.6160   32.3680 C.3    17  SER17       0.2116
     18  OG        -3.7910   53.8490   32.2600 O.3    17  SER17      -0.2180
     19  N         -1.7950   54.6120   26.9890 N.3    21  VAL21      -0.1245
     20  CA        -2.0840   54.7840   25.5720 C.3    21  VAL21       0.1561
     21  C         -3.2210   55.7640   25.3960 C.2    21  VAL21       0.2260
     22  O         -4.2860   55.5880   25.9900 O.2    21  VAL21      -0.2867
     23  CB        -2.4400   53.4370   24.8640 C.3    21  VAL21       0.0252
     24  CG1       -2.9180   53.6710   23.4340 C.3    21  VAL21       0.0019
     25  CG2       -1.2490   52.4960   24.8630 C.3    21  VAL21       0.0019
     26  N         -1.8390   56.8350   17.6900 N.3    31  ALA31      -0.1245
     27  CA        -1.8720   56.3760   19.0570 C.3    31  ALA31       0.1562
     28  C         -0.6140   56.9190   19.7000 C.2    31  ALA31       0.2260
     29  O          0.4620   56.9070   19.0870 O.2    31  ALA31      -0.2867
     30  CB        -1.8950   54.8460   19.1180 C.3    31  ALA31       0.0290
     31  N          1.6960   56.4820   23.0630 N.3    33  LYS33      -0.1245
     32  CA         2.0030   55.6820   24.2050 C.3    33  LYS33       0.1561
     33  C          2.9370   56.4110   25.1290 C.2    33  LYS33       0.2260
     34  O          4.0750   56.5880   24.8320 O.2    33  LYS33      -0.2867
     35  CB         2.6050   54.3740   23.7740 C.3    33  LYS33       0.0271
     36  CG         2.6980   53.3650   24.8750 C.3    33  LYS33       0.0035
     37  CD         3.7290   52.3320   24.5600 C.3    33  LYS33       0.0206
     38  CE         3.0780   50.9990   24.4120 C.3    33  LYS33       0.1093
     39  NZ         4.0820   49.9350   24.4750 N.3    33  LYS33      -0.1314
     40  N         11.9340   49.3220   17.3040 N.3    55  LEU55      -0.1245
     41  CA        10.6850   49.6470   16.5910 C.3    55  LEU55       0.1561
     42  C         10.9090   50.1890   15.1720 C.2    55  LEU55       0.2260
     43  O         10.1200   49.9020   14.2770 O.2    55  LEU55      -0.2867
     44  CB         9.8370   50.6360   17.4050 C.3    55  LEU55       0.0270
     45  CG         9.5000   50.1620   18.8280 C.3    55  LEU55       0.0019
     46  CD1        8.9140   51.2840   19.6770 C.3    55  LEU55       0.0001
     47  CD2        8.5680   48.9570   18.7890 C.3    55  LEU55       0.0001
     48  N         11.0470   48.0350   11.8360 N.3    58  THR58      -0.1218
     49  CA         9.8420   47.4200   11.2830 C.3    58  THR58       0.1862
     50  C          9.0940   48.2900   10.2890 C.2    58  THR58       0.2287
     51  O          8.7490   49.4450   10.5670 O.2    58  THR58      -0.2866
     52  CB         8.8450   46.9620   12.3790 C.3    58  THR58       0.1770
     53  OG1        8.4260   48.0920   13.1650 O.3    58  THR58      -0.2211
     54  CG2        9.4810   45.9130   13.2730 C.3    58  THR58       0.0375
     55  N          2.5050   44.6240   11.0480 N.3    63  ILE63      -0.1231
     56  CA         3.1180   45.1500   12.2680 C.3    63  ILE63       0.1692
     57  C          2.6740   46.5860   12.5020 C.2    63  ILE63       0.2591
     58  O          2.8170   47.4330   11.5930 O.2    63  ILE63      -0.2718
     59  CB         4.6520   45.1700   12.1510 C.3    63  ILE63       0.0266
     60  CG1        5.1740   43.7860   11.7180 C.3    63  ILE63       0.0019
     61  CG2        5.2760   45.6610   13.4530 C.3    63  ILE63       0.0020
     62  CD1        4.9350   42.6920   12.7390 C.3    63  ILE63       0.0001
     63  N          2.1920   46.8780   13.7160 N.am   64  LEU64      -0.1980
     64  CA         1.7380   48.2360   14.0530 C.3    64  LEU64       0.1596
     65  C          2.7810   49.2420   13.5740 C.2    64  LEU64       0.2287
     66  O          3.9820   49.0630   13.8480 O.2    64  LEU64      -0.2864
     67  CB         1.4890   48.3780   15.5700 C.3    64  LEU64       0.0297
     68  CG         0.9470   49.7120   16.1230 C.3    64  LEU64       0.0022
     69  CD1       -0.5140   49.8810   15.7340 C.3    64  LEU64       0.0001
     70  CD2        1.0840   49.8150   17.6430 C.3    64  LEU64       0.0001
     71  N          5.2350   52.1690   13.3660 N.3    66  PHE66      -0.1241
     72  CA         5.9310   53.1880   14.1090 C.3    66  PHE66       0.1605
     73  C          5.9750   54.5190   13.3220 C.2    66  PHE66       0.2264
     74  O          6.4010   54.5350   12.1590 O.2    66  PHE66      -0.2867
     75  CB         7.3520   52.7160   14.4140 C.3    66  PHE66       0.0534
     76  CG         8.2920   53.8350   14.7720 C.ar   66  PHE66      -0.0203
     77  CD1        8.3270   54.3650   16.0800 C.ar   66  PHE66      -0.0042
     78  CD2        9.1390   54.3700   13.8020 C.ar   66  PHE66      -0.0042
     79  CE1        9.2200   55.3900   16.4020 C.ar   66  PHE66      -0.0003
     80  CE2       10.0120   55.3990   14.1140 C.ar   66  PHE66      -0.0003
     81  CZ        10.0560   55.9030   15.4150 C.ar   66  PHE66      -0.0000
     82  N          5.7930   57.1380   22.5550 N.3    77  ILE77      -0.1245
     83  CA         5.9450   56.4800   21.2650 C.3    77  ILE77       0.1561
     84  C          4.6620   56.7070   20.4840 C.2    77  ILE77       0.2260
     85  O          3.5500   56.5200   21.0180 O.2    77  ILE77      -0.2867
     86  CB         6.1990   54.9700   21.4320 C.3    77  ILE77       0.0252
     87  CG1        7.6250   54.7370   21.9530 C.3    77  ILE77       0.0019
     88  CG2        5.9770   54.2220   20.0950 C.3    77  ILE77       0.0019
     89  CD1        7.8900   53.3160   22.3970 C.3    77  ILE77       0.0001
     90  N          2.3410   55.9590   17.0990 N.3    79  THR79      -0.1203
     91  CA         2.0940   54.9420   16.0800 C.3    79  THR79       0.1994
     92  C          0.8580   55.3150   15.2950 C.2    79  THR79       0.2618
     93  O          0.1550   56.2650   15.6610 O.2    79  THR79      -0.2717
     94  CB         1.8480   53.5330   16.6820 C.3    79  THR79       0.1784
     95  OG1        0.5490   53.4770   17.3020 O.3    79  THR79      -0.2211
     96  CG2        2.8850   53.1780   17.6700 C.3    79  THR79       0.0376
     97  N          0.5730   54.5390   14.2490 N.am   80  GLN80      -0.1965
     98  CA        -0.7070   54.6380   13.5710 C.3    80  GLN80       0.1733
     99  C         -1.8360   54.3370   14.5460 C.2    80  GLN80       0.2616
    100  O         -1.6550   53.6040   15.5410 O.2    80  GLN80      -0.2715
    101  CB        -0.7630   53.7010   12.3710 C.3    80  GLN80       0.0408
    102  CG        -1.0410   52.2420   12.6960 C.3    80  GLN80       0.0908
    103  CD        -0.9720   51.3560   11.4690 C.2    80  GLN80       0.2608
    104  OE1       -0.0320   50.5780   11.3000 O.2    80  GLN80      -0.2717
    105  NE2       -1.9510   51.4880   10.5980 N.am   80  GLN80      -0.0878
    106  N         -2.9870   54.9380   14.2690 N.am   81  TRP81      -0.1960
    107  CA        -4.2190   54.6470   14.9750 C.3    81  TRP81       0.1771
    108  C         -4.9270   53.5070   14.3120 C.2    81  TRP81       0.2620
    109  O         -5.1990   53.5690   13.1120 O.2    81  TRP81      -0.2715
    110  CB        -5.1370   55.8490   14.9100 C.3    81  TRP81       0.0590
    111  CG        -6.4200   55.6350   15.6560 C.ar   81  TRP81       0.0006
    112  CD1       -7.7060   55.5530   15.1310 C.ar   81  TRP81       0.0946
    113  CD2       -6.5810   55.4460   17.1080 C.ar   81  TRP81       0.0152
    114  NE1       -8.6280   55.3520   16.1280 N.ar   81  TRP81      -0.2442
    115  CE2       -8.0240   55.2700   17.3370 C.ar   81  TRP81       0.0810
    116  CE3       -5.7040   55.4220   18.2060 C.ar   81  TRP81       0.0012
    117  CZ2       -8.5540   55.0810   18.6150 C.ar   81  TRP81       0.0191
    118  CZ3       -6.2420   55.2080   19.4970 C.ar   81  TRP81       0.0001
    119  CH2       -7.6350   55.0470   19.6930 C.ar   81  TRP81       0.0015
    120  N         -5.2740   52.4720   15.0710 N.am   82  CYS82      -0.1954
    121  CA        -6.0510   51.3810   14.5100 C.3    82  CYS82       0.1843
    122  C         -7.5000   51.5710   14.8530 C.2    82  CYS82       0.2625
    123  O         -7.8440   52.0100   15.9650 O.2    82  CYS82      -0.2714
    124  CB        -5.5590   50.0200   15.0060 C.3    82  CYS82       0.0997
    125  SG        -3.8590   49.5720   14.5510 S.3    82  CYS82      -0.0797
    126  N         -8.3580   51.2370   13.8970 N.am   83  GLU83      -0.1963
    127  CA        -9.7960   51.2830   14.1040 C.3    83  GLU83       0.1733
    128  C        -10.3230   49.8980   14.4460 C.2    83  GLU83       0.2616
    129  O         -9.9530   48.9150   13.7950 O.2    83  GLU83      -0.2715
    130  CB       -10.5180   51.7460   12.8290 C.3    83  GLU83       0.0429
    131  CG       -10.0220   53.0460   12.2290 C.3    83  GLU83       0.1163
    132  CD       -10.5470   54.2940   12.9300 C.2    83  GLU83       0.3649
    133  OE1      -11.3860   54.2080   13.8640 O.co2  83  GLU83      -0.2457
    134  OE2      -10.0900   55.3860   12.5430 O.co2  83  GLU83      -0.2457
    135  N        -11.2400   49.8380   15.4080 N.am   84  GLY84      -0.1955
    136  CA       -11.9360   48.6060   15.7640 C.3    84  GLY84       0.1869
    137  C        -11.3950   48.0610   17.0740 C.2    84  GLY84       0.2309
    138  O        -11.0830   48.8220   18.0030 O.2    84  GLY84      -0.2863
    139  N         -4.8430   39.6320   22.3970 N.3   130  ASN130     -0.1225
    140  CA        -5.1050   41.0040   22.8390 C.3   130  ASN130      0.1785
    141  C         -4.1680   41.9510   22.1210 C.2   130  ASN130      0.2597
    142  O         -4.4170   43.1630   22.0670 O.2   130  ASN130     -0.2718
    143  CB        -4.8910   41.2060   24.3550 C.3   130  ASN130      0.1169
    144  CG        -5.4920   40.0920   25.2000 C.2   130  ASN130      0.2627
    145  OD1       -5.0500   38.9320   25.1480 O.2   130  ASN130     -0.2716
    146  ND2       -6.5100   40.4350   25.9820 N.am  130  ASN130     -0.0877
    147  N         -3.0800   41.3970   21.5910 N.am  131  ASN131     -0.1974
    148  CA        -2.0080   42.1910   21.0100 C.3   131  ASN131      0.1688
    149  C         -2.0160   42.1350   19.4990 C.2   131  ASN131      0.2292
    150  O         -1.0870   42.6010   18.8060 O.2   131  ASN131     -0.2864
    151  CB        -0.6570   41.7410   21.5670 C.3   131  ASN131      0.1181
    152  CG        -0.3980   42.3040   22.9440 C.2   131  ASN131      0.2629
    153  OD1       -1.0890   43.2400   23.3880 O.2   131  ASN131     -0.2716
    154  ND2        0.5890   41.7400   23.6390 N.am  131  ASN131     -0.0877
    155  N         -4.2180   43.5460   16.7050 N.3   133  PHE133     -0.1241
    156  CA        -5.2990   44.4820   16.4530 C.3   133  PHE133      0.1605
    157  C         -5.9040   44.2030   15.0660 C.2   133  PHE133      0.2264
    158  O         -5.1820   44.0210   14.0950 O.2   133  PHE133     -0.2867
    159  CB        -4.8230   45.9250   16.6170 C.3   133  PHE133      0.0534
    160  CG        -4.0350   46.1780   17.8900 C.ar  133  PHE133     -0.0203
    161  CD1       -4.3810   45.5580   19.1040 C.ar  133  PHE133     -0.0042
    162  CD2       -2.9370   47.0470   17.8830 C.ar  133  PHE133     -0.0042
    163  CE1       -3.6590   45.7980   20.2620 C.ar  133  PHE133     -0.0003
    164  CE2       -2.2080   47.2860   19.0470 C.ar  133  PHE133     -0.0003
    165  CZ        -2.5670   46.6630   20.2410 C.ar  133  PHE133     -0.0000
    166  N          0.9950   44.3640   17.8040 N.3   143  GLY143     -0.1210
    167  CA         1.5370   45.4270   18.6370 C.3   143  GLY143      0.1956
    168  C          2.1050   44.9300   19.9420 C.2   143  GLY143      0.2612
    169  O          2.1470   43.7390   20.1890 O.2   143  GLY143     -0.2717
    170  N          2.5640   45.8730   20.7540 N.am  144  ASP144     -0.1959
    171  CA         2.9510   45.6520   22.1500 C.3   144  ASP144      0.1840
    172  C          4.1540   44.7560   22.3290 C.2   144  ASP144      0.2622
    173  O          4.0950   43.8370   23.1160 O.2   144  ASP144     -0.2715
    174  CB         1.7600   45.1160   22.9480 C.3   144  ASP144      0.1450
    175  CG         1.9620   45.2090   24.4520 C.2   144  ASP144      0.3671
    176  OD1        2.7020   46.0980   24.9490 O.co2 144  ASP144     -0.2456
    177  OD2        1.3630   44.3650   25.1370 O.co2 144  ASP144     -0.2456
    178  N          5.2140   45.0030   21.5670 N.am  145  PHE145     -0.1960
    179  CA         6.4880   44.3000   21.7100 C.3   145  PHE145      0.1771
    180  C          7.6600   45.2460   21.9710 C.2   145  PHE145      0.2620
    181  O          8.8130   44.8290   21.9610 O.2   145  PHE145     -0.2715
    182  CB         6.7960   43.4050   20.4960 C.3   145  PHE145      0.0574
    183  CG         6.9230   44.1440   19.1820 C.ar  145  PHE145     -0.0200
    184  CD1        8.1340   44.6840   18.7850 C.ar  145  PHE145     -0.0042
    185  CD2        5.8330   44.2560   18.3270 C.ar  145  PHE145     -0.0042
    186  CE1        8.2510   45.3520   17.5750 C.ar  145  PHE145     -0.0003
    187  CE2        5.9390   44.9180   17.1200 C.ar  145  PHE145     -0.0003
    188  CZ         7.1530   45.4630   16.7390 C.ar  145  PHE145     -0.0000
    189  N          7.3610   46.5240   22.1870 N.am  146  GLY146     -0.1954
    190  CA         8.3610   47.4790   22.6510 C.3   146  GLY146      0.1869
    191  C          8.3700   47.5590   24.1690 C.2   146  GLY146      0.2309
    192  O          9.3790   47.2520   24.8110 O.2   146  GLY146     -0.2863
@<TRIPOS>BOND
     1    50    51    2
     2    50    49    1
     3   105   103   am
     4    55    56    1
     5    49    48    1
     6    49    52    1
     7   104   103    2
     8   103   102    1
     9    58    57    2
    10    60    59    1
    11    60    62    1
    12    59    56    1
    13    59    61    1
    14    74    73    2
    15   131   130    1
    16   131   132    1
    17    56    57    1
    18   101   102    1
    19   101    98    1
    20    52    53    1
    21    52    54    1
    22    57    63   am
    23   134   132   ar
    24   130   127    1
    25   132   133   ar
    26   109   108    2
    27    73    72    1
    28    71    72    1
    29    98    97    1
    30    98    99    1
    31    65    66    2
    32    65    64    1
    33    63    64    1
    34   129   128    2
    35    78    80   ar
    36    78    76   ar
    37   126   127    1
    38   126   122   am
    39    64    67    1
    40   158   157    2
    41   127   128    1
    42    72    75    1
    43    80    81   ar
    44    97    92   am
    45   106    99   am
    46   106   107    1
    47    43    42    2
    48   108   107    1
    49   108   120   am
    50    75    76    1
    51   128   135   am
    52   121   122    1
    53   121   124    1
    54   121   120    1
    55    99   100    2
    56   125   124    1
    57    76    77   ar
    58   122   123    2
    59   110   107    1
    60   110   111    1
    61   157   156    1
    62   112   111   ar
    63   112   114   ar
    64    42    41    1
    65    92    93    2
    66    92    91    1
    67   135   136    1
    68    81    79   ar
    69    67    68    1
    70   111   113   ar
    71    69    68    1
    72   136   137    1
    73    77    79   ar
    74    91    94    1
    75    91    90    1
    76    68    70    1
    77   114   115   ar
    78   156   159    1
    79   156   155    1
    80    41    40    1
    81    41    44    1
    82   159   160    1
    83    94    95    1
    84    94    96    1
    85   188   187   ar
    86   188   186   ar
    87   137   138    2
    88   113   115   ar
    89   113   116   ar
    90   187   185   ar
    91   115   117   ar
    92    44    45    1
    93   186   184   ar
    94    26    27    1
    95   166   167    1
    96   162   160   ar
    97   162   164   ar
    98   160   161   ar
    99   116   118   ar
   100   185   183   ar
   101   117   119   ar
   102   167   168    1
   103   184   183   ar
   104    47    45    1
   105   150   149    2
   106    45    46    1
   107   164   165   ar
   108    27    30    1
   109    27    28    1
   110    29    28    2
   111   161   163   ar
   112   183   182    1
   113   118   119   ar
   114   149   148    1
   115   168   169    2
   116   168   170   am
   117    88    86    1
   118   165   163   ar
   119    84    85    2
   120    84    83    1
   121   182   179    1
   122   170   171    1
   123   148   151    1
   124   148   147    1
   125    83    86    1
   126    83    82    1
   127    86    87    1
   128   178   179    1
   129   178   172   am
   130   151   152    1
   131   147   141   am
   132   179   180    1
   133    87    89    1
   134   181   180    2
   135   180   189   am
   136   142   141    2
   137   141   140    1
   138   171   172    1
   139   171   174    1
   140   189   190    1
   141   172   173    2
   142   139   140    1
   143   190   191    1
   144   140   143    1
   145   152   153    2
   146   152   154   am
   147   174   175    1
   148    31    32    1
   149     8     6    1
   150    24    23    1
   151     6     5    1
   152    35    32    1
   153    35    36    1
   154     7     5    1
   155   191   192    2
   156    32    33    1
   157   143   144    1
   158    38    39    1
   159    38    37    1
   160   175   176   ar
   161   175   177   ar
   162    37    36    1
   163     5     2    1
   164    34    33    2
   165    25    23    1
   166    23    20    1
   167   145   144    2
   168   144   146   am
   169    21    20    1
   170    21    22    2
   171    20    19    1
   172     2     1    1
   173     2     3    1
   174     3     4    2
   175     3     9   am
   176     9    10    1
   177    10    11    1
   178    12    11    2
   179    11    13   am
   180    16    15    2
   181    13    14    1
   182    14    15    1
   183    14    17    1
   184    18    17    1
