@<TRIPOS>MOLECULE
tmp/4cqfB00.pdb
 147 146 0 0 0
SMALL
GASTEIGER

@<TRIPOS>ATOM
      1  N         87.5230   24.5130   71.9070 N.3    19  LYS19      -0.1245
      2  CA        86.7290   25.4750   71.1430 C.3    19  LYS19       0.1561
      3  C         87.5470   26.1390   70.0290 C.2    19  LYS19       0.2260
      4  O         87.0730   26.2030   68.8900 O.2    19  LYS19      -0.2867
      5  CB        86.0790   26.5170   72.0750 C.3    19  LYS19       0.0271
      6  CG        85.2460   27.6000   71.3920 C.3    19  LYS19       0.0035
      7  CD        84.0460   27.0320   70.6600 C.3    19  LYS19       0.0206
      8  CE        83.2450   28.1170   69.9940 C.3    19  LYS19       0.1093
      9  NZ        81.9100   27.6210   69.5940 N.3    19  LYS19      -0.1314
     10  N         79.3590   24.5020   80.4330 N.3    95  TYR95      -0.1227
     11  CA        78.7160   24.7920   79.1430 C.3    95  TYR95       0.1736
     12  C         79.6850   25.3440   78.1040 C.2    95  TYR95       0.2595
     13  O         80.4800   24.5690   77.5790 O.2    95  TYR95      -0.2718
     14  CB        77.4210   25.6400   79.3150 C.3    95  TYR95       0.0548
     15  CG        76.4550   25.0500   80.3270 C.ar   95  TYR95      -0.0200
     16  CD1       75.7200   23.9020   80.0350 C.ar   95  TYR95      -0.0009
     17  CD2       76.3120   25.6100   81.5950 C.ar   95  TYR95      -0.0009
     18  CE1       74.8820   23.3160   80.9870 C.ar   95  TYR95       0.0417
     19  CE2       75.4860   25.0270   82.5560 C.ar   95  TYR95       0.0417
     20  CZ        74.7610   23.8870   82.2420 C.ar   95  TYR95       0.1957
     21  OH        73.9380   23.3060   83.1820 O.3    95  TYR95      -0.2866
     22  N         79.6680   26.6750   77.8570 N.am   96  ASP96      -0.1974
     23  CA        80.5510   27.3670   76.9010 C.3    96  ASP96       0.1709
     24  C         81.9660   27.5220   77.4370 C.2    96  ASP96       0.2293
     25  O         82.8920   27.6970   76.6550 O.2    96  ASP96      -0.2864
     26  CB        79.9790   28.7460   76.5140 C.3    96  ASP96       0.1436
     27  CG        79.7710   29.6820   77.6810 C.2    96  ASP96       0.3671
     28  OD1       78.7450   29.5460   78.3710 O.co2  96  ASP96      -0.2456
     29  OD2       80.6100   30.5860   77.8710 O.co2  96  ASP96      -0.2456
     30  N         89.7100   38.4240   74.7840 N.3   136  TRP136     -0.1227
     31  CA        88.6950   37.7430   75.5740 C.3   136  TRP136      0.1737
     32  C         87.8440   38.6780   76.4260 C.2   136  TRP136      0.2595
     33  O         87.8990   38.6720   77.6470 O.2   136  TRP136     -0.2718
     34  CB        89.3080   36.4970   76.2820 C.3   136  TRP136      0.0564
     35  CG        90.1250   35.6790   75.3120 C.ar  136  TRP136      0.0003
     36  CD1       91.4820   35.5620   75.2910 C.ar  136  TRP136      0.0946
     37  CD2       89.6560   35.1030   74.0790 C.ar  136  TRP136      0.0152
     38  NE1       91.8840   34.8650   74.1680 N.ar  136  TRP136     -0.2442
     39  CE2       90.7810   34.5740   73.4080 C.ar  136  TRP136      0.0810
     40  CE3       88.3850   34.9720   73.4830 C.ar  136  TRP136      0.0012
     41  CZ2       90.6740   33.9010   72.1910 C.ar  136  TRP136      0.0191
     42  CZ3       88.2810   34.3090   72.2770 C.ar  136  TRP136      0.0001
     43  CH2       89.4190   33.7890   71.6380 C.ar  136  TRP136      0.0015
     44  N         87.0230   39.4660   75.7220 N.am  137  HIS137     -0.1961
     45  CA        86.1580   40.5630   76.1850 C.3   137  HIS137      0.1787
     46  C         84.9890   40.2340   77.0990 C.2   137  HIS137      0.2620
     47  O         84.5270   41.1270   77.7810 O.2   137  HIS137     -0.2715
     48  CB        85.7020   41.4270   74.9840 C.3   137  HIS137      0.0785
     49  CG        84.8250   40.7190   73.9720 C.ar  137  HIS137      0.0821
     50  ND1       84.1140   41.4350   73.0050 N.ar  137  HIS137     -0.2267
     51  CD2       84.5900   39.3930   73.7870 C.ar  137  HIS137      0.1154
     52  CE1       83.4630   40.5330   72.2890 C.ar  137  HIS137      0.1986
     53  NE2       83.7090   39.2890   72.7170 N.ar  137  HIS137     -0.2212
     54  N         84.4890   38.9990   77.1150 N.am  138  HIS138     -0.1973
     55  CA        83.3410   38.6590   77.9710 C.3   138  HIS138      0.1656
     56  C         83.6730   38.2650   79.4020 C.2   138  HIS138      0.2291
     57  O         82.7540   38.2540   80.2120 O.2   138  HIS138     -0.2864
     58  CB        82.4590   37.5570   77.3620 C.3   138  HIS138      0.0771
     59  CG        81.9840   37.8380   75.9820 C.ar  138  HIS138      0.0820
     60  ND1       81.1990   38.9360   75.6970 N.ar  138  HIS138     -0.2267
     61  CD2       82.1760   37.1290   74.8480 C.ar  138  HIS138      0.1154
     62  CE1       80.9540   38.8740   74.4010 C.ar  138  HIS138      0.1986
     63  NE2       81.5270   37.8040   73.8480 N.ar  138  HIS138     -0.2212
     64  N         81.0540   33.5140   77.6300 N.3   146  GLY146     -0.1210
     65  CA        81.1810   33.4880   76.1700 C.3   146  GLY146      0.1956
     66  C         82.5250   33.0630   75.6310 C.2   146  GLY146      0.2612
     67  O         83.0910   33.7340   74.7640 O.2   146  GLY146     -0.2717
     68  N         83.0340   31.9450   76.1470 N.am  147  PHE147     -0.1962
     69  CA        84.3210   31.3290   75.7920 C.3   147  PHE147      0.1771
     70  C         85.5530   32.0620   76.3630 C.2   147  PHE147      0.2619
     71  O         86.6920   31.7150   76.0570 O.2   147  PHE147     -0.2715
     72  CB        84.4280   31.0300   74.2680 C.3   147  PHE147      0.0574
     73  CG        83.1640   30.4690   73.6360 C.ar  147  PHE147     -0.0200
     74  CD1       82.6770   29.2170   74.0010 C.ar  147  PHE147     -0.0042
     75  CD2       82.4700   31.1900   72.6690 C.ar  147  PHE147     -0.0042
     76  CE1       81.5080   28.7070   73.4300 C.ar  147  PHE147     -0.0003
     77  CE2       81.2970   30.6790   72.1010 C.ar  147  PHE147     -0.0003
     78  CZ        80.8180   29.4460   72.4950 C.ar  147  PHE147     -0.0000
     79  N         85.3080   33.0490   77.2340 N.am  148  CYS148     -0.1968
     80  CA        86.3290   33.8930   77.8600 C.3   148  CYS148      0.1712
     81  C         86.4260   33.5450   79.3330 C.2   148  CYS148      0.2296
     82  O         85.4180   33.6040   80.0350 O.2   148  CYS148     -0.2864
     83  CB        86.0060   35.3710   77.6580 C.3   148  CYS148      0.0983
     84  SG        85.6530   35.8230   75.9460 S.3   148  CYS148     -0.0798
     85  N         84.1770   43.2400   67.5320 N.3   173  ASP173     -0.1239
     86  CA        83.6480   41.8890   67.5260 C.3   173  ASP173      0.1674
     87  C         82.1370   41.9270   67.3010 C.2   173  ASP173      0.2266
     88  O         81.4980   42.9260   67.6230 O.2   173  ASP173     -0.2867
     89  CB        83.9550   41.2540   68.8820 C.3   173  ASP173      0.1410
     90  CG        83.7600   39.7620   68.9850 C.2   173  ASP173      0.3668
     91  OD1       82.6000   39.3290   69.1890 O.co2 173  ASP173     -0.2456
     92  OD2       84.7770   39.0350   69.0100 O.co2 173  ASP173     -0.2456
     93  N         79.9340   40.4830   69.0000 N.3   175  HIS175     -0.1241
     94  CA        79.2990   40.5310   70.3110 C.3   175  HIS175      0.1621
     95  C         79.6690   41.7630   71.1130 C.2   175  HIS175      0.2264
     96  O         80.7680   42.3080   70.9630 O.2   175  HIS175     -0.2867
     97  CB        79.6060   39.2270   71.1020 C.3   175  HIS175      0.0745
     98  CG        79.1810   37.9930   70.3710 C.ar  175  HIS175      0.0817
     99  ND1       80.0120   37.3790   69.4710 N.ar  175  HIS175     -0.2268
    100  CD2       77.9990   37.3380   70.3860 C.ar  175  HIS175      0.1154
    101  CE1       79.3390   36.3410   69.0030 C.ar  175  HIS175      0.1986
    102  NE2       78.1280   36.2750   69.5260 N.ar  175  HIS175     -0.2212
    103  N         73.3380   36.6540   72.5340 N.3   203  PHE203     -0.1241
    104  CA        74.3500   36.8500   73.5690 C.3   203  PHE203      0.1605
    105  C         75.1640   38.1210   73.3770 C.2   203  PHE203      0.2264
    106  O         75.6020   38.3880   72.2550 O.2   203  PHE203     -0.2867
    107  CB        75.3160   35.6390   73.6030 C.3   203  PHE203      0.0534
    108  CG        76.4060   35.7060   74.6510 C.ar  203  PHE203     -0.0203
    109  CD1       76.2050   35.1810   75.9200 C.ar  203  PHE203     -0.0042
    110  CD2       77.6430   36.2700   74.3580 C.ar  203  PHE203     -0.0042
    111  CE1       77.2040   35.2600   76.8920 C.ar  203  PHE203     -0.0003
    112  CE2       78.6480   36.3280   75.3220 C.ar  203  PHE203     -0.0003
    113  CZ        78.4190   35.8290   76.5840 C.ar  203  PHE203     -0.0000
    114  N         84.1600   37.6160   63.9180 N.3   267  ASP267     -0.1239
    115  CA        82.8180   37.0720   63.7500 C.3   267  ASP267      0.1674
    116  C         81.8290   37.9210   62.9900 C.2   267  ASP267      0.2266
    117  O         80.7070   37.4550   62.7470 O.2   267  ASP267     -0.2867
    118  CB        82.2600   36.4120   65.0190 C.3   267  ASP267      0.1410
    119  CG        82.5440   37.1300   66.3190 C.2   267  ASP267      0.3668
    120  OD1       82.9830   38.3030   66.2700 O.co2 267  ASP267     -0.2456
    121  OD2       82.2710   36.5420   67.3860 O.co2 267  ASP267     -0.2456
    122  N         78.1690   32.2900   62.3440 N.3   274  HIS274     -0.1241
    123  CA        77.0670   33.0960   62.9100 C.3   274  HIS274      0.1621
    124  C         76.1480   33.6260   61.8060 C.2   274  HIS274      0.2264
    125  O         74.9300   33.7450   62.0140 O.2   274  HIS274     -0.2867
    126  CB        77.6000   34.2820   63.7320 C.3   274  HIS274      0.0745
    127  CG        77.9830   33.9190   65.1340 C.ar  274  HIS274      0.0817
    128  ND1       77.0260   33.7740   66.1290 N.ar  274  HIS274     -0.2268
    129  CD2       79.2020   33.6420   65.6530 C.ar  274  HIS274      0.1154
    130  CE1       77.6940   33.4290   67.2210 C.ar  274  HIS274      0.1986
    131  NE2       79.0070   33.3380   66.9830 N.ar  274  HIS274     -0.2212
    132  N         86.6160   36.6390   68.9440 N.3   313  GLY313     -0.1225
    133  CA        85.7870   35.6930   68.1930 C.3   313  GLY313      0.1811
    134  C         86.2200   35.5400   66.7430 C.2   313  GLY313      0.2280
    135  O         87.0650   36.2970   66.2490 O.2   313  GLY313     -0.2866
    136  N         84.9640   32.1300   64.0510 N.3   315  TYR315     -0.1241
    137  CA        84.6980   30.7020   64.0480 C.3   315  TYR315      0.1605
    138  C         84.9140   29.9510   62.7630 C.2   315  TYR315      0.2264
    139  O         84.9190   28.7190   62.7690 O.2   315  TYR315     -0.2867
    140  CB        83.3740   30.4150   64.7760 C.3   315  TYR315      0.0534
    141  CG        83.3710   31.0950   66.1320 C.ar  315  TYR315     -0.0201
    142  CD1       83.9540   30.4850   67.2370 C.ar  315  TYR315     -0.0009
    143  CD2       82.9090   32.4080   66.2780 C.ar  315  TYR315     -0.0009
    144  CE1       84.0220   31.1340   68.4680 C.ar  315  TYR315      0.0417
    145  CE2       82.9790   33.0680   67.5060 C.ar  315  TYR315      0.0417
    146  CZ        83.5330   32.4200   68.5980 C.ar  315  TYR315      0.1957
    147  OH        83.6160   33.0250   69.8170 O.3   315  TYR315     -0.2866
@<TRIPOS>BOND
     1   124   125    2
     2   124   123    1
     3   122   123    1
     4   117   116    2
     5   138   139    2
     6   138   137    1
     7   123   126    1
     8   116   115    1
     9   126   127    1
    10   115   114    1
    11   115   118    1
    12   137   136    1
    13   137   140    1
    14   140   141    1
    15   118   119    1
    16   127   129   ar
    17   127   128   ar
    18   129   131   ar
    19   128   130   ar
    20   141   143   ar
    21   141   142   ar
    22   135   134    2
    23   120   119   ar
    24   143   145   ar
    25   119   121   ar
    26   134   133    1
    27   131   130   ar
    28   142   144   ar
    29    87    86    1
    30    87    88    2
    31   145   146   ar
    32    86    85    1
    33    86    89    1
    34   133   132    1
    35   144   146   ar
    36   146   147    1
    37    89    90    1
    38     4     3    2
    39    90    92   ar
    40    90    91   ar
    41    93    94    1
    42   101    99   ar
    43   101   102   ar
    44    99    98   ar
    45   102   100   ar
    46     9     8    1
    47     8     7    1
    48     3     2    1
    49    94    97    1
    50    94    95    1
    51    98   100   ar
    52    98    97    1
    53     7     6    1
    54    96    95    2
    55     2     1    1
    56     2     5    1
    57     6     5    1
    58    43    41   ar
    59    43    42   ar
    60    77    78   ar
    61    77    75   ar
    62    41    39   ar
    63   106   105    2
    64    42    40   ar
    65    52    53   ar
    66    52    50   ar
    67    78    76   ar
    68   103   104    1
    69    75    73   ar
    70    53    51   ar
    71    50    49   ar
    72   105   104    1
    73    39    37   ar
    74    39    38   ar
    75    76    74   ar
    76    40    37   ar
    77   104   107    1
    78   107   108    1
    79    73    74   ar
    80    73    72    1
    81    51    49   ar
    82    63    62   ar
    83    63    61   ar
    84    49    48    1
    85    37    35   ar
    86    38    36   ar
    87    72    69    1
    88   110   108   ar
    89   110   112   ar
    90    62    60   ar
    91   108   109   ar
    92    67    66    2
    93    30    31    1
    94    61    59   ar
    95    48    45    1
    96    36    35   ar
    97    35    34    1
    98   112   113   ar
    99    31    34    1
   100    31    32    1
   101    66    68   am
   102    66    65    1
   103    60    59   ar
   104    44    45    1
   105    44    32   am
   106    69    68    1
   107    69    70    1
   108   109   111   ar
   109    84    83    1
   110    59    58    1
   111    71    70    2
   112    65    64    1
   113    45    46    1
   114    70    79   am
   115    32    33    2
   116    26    23    1
   117    26    27    1
   118   113   111   ar
   119    25    24    2
   120    23    24    1
   121    23    22    1
   122    46    54   am
   123    46    47    2
   124    54    55    1
   125    79    80    1
   126    58    55    1
   127    13    12    2
   128    83    80    1
   129    27    29   ar
   130    27    28   ar
   131    22    12   am
   132    80    81    1
   133    55    56    1
   134    12    11    1
   135    11    14    1
   136    11    10    1
   137    14    15    1
   138    81    82    2
   139    56    57    2
   140    16    15   ar
   141    16    18   ar
   142    15    17   ar
   143    18    20   ar
   144    17    19   ar
   145    20    19   ar
   146    20    21    1
