@<TRIPOS>MOLECULE
tmp/4cqgA00.pdb
 196 184 0 0 0
SMALL
GASTEIGER

@<TRIPOS>ATOM
      1  N         13.4140   -8.1670   27.1450 N.3    16  ILE16      -0.1231
      2  CA        12.8740   -7.3370   28.2060 C.3    16  ILE16       0.1692
      3  C         12.5010   -8.1590   29.4340 C.2    16  ILE16       0.2593
      4  O         12.4000   -7.6180   30.5110 O.2    16  ILE16      -0.2718
      5  CB        11.7260   -6.4370   27.7100 C.3    16  ILE16       0.0266
      6  CG1       10.8040   -7.1550   26.7650 C.3    16  ILE16       0.0019
      7  CG2       12.2700   -5.2930   26.8940 C.3    16  ILE16       0.0020
      8  CD1        9.5920   -6.3130   26.4180 C.3    16  ILE16       0.0001
      9  N         12.3540   -9.4650   29.2800 N.am   17  GLY17      -0.1942
     10  CA        12.1490  -10.2960   30.4210 C.3    17  GLY17       0.2014
     11  C         12.1010  -11.7220   30.0460 C.2    17  GLY17       0.2640
     12  O         12.0040  -12.0310   28.8900 O.2    17  GLY17      -0.2714
     13  N         12.1470  -12.5830   31.0490 N.am   18  THR18      -0.1936
     14  CA        12.0040  -14.0240   30.8490 C.3    18  THR18       0.2028
     15  C         11.0680  -14.6430   31.8690 C.2    18  THR18       0.2642
     16  O         10.7240  -14.0390   32.8830 O.2    18  THR18      -0.2714
     17  CB        13.3530  -14.7650   30.9460 C.3    18  THR18       0.1808
     18  OG1       13.9340  -14.5410   32.2380 O.3    18  THR18      -0.2208
     19  CG2       14.3050  -14.3050   29.8480 C.3    18  THR18       0.0379
     20  N         10.6730  -15.8680   31.5730 N.am   19  GLY19      -0.1954
     21  CA         9.7230  -16.6250   32.3760 C.3    19  GLY19       0.1869
     22  C         10.1910  -18.0490   32.2860 C.2    19  GLY19       0.2309
     23  O         11.2460  -18.3100   31.6920 O.2    19  GLY19      -0.2863
     24  N          9.3800  -18.5660   28.3130 N.3    22  ALA22      -0.1245
     25  CA         9.5600  -17.6580   27.2000 C.3    22  ALA22       0.1562
     26  C         10.5310  -16.5620   27.4420 C.2    22  ALA22       0.2260
     27  O         10.7430  -16.1130   28.5680 O.2    22  ALA22      -0.2867
     28  CB         8.2210  -17.0620   26.8280 C.3    22  ALA22       0.0290
     29  N         10.8910  -12.6130   26.3760 N.3    24  VAL24      -0.1245
     30  CA        10.1400  -11.4970   25.8260 C.3    24  VAL24       0.1561
     31  C         11.0590  -10.4000   25.3200 C.2    24  VAL24       0.2260
     32  O         11.9460   -9.9160   26.0340 O.2    24  VAL24      -0.2867
     33  CB         9.1050  -10.9250   26.8240 C.3    24  VAL24       0.0252
     34  CG1        8.2110   -9.9040   26.1350 C.3    24  VAL24       0.0019
     35  CG2        8.2390  -12.0540   27.3710 C.3    24  VAL24       0.0019
     36  N          5.7720   -6.1270   21.9780 N.3    37  ALA37      -0.1245
     37  CA         6.4870   -7.0830   22.7840 C.3    37  ALA37       0.1562
     38  C          6.3020   -8.4110   22.1090 C.2    37  ALA37       0.2260
     39  O          5.2040   -8.7170   21.6920 O.2    37  ALA37      -0.2867
     40  CB         5.9230   -7.0970   24.1950 C.3    37  ALA37       0.0290
     41  N          6.7370  -12.5850   22.3850 N.3    39  LYS39      -0.1245
     42  CA         6.9470  -13.6960   23.2380 C.3    39  LYS39       0.1561
     43  C          7.4540  -14.8320   22.3900 C.2    39  LYS39       0.2260
     44  O          6.7320  -15.3310   21.5200 O.2    39  LYS39      -0.2867
     45  CB         5.6500  -14.1150   23.8610 C.3    39  LYS39       0.0271
     46  CG         5.8100  -14.6390   25.2670 C.3    39  LYS39       0.0035
     47  CD         4.4760  -15.1510   25.7390 C.3    39  LYS39       0.0206
     48  CE         4.6450  -16.3080   26.6910 C.3    39  LYS39       0.1093
     49  NZ         3.3580  -16.6420   27.3580 N.3    39  LYS39      -0.1314
     50  N         -3.3280  -20.9650   25.6420 N.3    56  GLU56      -0.1245
     51  CA        -3.0560  -19.5830   25.8610 C.3    56  GLU56       0.1567
     52  C         -3.4680  -18.7880   24.6360 C.2    56  GLU56       0.2260
     53  O         -4.0650  -17.7240   24.7350 O.2    56  GLU56      -0.2867
     54  CB        -1.5750  -19.3580   26.1280 C.3    56  GLU56       0.0388
     55  CG        -1.3570  -17.8940   26.3750 C.3    56  GLU56       0.1160
     56  CD         0.0310  -17.5010   26.8000 C.2    56  GLU56       0.3649
     57  OE1        0.9400  -18.3800   26.6090 O.co2  56  GLU56      -0.2457
     58  OE2        0.1460  -16.2910   27.2890 O.co2  56  GLU56      -0.2457
     59  N         -6.3270  -15.8640   24.2080 N.3    60  LEU60      -0.1245
     60  CA        -6.0150  -14.4950   23.8570 C.3    60  LEU60       0.1561
     61  C         -6.7140  -14.0530   22.5690 C.2    60  LEU60       0.2260
     62  O         -7.0510  -12.9040   22.4400 O.2    60  LEU60      -0.2867
     63  CB        -4.5060  -14.3390   23.7060 C.3    60  LEU60       0.0270
     64  CG        -3.6970  -14.0600   24.9490 C.3    60  LEU60       0.0019
     65  CD1       -2.2580  -14.3040   24.5710 C.3    60  LEU60       0.0001
     66  CD2       -3.8750  -12.6150   25.3780 C.3    60  LEU60       0.0001
     67  N         -4.0110   -7.5370   27.7630 N.3    69  CYS69      -0.1235
     68  CA        -2.9800   -7.3260   26.7470 C.3    69  CYS69       0.1677
     69  C         -3.3860   -7.9120   25.4010 C.2    69  CYS69       0.2270
     70  O         -3.6610   -9.0700   25.3230 O.2    69  CYS69      -0.2867
     71  CB        -1.6660   -7.9740   27.2130 C.3    69  CYS69       0.0956
     72  SG        -0.2130   -7.7930   26.1370 S.3    69  CYS69      -0.0801
     73  N          4.5750  -14.8540   19.7010 N.3    83  MET83      -0.1245
     74  CA         3.3630  -14.1050   19.9910 C.3    83  MET83       0.1570
     75  C          3.6590  -12.6290   20.0320 C.2    83  MET83       0.2261
     76  O          4.4450  -12.1830   20.8270 O.2    83  MET83      -0.2867
     77  CB         2.8170  -14.5400   21.3190 C.3    83  MET83       0.0387
     78  CG         2.3170  -15.9800   21.2680 C.3    83  MET83       0.0595
     79  SD         1.8970  -16.7200   22.8490 S.3    83  MET83      -0.1393
     80  CE         0.5980  -15.5930   23.3760 C.3    83  MET83       0.0692
     81  N          2.7010   -8.8720   20.7540 N.3    85  LEU85      -0.1231
     82  CA         1.8100   -8.3890   21.7910 C.3    85  LEU85       0.1693
     83  C          1.9650   -6.9030   22.0390 C.2    85  LEU85       0.2592
     84  O          2.9330   -6.2840   21.6890 O.2    85  LEU85      -0.2718
     85  CB         2.0540   -9.1820   23.0650 C.3    85  LEU85       0.0284
     86  CG         1.7000  -10.6970   23.0210 C.3    85  LEU85       0.0019
     87  CD1        2.5210  -11.4590   24.0240 C.3    85  LEU85       0.0001
     88  CD2        0.2530  -10.9280   23.3570 C.3    85  LEU85       0.0001
     89  N          0.9630   -6.3560   22.6760 N.am   86  GLU86      -0.1966
     90  CA         0.9450   -4.9940   23.0940 C.3    86  GLU86       0.1733
     91  C          2.0530   -4.7150   24.0670 C.2    86  GLU86       0.2616
     92  O          2.2330   -5.4090   25.0070 O.2    86  GLU86      -0.2715
     93  CB        -0.4030   -4.7240   23.7460 C.3    86  GLU86       0.0429
     94  CG        -0.7250   -3.2950   24.1350 C.3    86  GLU86       0.1163
     95  CD        -2.0510   -3.1980   24.8910 C.2    86  GLU86       0.3649
     96  OE1       -2.6880   -4.2270   25.1560 O.co2  86  GLU86      -0.2457
     97  OE2       -2.4930   -2.0950   25.2490 O.co2  86  GLU86      -0.2457
     98  N          2.7580   -3.6250   23.8380 N.am   87  TYR87      -0.1960
     99  CA         3.9190   -3.2910   24.5990 C.3    87  TYR87       0.1771
    100  C          3.4160   -2.4880   25.7660 C.2    87  TYR87       0.2620
    101  O          2.6450   -1.5430   25.5970 O.2    87  TYR87      -0.2715
    102  CB         4.9130   -2.5290   23.7170 C.3    87  TYR87       0.0574
    103  CG         6.0820   -1.9600   24.4820 C.ar   87  TYR87      -0.0198
    104  CD1        6.7520   -2.7300   25.4130 C.ar   87  TYR87      -0.0009
    105  CD2        6.5090   -0.6670   24.2770 C.ar   87  TYR87      -0.0009
    106  CE1        7.8100   -2.2430   26.1170 C.ar   87  TYR87       0.0417
    107  CE2        7.5720   -0.1550   24.9700 C.ar   87  TYR87       0.0417
    108  CZ         8.2090   -0.9500   25.9080 C.ar   87  TYR87       0.1957
    109  OH         9.2630   -0.4830   26.6520 O.3    87  TYR87      -0.2866
    110  N          3.8140   -2.8950   26.9560 N.am   88  CYS88      -0.1954
    111  CA         3.3970   -2.2360   28.1680 C.3    88  CYS88       0.1828
    112  C          4.6220   -1.6730   28.8630 C.2    88  CYS88       0.2467
    113  O          5.2570   -2.3740   29.6820 O.2    88  CYS88      -0.2730
    114  CB         2.6850   -3.2190   29.0890 C.3    88  CYS88       0.0996
    115  SG         1.1890   -3.9700   28.4080 S.3    88  CYS88      -0.0797
    116  N          4.9670   -0.3910   28.5540 N.am   89  PRO89      -0.2726
    117  CA         6.2640    0.0430   29.0760 C.3    89  PRO89       0.1402
    118  C          6.3990    0.2330   30.5930 C.2    89  PRO89       0.2269
    119  O          7.5160    0.4030   31.0920 O.2    89  PRO89      -0.2865
    120  CB         6.5000    1.3790   28.3470 C.3    89  PRO89       0.0296
    121  CG         5.1490    1.8800   28.0340 C.3    89  PRO89       0.0237
    122  CD         4.4000    0.6280   27.6330 C.3    89  PRO89       0.0939
    123  N          5.8490   -1.9200   33.0130 N.3    91  GLY91      -0.1210
    124  CA         6.3200   -3.0650   33.7610 C.3    91  GLY91       0.1956
    125  C          5.2620   -3.6100   34.6890 C.2    91  GLY91       0.2611
    126  O          4.1160   -3.1740   34.7080 O.2    91  GLY91      -0.2717
    127  N          5.6880   -4.5790   35.4690 N.am   92  GLU92      -0.1979
    128  CA         4.8320   -5.2850   36.3980 C.3    92  GLU92       0.1602
    129  C          4.3010   -4.4370   37.5420 C.2    92  GLU92       0.2287
    130  O          4.9530   -3.5460   38.0330 O.2    92  GLU92      -0.2864
    131  CB         5.6220   -6.4650   36.9620 C.3    92  GLU92       0.0415
    132  CG         5.9930   -7.5110   35.9190 C.3    92  GLU92       0.1163
    133  CD         6.7890   -8.6850   36.5010 C.2    92  GLU92       0.3649
    134  OE1        6.9140   -8.8130   37.7290 O.co2  92  GLU92      -0.2457
    135  OE2        7.3200   -9.4990   35.7330 O.co2  92  GLU92      -0.2457
    136  N         -1.7720  -12.6640   40.0100 N.3   133  LYS133     -0.1245
    137  CA        -0.7300  -12.1910   40.9220 C.3   133  LYS133      0.1561
    138  C         -0.0980  -10.9680   40.2710 C.2   133  LYS133      0.2260
    139  O         -0.2910  -10.7690   39.0620 O.2   133  LYS133     -0.2867
    140  CB         0.3380  -13.2420   41.1440 C.3   133  LYS133      0.0271
    141  CG         0.9370  -13.7690   39.8620 C.3   133  LYS133      0.0035
    142  CD         2.1110  -14.6490   40.1900 C.3   133  LYS133      0.0206
    143  CE         2.2010  -15.7470   39.1720 C.3   133  LYS133      0.1093
    144  NZ         3.6000  -15.9000   38.7680 N.3   133  LYS133     -0.1314
    145  N          2.8620  -10.0170   39.2980 N.3   135  GLU135     -0.1231
    146  CA         3.7670  -10.2580   38.1780 C.3   135  GLU135      0.1699
    147  C          3.0510  -10.3550   36.8480 C.2   135  GLU135      0.2592
    148  O          3.6830  -10.2090   35.8100 O.2   135  GLU135     -0.2718
    149  CB         4.4580  -11.6010   38.3550 C.3   135  GLU135      0.0402
    150  CG         5.4370  -11.6450   39.5180 C.3   135  GLU135      0.1161
    151  CD         4.7700  -11.8620   40.8920 C.2   135  GLU135      0.3649
    152  OE1        3.5330  -12.0000   41.0150 O.co2 135  GLU135     -0.2457
    153  OE2        5.4970  -11.8950   41.8890 O.co2 135  GLU135     -0.2457
    154  N          1.7550  -10.6990   36.8910 N.am  136  ASN136     -0.1974
    155  CA         0.9270  -10.9000   35.6860 C.3   136  ASN136      0.1688
    156  C          0.0420   -9.7060   35.3410 C.2   136  ASN136      0.2292
    157  O         -0.9100   -9.8180   34.5960 O.2   136  ASN136     -0.2864
    158  CB         0.0870  -12.1550   35.8500 C.3   136  ASN136      0.1181
    159  CG         0.9160  -13.4190   35.6690 C.2   136  ASN136      0.2629
    160  OD1        1.9910  -13.3710   35.1260 O.2   136  ASN136     -0.2716
    161  ND2        0.4360  -14.5290   36.1580 N.am  136  ASN136     -0.0877
    162  N          0.3510   -5.6780   34.1830 N.3   138  LEU138     -0.1245
    163  CA         1.3060   -4.7150   33.6420 C.3   138  LEU138      0.1561
    164  C          0.6740   -3.3550   33.4120 C.2   138  LEU138      0.2260
    165  O         -0.4710   -3.2700   33.0660 O.2   138  LEU138     -0.2867
    166  CB         1.8880   -5.2310   32.3320 C.3   138  LEU138      0.0270
    167  CG         2.6220   -6.5590   32.3260 C.3   138  LEU138      0.0019
    168  CD1        3.0600   -6.8690   30.9110 C.3   138  LEU138      0.0001
    169  CD2        3.8030   -6.5980   33.2650 C.3   138  LEU138      0.0001
    170  N         -1.9820  -10.3740   31.7260 N.3   148  ILE148     -0.1231
    171  CA        -1.1620  -11.1750   30.8420 C.3   148  ILE148      0.1692
    172  C         -1.1120  -12.6090   31.3660 C.2   148  ILE148      0.2592
    173  O         -1.6920  -12.9320   32.4390 O.2   148  ILE148     -0.2718
    174  CB         0.2720  -10.5950   30.7190 C.3   148  ILE148      0.0266
    175  CG1        1.0050  -10.5890   32.0690 C.3   148  ILE148      0.0019
    176  CG2        0.1910   -9.1800   30.1540 C.3   148  ILE148      0.0020
    177  CD1        2.4600  -11.0000   31.9980 C.3   148  ILE148      0.0001
    178  N         -0.4160  -13.4520   30.6100 N.am  149  ASP149     -0.1960
    179  CA        -0.0710  -14.8320   30.9900 C.3   149  ASP149      0.1840
    180  C         -1.2120  -15.8000   31.1880 C.2   149  ASP149      0.2622
    181  O         -1.4850  -16.2550   32.3040 O.2   149  ASP149     -0.2715
    182  CB         0.8460  -14.8940   32.1880 C.3   149  ASP149      0.1450
    183  CG         1.9520  -15.9060   31.9900 C.2   149  ASP149      0.3671
    184  OD1        1.6790  -16.9450   31.3380 O.co2 149  ASP149     -0.2456
    185  OD2        3.0970  -15.6100   32.4230 O.co2 149  ASP149     -0.2456
    186  N         -1.7800  -16.1880   30.0510 N.am  150  PHE150     -0.1974
    187  CA        -2.9850  -16.9860   29.9520 C.3   150  PHE150      0.1639
    188  C         -2.7020  -18.4820   29.7340 C.2   150  PHE150      0.2290
    189  O         -3.5620  -19.2130   29.2940 O.2   150  PHE150     -0.2864
    190  CB        -3.8150  -16.4150   28.8170 C.3   150  PHE150      0.0560
    191  CG        -4.4250  -15.0920   29.1580 C.ar  150  PHE150     -0.0200
    192  CD1       -5.6500  -15.0460   29.7930 C.ar  150  PHE150     -0.0042
    193  CD2       -3.7470  -13.9050   28.9260 C.ar  150  PHE150     -0.0042
    194  CE1       -6.2140  -13.8530   30.1310 C.ar  150  PHE150     -0.0003
    195  CE2       -4.3130  -12.7040   29.2830 C.ar  150  PHE150     -0.0003
    196  CZ        -5.5530  -12.6790   29.8850 C.ar  150  PHE150     -0.0000
@<TRIPOS>BOND
     1    73    74    1
     2    74    75    1
     3    74    77    1
     4    75    76    2
     5    81    82    1
     6    78    77    1
     7    78    79    1
     8    44    43    2
     9    84    83    2
    10    39    38    2
    11    82    83    1
    12    82    85    1
    13    36    37    1
    14    83    89   am
    15    38    37    1
    16    41    42    1
    17    43    42    1
    18    62    61    2
    19    61    60    1
    20    89    90    1
    21    37    40    1
    22    79    80    1
    23    86    85    1
    24    86    88    1
    25    86    87    1
    26    90    93    1
    27    90    91    1
    28    42    45    1
    29    63    60    1
    30    63    64    1
    31   102   103    1
    32   102    99    1
    33    93    94    1
    34    98    91   am
    35    98    99    1
    36    60    59    1
    37    45    46    1
    38    91    92    2
    39    94    95    1
    40   105   103   ar
    41   105   107   ar
    42   103   104   ar
    43    65    64    1
    44    99   100    1
    45    52    53    2
    46    52    51    1
    47    95    96   ar
    48    95    97   ar
    49    64    66    1
    50   107   108   ar
    51    46    47    1
    52    31    30    1
    53    31    32    2
    54    70    69    2
    55    69    68    1
    56   104   106   ar
    57   101   100    2
    58    50    51    1
    59    47    48    1
    60   100   110   am
    61    30    29    1
    62    30    33    1
    63    51    54    1
    64   108   106   ar
    65   108   109    1
    66    54    55    1
    67    34    33    1
    68    72    71    1
    69    55    56    1
    70     8     6    1
    71    57    56   ar
    72    48    49    1
    73    68    71    1
    74    68    67    1
    75     6     5    1
    76    56    58   ar
    77    33    35    1
    78    28    25    1
    79     7     5    1
    80   110   111    1
    81     1     2    1
    82    25    26    1
    83    25    24    1
    84    26    27    2
    85   122   121    1
    86   122   116    1
    87     5     2    1
    88   121   120    1
    89   111   112    1
    90   111   114    1
    91     2     3    1
    92   120   117    1
    93   115   114    1
    94   116   112   am
    95   116   117    1
    96   190   191    1
    97   190   187    1
    98   112   113    2
    99    12    11    2
   100   193   191   ar
   101   193   195   ar
   102   117   118    1
   103   191   192   ar
   104     9     3   am
   105     9    10    1
   106   195   196   ar
   107   189   188    2
   108     3     4    2
   109   188   187    1
   110   192   194   ar
   111    19    17    1
   112   196   194   ar
   113   187   186    1
   114    11    10    1
   115    11    13   am
   116   186   180   am
   117   176   174    1
   118   118   119    2
   119   178   179    1
   120   178   172   am
   121   174   171    1
   122   174   175    1
   123   171   172    1
   124   171   170    1
   125    14    17    1
   126    14    13    1
   127    14    15    1
   128   168   167    1
   129    17    18    1
   130   179   180    1
   131   179   182    1
   132   180   181    2
   133   184   183   ar
   134   172   173    2
   135    20    15   am
   136    20    21    1
   137    23    22    2
   138    15    16    2
   139   183   182    1
   140   183   185   ar
   141   177   175    1
   142    22    21    1
   143   167   166    1
   144   167   169    1
   145   166   163    1
   146   123   124    1
   147   165   164    2
   148   164   163    1
   149   163   162    1
   150   124   125    1
   151   157   156    2
   152   125   126    2
   153   125   127   am
   154   160   159    2
   155   156   155    1
   156   127   128    1
   157   159   158    1
   158   159   161   am
   159   155   158    1
   160   155   154    1
   161   135   133   ar
   162   148   147    2
   163   132   133    1
   164   132   131    1
   165   128   131    1
   166   128   129    1
   167   133   134   ar
   168   147   154   am
   169   147   146    1
   170   129   130    2
   171   146   149    1
   172   146   145    1
   173   149   150    1
   174   144   143    1
   175   139   138    2
   176   143   142    1
   177   150   151    1
   178   141   142    1
   179   141   140    1
   180   136   137    1
   181   138   137    1
   182   151   152   ar
   183   151   153   ar
   184   137   140    1
