@<TRIPOS>MOLECULE
tmp/4cqjB00.pdb
 99 101 0 0 0
SMALL
GASTEIGER

@<TRIPOS>ATOM
      1  N         23.2050   22.5950    6.7060 N.3     9  ASP9       -0.1225
      2  CA        21.8770   22.6230    6.1180 C.3     9  ASP9        0.1805
      3  C         20.8790   22.1140    7.1600 C.2     9  ASP9        0.2597
      4  O         19.7370   21.7870    6.8250 O.2     9  ASP9       -0.2718
      5  CB        21.8400   21.8070    4.8100 C.3     9  ASP9        0.1424
      6  CG        21.9860   20.2950    5.0180 C.2     9  ASP9        0.3668
      7  OD1       22.5090   19.8390    6.0640 O.co2   9  ASP9       -0.2456
      8  OD2       21.5780   19.5490    4.0930 O.co2   9  ASP9       -0.2456
      9  N         21.3220   22.0780    8.4230 N.am   10  LEU10      -0.1979
     10  CA        20.5410   21.4730    9.5020 C.3    10  LEU10       0.1596
     11  C         19.3800   22.3100    9.9760 C.2    10  LEU10       0.2287
     12  O         18.5350   21.8220   10.7080 O.2    10  LEU10      -0.2864
     13  CB        21.4450   21.1510   10.7000 C.3    10  LEU10       0.0297
     14  CG        22.5190   20.0990   10.4090 C.3    10  LEU10       0.0022
     15  CD1       23.4990   19.9680   11.5740 C.3    10  LEU10       0.0001
     16  CD2       21.8670   18.7530   10.0960 C.3    10  LEU10       0.0001
     17  N         18.6640   22.4690    1.4330 N.3    42  PRO42      -0.2102
     18  CA        19.2780   21.1600    1.6370 C.3    42  PRO42       0.1504
     19  C         19.7700   20.5700    0.3330 C.2    42  PRO42       0.2575
     20  O         19.0970   20.7050   -0.6940 O.2    42  PRO42      -0.2718
     21  CB        18.1440   20.3210    2.1880 C.3    42  PRO42       0.0282
     22  CG        17.2730   21.3140    2.8750 C.3    42  PRO42       0.0208
     23  CD        17.3230   22.5450    2.0210 C.3    42  PRO42       0.0893
     24  N         20.9800   20.0060    0.3770 N.am   43  TRP43      -0.1977
     25  CA        21.5660   19.2010   -0.7110 C.3    43  TRP43       0.1640
     26  C         22.1200   20.0210   -1.8750 C.2    43  TRP43       0.2290
     27  O         22.7100   19.4530   -2.7980 O.2    43  TRP43      -0.2864
     28  CB        20.5770   18.1170   -1.2010 C.3    43  TRP43       0.0576
     29  CG        19.8110   17.4860   -0.0700 C.ar   43  TRP43       0.0006
     30  CD1       20.3350   16.9170    1.0480 C.ar   43  TRP43       0.0946
     31  CD2       18.3910   17.4200    0.0780 C.ar   43  TRP43       0.0152
     32  NE1       19.3310   16.4800    1.8770 N.ar   43  TRP43      -0.2442
     33  CE2       18.1270   16.7760    1.3040 C.ar   43  TRP43       0.0810
     34  CE3       17.3170   17.8500   -0.7030 C.ar   43  TRP43       0.0012
     35  CZ2       16.8330   16.5410    1.7620 C.ar   43  TRP43       0.0191
     36  CZ3       16.0410   17.6290   -0.2470 C.ar   43  TRP43       0.0001
     37  CH2       15.8020   16.9710    0.9740 C.ar   43  TRP43       0.0015
     38  N         25.0380   16.9570    3.7920 N.3    70  TYR70      -0.1228
     39  CA        25.5180   15.5860    3.7250 C.3    70  TYR70       0.1721
     40  C         24.4630   14.5980    3.1950 C.2    70  TYR70       0.2437
     41  O         24.0840   13.6550    3.8720 O.2    70  TYR70      -0.2733
     42  CB        26.0440   15.1840    5.1200 C.3    70  TYR70       0.0547
     43  CG        27.3850   14.4940    5.0660 C.ar   70  TYR70      -0.0200
     44  CD1       27.5560   13.3420    4.3050 C.ar   70  TYR70      -0.0009
     45  CD2       28.4730   14.9820    5.7630 C.ar   70  TYR70      -0.0009
     46  CE1       28.7730   12.7010    4.2340 C.ar   70  TYR70       0.0417
     47  CE2       29.7060   14.3410    5.6990 C.ar   70  TYR70       0.0417
     48  CZ        29.8450   13.2070    4.9270 C.ar   70  TYR70       0.1957
     49  OH        31.0530   12.5610    4.8440 O.3    70  TYR70      -0.2866
     50  N         23.9900   14.8030    1.9590 N.am   71  PRO71      -0.2729
     51  CA        22.9890   13.8990    1.3920 C.3    71  PRO71       0.1401
     52  C         23.3900   12.4150    1.3650 C.2    71  PRO71       0.2269
     53  O         22.5170   11.5410    1.3660 O.2    71  PRO71      -0.2865
     54  CB        22.7950   14.4170   -0.0410 C.3    71  PRO71       0.0296
     55  CG        23.8320   15.4350   -0.2820 C.3    71  PRO71       0.0237
     56  CD        24.3010   15.9210    1.0550 C.3    71  PRO71       0.0939
     57  N         24.8310   10.8740    3.7850 N.3    73  THR73      -0.1218
     58  CA        24.9410   10.3800    5.1820 C.3    73  THR73       0.1862
     59  C         24.5640    8.8880    5.2570 C.2    73  THR73       0.2287
     60  O         23.6830    8.4070    4.5320 O.2    73  THR73      -0.2866
     61  CB        24.0570   11.2000    6.1510 C.3    73  THR73       0.1770
     62  OG1       24.2180   10.7190    7.4930 O.3    73  THR73      -0.2211
     63  CG2       22.5740   11.1230    5.7550 C.3    73  THR73       0.0375
     64  N         21.8670    8.5400    9.8590 N.3   148  THR148     -0.1203
     65  CA        21.2230    9.7390    9.3590 C.3   148  THR148      0.1994
     66  C         21.8490   11.0250    9.8850 C.2   148  THR148      0.2618
     67  O         21.3180   12.0950    9.5990 O.2   148  THR148     -0.2717
     68  CB        19.7140    9.7780    9.6930 C.3   148  THR148      0.1784
     69  OG1       19.5230    9.6900   11.1090 O.3   148  THR148     -0.2211
     70  CG2       18.9830    8.6540    8.9930 C.3   148  THR148      0.0376
     71  N         23.0070   10.9860   10.5560 N.am  149  PHE149     -0.1961
     72  CA        23.6080   12.2670   10.9800 C.3   149  PHE149      0.1771
     73  C         25.1170   12.4340   10.7450 C.2   149  PHE149      0.2620
     74  O         25.8280   12.9360   11.6050 O.2   149  PHE149     -0.2715
     75  CB        23.2200   12.5140   12.4380 C.3   149  PHE149      0.0574
     76  CG        23.0910   13.9570   12.8240 C.ar  149  PHE149     -0.0200
     77  CD1       23.5380   14.9850   12.0080 C.ar  149  PHE149     -0.0042
     78  CD2       22.5290   14.2790   14.0510 C.ar  149  PHE149     -0.0042
     79  CE1       23.4100   16.2970   12.4020 C.ar  149  PHE149     -0.0003
     80  CE2       22.3980   15.5920   14.4480 C.ar  149  PHE149     -0.0003
     81  CZ        22.8520   16.6030   13.6260 C.ar  149  PHE149     -0.0000
     82  N         25.6130   12.0580    9.5640 N.am  150  TYR150     -0.1960
     83  CA        27.0420   12.2540    9.2560 C.3   150  TYR150      0.1771
     84  C         27.5120   13.7070    9.3790 C.2   150  TYR150      0.2620
     85  O         28.6930   13.9450    9.5650 O.2   150  TYR150     -0.2715
     86  CB        27.3970   11.7250    7.8580 C.3   150  TYR150      0.0574
     87  CG        27.6470   10.2430    7.7720 C.ar  150  TYR150     -0.0198
     88  CD1       27.1520    9.3510    8.7270 C.ar  150  TYR150     -0.0009
     89  CD2       28.3700    9.7090    6.6960 C.ar  150  TYR150     -0.0009
     90  CE1       27.3870    7.9720    8.6240 C.ar  150  TYR150      0.0417
     91  CE2       28.5980    8.3390    6.5740 C.ar  150  TYR150      0.0417
     92  CZ        28.1100    7.4730    7.5450 C.ar  150  TYR150      0.1957
     93  OH        28.3440    6.1290    7.4230 O.3   150  TYR150     -0.2866
     94  N         26.6120   14.6740    9.2410 N.am  151  SER151     -0.1950
     95  CA        26.9680   16.0910    9.4580 C.3   151  SER151      0.1924
     96  C         27.5530   16.2900   10.8490 C.2   151  SER151      0.2314
     97  O         28.4680   17.0690   11.0350 O.2   151  SER151     -0.2863
     98  CB        25.7540   17.0080    9.2760 C.3   151  SER151      0.2116
     99  OG        25.5150   17.3230    7.9020 O.3   151  SER151     -0.2180
@<TRIPOS>BOND
     1    27    26    2
     2    26    25    1
     3    28    25    1
     4    28    29    1
     5    25    24    1
     6    34    36   ar
     7    34    31   ar
     8    20    19    2
     9    55    54    1
    10    55    56    1
    11    36    37   ar
    12    29    31   ar
    13    29    30   ar
    14    54    51    1
    15    31    33   ar
    16    19    24   am
    17    19    18    1
    18    37    35   ar
    19    30    32   ar
    20    56    50    1
    21    33    35   ar
    22    33    32   ar
    23    52    53    2
    24    52    51    1
    25    51    50    1
    26    17    18    1
    27    17    23    1
    28    18    21    1
    29    50    40   am
    30    23    22    1
    31    21    22    1
    32    40    39    1
    33    40    41    2
    34    39    38    1
    35    39    42    1
    36    57    58    1
    37     8     6   ar
    38    46    44   ar
    39    46    48   ar
    40    44    43   ar
    41    60    59    2
    42     5     6    1
    43     5     2    1
    44    49    48    1
    45    48    47   ar
    46     6     7   ar
    47    43    42    1
    48    43    45   ar
    49    58    59    1
    50    58    61    1
    51    47    45   ar
    52    63    61    1
    53     2     1    1
    54     2     3    1
    55    61    62    1
    56    91    89   ar
    57    91    92   ar
    58    89    87   ar
    59     4     3    2
    60     3     9   am
    61    93    92    1
    62    92    90   ar
    63    87    86    1
    64    87    88   ar
    65    86    83    1
    66    99    98    1
    67     9    10    1
    68    90    88   ar
    69    70    68    1
    70    94    84   am
    71    94    95    1
    72    83    84    1
    73    83    82    1
    74    98    95    1
    75    65    68    1
    76    65    64    1
    77    65    66    1
    78    84    85    2
    79    95    96    1
    80    10    11    1
    81    10    13    1
    82    82    73   am
    83    67    66    2
    84    68    69    1
    85    66    71   am
    86    11    12    2
    87    16    14    1
    88    14    13    1
    89    14    15    1
    90    71    72    1
    91    73    72    1
    92    73    74    2
    93    96    97    2
    94    72    75    1
    95    77    79   ar
    96    77    76   ar
    97    79    81   ar
    98    75    76    1
    99    76    78   ar
   100    81    80   ar
   101    78    80   ar
