@<TRIPOS>MOLECULE
tmp/4cqmC00.pdb
 167 158 0 0 0
SMALL
GASTEIGER

@<TRIPOS>ATOM
      1  N          2.9960  -39.7190   65.0370 N.3     6  PHE6       -0.1227
      2  CA         4.3800  -39.2660   64.9840 C.3     6  PHE6        0.1736
      3  C          4.4600  -37.8860   64.3460 C.2     6  PHE6        0.2596
      4  O          3.8390  -37.6340   63.3150 O.2     6  PHE6       -0.2718
      5  CB         5.2470  -40.2630   64.2130 C.3     6  PHE6        0.0547
      6  CG         5.5520  -41.5160   64.9800 C.ar    6  PHE6       -0.0202
      7  CD1        4.6820  -42.5930   64.9520 C.ar    6  PHE6       -0.0042
      8  CD2        6.7100  -41.6160   65.7320 C.ar    6  PHE6       -0.0042
      9  CE1        4.9640  -43.7470   65.6600 C.ar    6  PHE6       -0.0003
     10  CE2        6.9980  -42.7670   66.4410 C.ar    6  PHE6       -0.0003
     11  CZ         6.1230  -43.8330   66.4050 C.ar    6  PHE6       -0.0000
     12  N          5.2270  -36.9940   64.9640 N.am    7  GLY7       -0.1957
     13  CA         5.2910  -35.6160   64.5200 C.3     7  GLY7        0.1869
     14  C          3.9850  -34.9080   64.8190 C.2     7  GLY7        0.2309
     15  O          3.5260  -34.0690   64.0440 O.2     7  GLY7       -0.2863
     16  N          3.3240  -32.9210   67.3810 N.3     9  SER9       -0.1202
     17  CA         3.4930  -31.7620   68.2500 C.3     9  SER9        0.2020
     18  C          3.1980  -30.4690   67.4960 C.2     9  SER9        0.2619
     19  O          2.7270  -29.4940   68.0810 O.2     9  SER9       -0.2717
     20  CB         4.9070  -31.7270   68.8340 C.3     9  SER9        0.2103
     21  OG         5.8830  -31.6420   67.8110 O.3     9  SER9       -0.2182
     22  N          3.4790  -30.4670   66.1960 N.am   10  ARG10      -0.1965
     23  CA         3.2140  -29.3050   65.3520 C.3    10  ARG10       0.1729
     24  C          2.6060  -29.7060   64.0130 C.2    10  ARG10       0.2617
     25  O          2.5990  -30.8830   63.6490 O.2    10  ARG10      -0.2715
     26  CB         4.4960  -28.5050   65.1050 C.3    10  ARG10       0.0348
     27  CG         5.1240  -27.9020   66.3460 C.3    10  ARG10       0.0492
     28  CD         6.2560  -26.9610   65.9730 C.3    10  ARG10       0.2205
     29  NE         7.2050  -27.5830   65.0550 N.pl3  10  ARG10      -0.0865
     30  CZ         8.2530  -28.3050   65.4400 C.cat  10  ARG10       0.5346
     31  NH1        8.4890  -28.5000   66.7300 N.pl3  10  ARG10       0.1354
     32  NH2        9.0650  -28.8330   64.5340 N.pl3  10  ARG10       0.1354
     33  N          2.1000  -28.7130   63.2870 N.am   11  GLY11      -0.1940
     34  CA         1.6060  -28.9090   61.9360 C.3    11  GLY11       0.2014
     35  C          0.4320  -29.8590   61.8060 C.2    11  GLY11       0.2639
     36  O         -0.4850  -29.8540   62.6280 O.2    11  GLY11      -0.2714
     37  N          0.4700  -30.6770   60.7580 N.am   12  ILE12      -0.1963
     38  CA        -0.6060  -31.6120   60.4500 C.3    12  ILE12       0.1727
     39  C         -0.8040  -32.6420   61.5570 C.2    12  ILE12       0.2616
     40  O         -1.9340  -32.9290   61.9520 O.2    12  ILE12      -0.2715
     41  CB        -0.3360  -32.3440   59.1230 C.3    12  ILE12       0.0290
     42  CG1       -0.1670  -31.3310   57.9870 C.3    12  ILE12       0.0022
     43  CG2       -1.4540  -33.3280   58.8130 C.3    12  ILE12       0.0023
     44  CD1        0.3200  -31.9390   56.6960 C.3    12  ILE12       0.0001
     45  N          0.3010  -33.1900   62.0540 N.am   13  GLY13      -0.1955
     46  CA         0.2540  -34.1790   63.1150 C.3    13  GLY13       0.1869
     47  C         -0.4460  -33.6650   64.3580 C.2    13  GLY13       0.2309
     48  O         -1.1800  -34.4010   65.0170 O.2    13  GLY13      -0.2863
     49  N          3.9830  -37.8990   69.6040 N.3    30  ILE30      -0.1231
     50  CA         5.3870  -38.2860   69.5350 C.3    30  ILE30       0.1692
     51  C          6.2210  -37.3070   68.7110 C.2    30  ILE30       0.2592
     52  O          5.8800  -36.9860   67.5720 O.2    30  ILE30      -0.2718
     53  CB         5.5440  -39.7010   68.9440 C.3    30  ILE30       0.0266
     54  CG1        4.7230  -40.7070   69.7540 C.3    30  ILE30       0.0019
     55  CG2        7.0070  -40.1060   68.9160 C.3    30  ILE30       0.0020
     56  CD1        4.8140  -42.1260   69.2430 C.3    30  ILE30       0.0001
     57  N          7.3160  -36.8430   69.3040 N.am   31  ALA31      -0.1966
     58  CA         8.2460  -35.9280   68.6510 C.3    31  ALA31       0.1728
     59  C          9.5790  -35.9450   69.3940 C.2    31  ALA31       0.2616
     60  O          9.6790  -36.5350   70.4670 O.2    31  ALA31      -0.2715
     61  CB         7.6720  -34.5220   68.6070 C.3    31  ALA31       0.0334
     62  N         10.6010  -35.3070   68.8300 N.am   32  ARG32      -0.1963
     63  CA        11.9040  -35.2490   69.4880 C.3    32  ARG32       0.1729
     64  C         11.8230  -34.4250   70.7700 C.2    32  ARG32       0.2616
     65  O         12.1800  -34.9000   71.8480 O.2    32  ARG32      -0.2715
     66  CB        12.9650  -34.6640   68.5510 C.3    32  ARG32       0.0348
     67  CG        13.1810  -35.4620   67.2750 C.3    32  ARG32       0.0492
     68  CD        14.0690  -34.7060   66.2980 C.3    32  ARG32       0.2205
     69  NE        13.4390  -33.4730   65.8330 N.pl3  32  ARG32      -0.0865
     70  CZ        14.0030  -32.6180   64.9870 C.cat  32  ARG32       0.5346
     71  NH1       15.2160  -32.8560   64.5080 N.pl3  32  ARG32       0.1354
     72  NH2       13.3530  -31.5210   64.6190 N.pl3  32  ARG32       0.1354
     73  N         11.3480  -33.1890   70.6470 N.am   33  ASN33      -0.1972
     74  CA        11.1750  -32.3180   71.8030 C.3    33  ASN33       0.1688
     75  C         10.0080  -32.7750   72.6720 C.2    33  ASN33       0.2292
     76  O          8.8540  -32.7420   72.2450 O.2    33  ASN33      -0.2864
     77  CB        10.9640  -30.8700   71.3540 C.3    33  ASN33       0.1181
     78  CG        10.8600  -29.9070   72.5200 C.2    33  ASN33       0.2629
     79  OD1        9.7730  -29.6600   73.0410 O.2    33  ASN33      -0.2716
     80  ND2       11.9940  -29.3540   72.9330 N.am   33  ASN33      -0.0877
     81  N          7.3390  -30.0550   73.6560 N.3    36  GLY36      -0.1225
     82  CA         6.4030  -29.8050   72.5760 C.3    36  GLY36       0.1811
     83  C          5.3750  -30.9100   72.4590 C.2    36  GLY36       0.2280
     84  O          4.2140  -30.6620   72.1310 O.2    36  GLY36      -0.2866
     85  N         10.8120  -39.1270   70.9080 N.3    53  CYS53      -0.1221
     86  CA        11.4180  -40.1060   70.0130 C.3    53  CYS53       0.1808
     87  C         11.9770  -39.4880   68.7370 C.2    53  CYS53       0.2601
     88  O         11.4420  -38.5080   68.2190 O.2    53  CYS53      -0.2717
     89  CB        10.3980  -41.1830   69.6440 C.3    53  CYS53       0.0970
     90  SG        10.9980  -42.3950   68.4450 S.3    53  CYS53      -0.0800
     91  N         13.0580  -40.0770   68.2370 N.am   54  ASP54      -0.1959
     92  CA        13.6050  -39.7070   66.9390 C.3    54  ASP54       0.1840
     93  C         13.3480  -40.8450   65.9570 C.2    54  ASP54       0.2621
     94  O         13.8840  -41.9430   66.1120 O.2    54  ASP54      -0.2715
     95  CB        15.1020  -39.4050   67.0430 C.3    54  ASP54       0.1450
     96  CG        15.6310  -38.6410   65.8400 C.2    54  ASP54       0.3671
     97  OD1       15.1040  -38.8280   64.7230 O.co2  54  ASP54      -0.2456
     98  OD2       16.5800  -37.8480   66.0140 O.co2  54  ASP54      -0.2456
     99  N         12.5230  -40.5770   64.9500 N.am   55  VAL55      -0.1977
    100  CA        12.1280  -41.5990   63.9870 C.3    55  VAL55       0.1596
    101  C         13.2960  -42.0470   63.1110 C.2    55  VAL55       0.2287
    102  O         13.2410  -43.1050   62.4850 O.2    55  VAL55      -0.2864
    103  CB        10.9830  -41.1040   63.0830 C.3    55  VAL55       0.0276
    104  CG1        9.7230  -40.8780   63.9030 C.3    55  VAL55       0.0022
    105  CG2       11.3880  -39.8300   62.3590 C.3    55  VAL55       0.0022
    106  N          3.4910  -38.3470   60.5660 N.3    81  ALA81      -0.1231
    107  CA         3.4940  -36.9590   60.1200 C.3    81  ALA81       0.1694
    108  C          4.7860  -36.2470   60.5080 C.2    81  ALA81       0.2592
    109  O          4.8690  -35.0200   60.4530 O.2    81  ALA81      -0.2718
    110  CB         2.2930  -36.2200   60.6910 C.3    81  ALA81       0.0304
    111  N          5.7920  -37.0220   60.9000 N.am   82  ALA82      -0.1966
    112  CA         7.0840  -36.4620   61.2790 C.3    82  ALA82       0.1728
    113  C          7.9230  -36.1540   60.0440 C.2    82  ALA82       0.2617
    114  O          8.2020  -37.0400   59.2370 O.2    82  ALA82      -0.2715
    115  CB         7.8260  -37.4170   62.1990 C.3    82  ALA82       0.0334
    116  N          8.3250  -34.8950   59.8980 N.am   83  GLY83      -0.1940
    117  CA         9.1110  -34.4860   58.7500 C.3    83  GLY83       0.2014
    118  C          9.8320  -33.1640   58.9250 C.2    83  GLY83       0.2638
    119  O          9.4010  -32.3010   59.6910 O.2    83  GLY83      -0.2714
    120  N         10.9410  -33.0120   58.2080 N.am   84  ILE84      -0.1977
    121  CA        11.7080  -31.7720   58.2100 C.3    84  ILE84       0.1596
    122  C         11.9300  -31.2930   56.7810 C.2    84  ILE84       0.2287
    123  O         12.0090  -32.1000   55.8540 O.2    84  ILE84      -0.2864
    124  CB        13.0690  -31.9420   58.9110 C.3    84  ILE84       0.0276
    125  CG1       13.8390  -33.1160   58.3020 C.3    84  ILE84       0.0022
    126  CG2       12.8770  -32.1490   60.4040 C.3    84  ILE84       0.0022
    127  CD1       15.1810  -33.3680   58.9520 C.3    84  ILE84       0.0001
    128  N         14.5240  -39.0930   58.1680 N.3   104  THR104     -0.1218
    129  CA        13.4010  -38.6160   58.9650 C.3   104  THR104      0.1862
    130  C         12.0780  -38.7630   58.2210 C.2   104  THR104      0.2287
    131  O         11.1180  -39.3290   58.7440 O.2   104  THR104     -0.2866
    132  CB        13.5860  -37.1400   59.3670 C.3   104  THR104      0.1770
    133  OG1       14.7460  -37.0090   60.1970 O.3   104  THR104     -0.2211
    134  CG2       12.3670  -36.6360   60.1240 C.3   104  THR104      0.0375
    135  N          1.7220  -39.3490   56.0570 N.3   131  VAL131     -0.1245
    136  CA         1.5860  -37.9920   55.5420 C.3   131  VAL131      0.1561
    137  C          2.7820  -37.6070   54.6780 C.2   131  VAL131      0.2260
    138  O          3.8940  -37.4340   55.1790 O.2   131  VAL131     -0.2867
    139  CB         1.4350  -36.9670   56.6810 C.3   131  VAL131      0.0252
    140  CG1        1.3140  -35.5610   56.1140 C.3   131  VAL131      0.0019
    141  CG2        0.2270  -37.3060   57.5420 C.3   131  VAL131      0.0019
    142  N         13.4010  -32.8490   49.5320 N.3   146  TYR146     -0.1241
    143  CA        12.1350  -33.0900   50.2110 C.3   146  TYR146      0.1605
    144  C         11.1910  -33.9070   49.3330 C.2   146  TYR146      0.2264
    145  O         10.3850  -34.6900   49.8340 O.2   146  TYR146     -0.2867
    146  CB        11.4800  -31.7660   50.6090 C.3   146  TYR146      0.0534
    147  CG        10.2750  -31.9230   51.5080 C.ar  146  TYR146     -0.0201
    148  CD1       10.4270  -32.2100   52.8590 C.ar  146  TYR146     -0.0009
    149  CD2        8.9870  -31.7800   51.0100 C.ar  146  TYR146     -0.0009
    150  CE1        9.3300  -32.3530   53.6870 C.ar  146  TYR146      0.0417
    151  CE2        7.8830  -31.9210   51.8320 C.ar  146  TYR146      0.0417
    152  CZ         8.0610  -32.2080   53.1690 C.ar  146  TYR146      0.1957
    153  OH         6.9670  -32.3490   53.9920 O.3   146  TYR146     -0.2866
    154  N          0.0600  -25.8010   52.8530 N.3   179  VAL179     -0.1245
    155  CA        -0.5780  -25.6170   54.1500 C.3   179  VAL179      0.1561
    156  C          0.0940  -24.4960   54.9400 C.2   179  VAL179      0.2260
    157  O          1.2450  -24.6290   55.3540 O.2   179  VAL179     -0.2867
    158  CB        -0.5370  -26.9130   54.9820 C.3   179  VAL179      0.0252
    159  CG1       -1.5330  -26.8400   56.1290 C.3   179  VAL179      0.0019
    160  CG2       -0.8170  -28.1250   54.0990 C.3   179  VAL179      0.0019
    161  N          0.9740  -22.2680   58.0990 N.3   181  THR181     -0.1218
    162  CA         1.0760  -22.5460   59.5280 C.3   181  THR181      0.1862
    163  C          1.4040  -21.2760   60.3050 C.2   181  THR181      0.2287
    164  O          0.5060  -20.5820   60.7840 O.2   181  THR181     -0.2866
    165  CB         2.1530  -23.6180   59.8320 C.3   181  THR181      0.1770
    166  OG1        3.4560  -23.0930   59.5510 O.3   181  THR181     -0.2211
    167  CG2        1.9190  -24.8830   59.0070 C.3   181  THR181      0.0375
@<TRIPOS>BOND
     1   144   145    2
     2   144   143    1
     3   142   143    1
     4   143   146    1
     5   146   147    1
     6   149   147   ar
     7   149   151   ar
     8   147   148   ar
     9   151   152   ar
    10   154   155    1
    11   148   150   ar
    12   152   150   ar
    13   152   153    1
    14   160   158    1
    15   155   156    1
    16   155   158    1
    17   137   138    2
    18   137   136    1
    19   156   157    2
    20   158   159    1
    21   136   135    1
    22   136   139    1
    23   123   122    2
    24   140   139    1
    25   139   141    1
    26    44    42    1
    27   122   121    1
    28    42    41    1
    29   161   162    1
    30   128   129    1
    31   120   121    1
    32   120   118   am
    33   121   124    1
    34   130   131    2
    35   130   129    1
    36   125   124    1
    37   125   127    1
    38   117   118    1
    39   117   116    1
    40    43    41    1
    41   124   126    1
    42   118   119    2
    43   129   132    1
    44   167   165    1
    45    41    38    1
    46   114   113    2
    47   132   134    1
    48   132   133    1
    49   162   165    1
    50   162   163    1
    51   166   165    1
    52   116   113   am
    53   113   112    1
    54   107   108    1
    55   107   106    1
    56   107   110    1
    57   163   164    2
    58    38    37    1
    59    38    39    1
    60   109   108    2
    61   108   111   am
    62    37    35   am
    63   111   112    1
    64   112   115    1
    65    39    40    2
    66    39    45   am
    67    35    34    1
    68    35    36    2
    69    34    33    1
    70    45    46    1
    71   105   103    1
    72   102   101    2
    73   103   104    1
    74   103   100    1
    75   101   100    1
    76    46    47    1
    77    33    24   am
    78     4     3    2
    79    25    24    2
    80   100    99    1
    81    24    23    1
    82    15    14    2
    83     5     6    1
    84     5     2    1
    85     3    12   am
    86     3     2    1
    87    47    48    2
    88    71    70    1
    89    13    14    1
    90    13    12    1
    91    32    30    1
    92    72    70    1
    93    97    96   ar
    94    99    93   am
    95     7     6   ar
    96     7     9   ar
    97     6     8   ar
    98     2     1    1
    99    70    69    2
   100    29    30    2
   101    29    28    1
   102    26    23    1
   103    26    27    1
   104    23    22    1
   105    30    31    1
   106     9    11   ar
   107     8    10   ar
   108    69    68    1
   109    96    98   ar
   110    96    95    1
   111    93    94    2
   112    93    92    1
   113    28    27    1
   114    22    18   am
   115    68    67    1
   116    11    10   ar
   117    92    95    1
   118    92    91    1
   119    67    66    1
   120    16    17    1
   121    18    19    2
   122    18    17    1
   123    52    51    2
   124    21    20    1
   125    88    87    2
   126    91    87   am
   127    17    20    1
   128    90    89    1
   129    66    63    1
   130    61    58    1
   131    58    57    1
   132    58    59    1
   133    51    57   am
   134    51    50    1
   135    87    86    1
   136    62    59   am
   137    62    63    1
   138    55    53    1
   139    53    50    1
   140    53    54    1
   141    56    54    1
   142    59    60    2
   143    63    64    1
   144    50    49    1
   145    89    86    1
   146    86    85    1
   147    73    64   am
   148    73    74    1
   149    64    65    2
   150    77    74    1
   151    77    78    1
   152    74    75    1
   153    84    83    2
   154    76    75    2
   155    83    82    1
   156    78    80   am
   157    78    79    2
   158    82    81    1
