@<TRIPOS>MOLECULE
tmp/4cqmK00.pdb
 189 177 0 0 0
SMALL
GASTEIGER

@<TRIPOS>ATOM
      1  N         68.9520  -78.2800    8.7460 N.3     9  GLY9       -0.1225
      2  CA        68.4890  -79.6540    8.7350 C.3     9  GLY9        0.1811
      3  C         68.8450  -80.3230    7.4230 C.2     9  GLY9        0.2280
      4  O         68.0870  -81.1400    6.9010 O.2     9  GLY9       -0.2866
      5  N         71.3690  -82.3160    6.8940 N.3    11  SER11      -0.1202
      6  CA        72.2160  -83.4790    7.1290 C.3    11  SER11       0.2020
      7  C         71.4710  -84.7760    6.8320 C.2    11  SER11       0.2619
      8  O         72.0850  -85.8030    6.5420 O.2    11  SER11      -0.2717
      9  CB        72.7300  -83.4860    8.5710 C.3    11  SER11       0.2103
     10  OG        71.6600  -83.5610    9.4970 O.3    11  SER11      -0.2182
     11  N         70.1440  -84.7210    6.8990 N.am   12  ARG12      -0.1965
     12  CA        69.3190  -85.9050    6.6900 C.3    12  ARG12       0.1729
     13  C         67.9880  -85.5730    6.0240 C.2    12  ARG12       0.2617
     14  O         67.4640  -84.4680    6.1720 O.2    12  ARG12      -0.2715
     15  CB        69.0670  -86.6140    8.0220 C.3    12  ARG12       0.0348
     16  CG        70.1500  -87.6010    8.4220 C.3    12  ARG12       0.0492
     17  CD        70.2590  -87.7090    9.9330 C.3    12  ARG12       0.2205
     18  NE        68.9570  -87.6060   10.5840 N.pl3  12  ARG12      -0.0865
     19  CZ        68.7250  -86.8800   11.6730 C.cat  12  ARG12       0.5346
     20  NH1       69.7100  -86.1940   12.2360 N.pl3  12  ARG12       0.1354
     21  NH2       67.5090  -86.8400   12.2000 N.pl3  12  ARG12       0.1354
     22  N         67.4530  -86.5410    5.2860 N.am   13  GLY13      -0.1940
     23  CA        66.1320  -86.4260    4.6960 C.3    13  GLY13       0.2014
     24  C         66.0000  -85.3970    3.5900 C.2    13  GLY13       0.2639
     25  O         66.8370  -85.3220    2.6900 O.2    13  GLY13      -0.2714
     26  N         64.9330  -84.6070    3.6650 N.am   14  ILE14      -0.1963
     27  CA        64.6210  -83.6090    2.6470 C.3    14  ILE14       0.1727
     28  C         65.7170  -82.5560    2.5250 C.2    14  ILE14       0.2616
     29  O         66.1710  -82.2490    1.4230 O.2    14  ILE14      -0.2715
     30  CB        63.2790  -82.9100    2.9470 C.3    14  ILE14       0.0290
     31  CG1       62.1410  -83.9330    2.9690 C.3    14  ILE14       0.0022
     32  CG2       63.0000  -81.8190    1.9250 C.3    14  ILE14       0.0023
     33  CD1       60.7760  -83.3320    3.2330 C.3    14  ILE14       0.0001
     34  N         66.1400  -82.0110    3.6610 N.am   15  GLY15      -0.1955
     35  CA        67.1800  -80.9990    3.6830 C.3    15  GLY15       0.1869
     36  C         68.4830  -81.4880    3.0820 C.2    15  GLY15       0.2309
     37  O         69.2360  -80.7110    2.4950 O.2    15  GLY15      -0.2863
     38  N         73.5390  -77.1990    7.8710 N.3    32  ILE32      -0.1231
     39  CA        73.4110  -76.8610    9.2840 C.3    32  ILE32       0.1692
     40  C         72.5020  -77.8310   10.0350 C.2    32  ILE32       0.2592
     41  O         71.3960  -78.1370    9.5900 O.2    32  ILE32      -0.2718
     42  CB        72.8710  -75.4290    9.4720 C.3    32  ILE32       0.0266
     43  CG1       73.6950  -74.4310    8.6570 C.3    32  ILE32       0.0019
     44  CG2       72.8790  -75.0450   10.9410 C.3    32  ILE32       0.0020
     45  CD1       72.9250  -73.7780    7.5350 C.3    32  ILE32       0.0001
     46  N         72.9860  -78.3070   11.1780 N.am   33  ALA33      -0.1966
     47  CA        72.2190  -79.1810   12.0570 C.3    33  ALA33       0.1728
     48  C         72.7890  -79.0990   13.4710 C.2    33  ALA33       0.2616
     49  O         73.7030  -78.3170   13.7270 O.2    33  ALA33      -0.2715
     50  CB        72.2440  -80.6130   11.5480 C.3    33  ALA33       0.0334
     51  N         72.2520  -79.8950   14.3880 N.am   34  ARG34      -0.1963
     52  CA        72.7920  -79.9420   15.7430 C.3    34  ARG34       0.1729
     53  C         74.0240  -80.8370   15.7710 C.2    34  ARG34       0.2616
     54  O         75.1090  -80.4050   16.1610 O.2    34  ARG34      -0.2715
     55  CB        71.7420  -80.4430   16.7360 C.3    34  ARG34       0.0348
     56  CG        70.4580  -79.6300   16.7440 C.3    34  ARG34       0.0492
     57  CD        69.3810  -80.3160   17.5680 C.3    34  ARG34       0.2205
     58  NE        69.0440  -81.6310   17.0320 N.pl3  34  ARG34      -0.0865
     59  CZ        68.1420  -82.4480   17.5650 C.cat  34  ARG34       0.5346
     60  NH1       67.4800  -82.0870   18.6560 N.pl3  34  ARG34       0.1354
     61  NH2       67.9010  -83.6270   17.0080 N.pl3  34  ARG34       0.1354
     62  N         73.8490  -82.0860   15.3510 N.am   35  ASN35      -0.1972
     63  CA        74.9580  -83.0250   15.2510 C.3    35  ASN35       0.1688
     64  C         75.9050  -82.6110   14.1290 C.2    35  ASN35       0.2292
     65  O         75.6090  -82.8110   12.9520 O.2    35  ASN35      -0.2864
     66  CB        74.4370  -84.4450   15.0170 C.3    35  ASN35       0.1181
     67  CG        75.4800  -85.5110   15.3090 C.2    35  ASN35       0.2629
     68  OD1       76.6830  -85.2590   15.2400 O.2    35  ASN35      -0.2716
     69  ND2       75.0180  -86.7120   15.6360 N.am   35  ASN35      -0.0877
     70  N         77.1110  -85.1920   11.5310 N.3    38  GLY38      -0.1225
     71  CA        76.1860  -85.4800   10.4520 C.3    38  GLY38       0.1811
     72  C         76.2290  -84.4120    9.3770 C.2    38  GLY38       0.2280
     73  O         76.0880  -84.7050    8.1900 O.2    38  GLY38      -0.2866
     74  N         74.2770  -76.0540   14.8900 N.3    55  CYS55      -0.1221
     75  CA        73.3140  -75.0950   15.4210 C.3    55  CYS55       0.1808
     76  C         72.0000  -75.7360   15.8580 C.2    55  CYS55       0.2601
     77  O         71.4400  -76.5750   15.1540 O.2    55  CYS55      -0.2717
     78  CB        73.0230  -74.0140   14.3790 C.3    55  CYS55       0.0970
     79  SG        71.5990  -72.9710   14.7610 S.3    55  CYS55      -0.0800
     80  N         71.5170  -75.3280   17.0270 N.am   56  ASP56      -0.1959
     81  CA        70.1800  -75.6880   17.4790 C.3    56  ASP56       0.1840
     82  C         69.2460  -74.5170   17.1930 C.2    56  ASP56       0.2622
     83  O         69.2890  -73.4980   17.8820 O.2    56  ASP56      -0.2715
     84  CB        70.1770  -76.0350   18.9710 C.3    56  ASP56       0.1450
     85  CG        68.8920  -76.7190   19.4150 C.2    56  ASP56       0.3671
     86  OD1       67.8800  -76.6380   18.6870 O.co2  56  ASP56      -0.2456
     87  OD2       68.8940  -77.3370   20.5000 O.co2  56  ASP56      -0.2456
     88  N         68.4040  -74.6670   16.1750 N.am   57  VAL57      -0.1963
     89  CA        67.5480  -73.5770   15.7140 C.3    57  VAL57       0.1727
     90  C         66.5060  -73.1630   16.7510 C.2    57  VAL57       0.2616
     91  O         65.8660  -72.1220   16.6120 O.2    57  VAL57      -0.2715
     92  CB        66.8220  -73.9490   14.4050 C.3    57  VAL57       0.0290
     93  CG1       67.8300  -74.2820   13.3150 C.3    57  VAL57       0.0023
     94  CG2       65.8700  -75.1120   14.6350 C.3    57  VAL57       0.0023
     95  N         66.3430  -73.9760   17.7900 N.am   58  ALA58      -0.1977
     96  CA        65.3970  -73.6740   18.8580 C.3    58  ALA58       0.1597
     97  C         65.9760  -72.6550   19.8340 C.2    58  ALA58       0.2287
     98  O         65.3030  -72.2290   20.7730 O.2    58  ALA58      -0.2864
     99  CB        65.0050  -74.9470   19.5930 C.3    58  ALA58       0.0319
    100  N         64.5070  -76.7910    6.7360 N.3    83  ALA83      -0.1231
    101  CA        64.0840  -78.1840    6.6840 C.3    83  ALA83       0.1694
    102  C         64.3990  -78.9070    7.9890 C.2    83  ALA83       0.2592
    103  O         64.3260  -80.1330    8.0620 O.2    83  ALA83      -0.2718
    104  CB        64.7440  -78.8940    5.5130 C.3    83  ALA83       0.0304
    105  N         64.7570  -78.1430    9.0150 N.am   84  ALA84      -0.1966
    106  CA        65.0310  -78.7170   10.3250 C.3    84  ALA84       0.1728
    107  C         63.7270  -78.9540   11.0770 C.2    84  ALA84       0.2617
    108  O         62.9180  -78.0400   11.2380 O.2    84  ALA84      -0.2715
    109  CB        65.9530  -77.8110   11.1250 C.3    84  ALA84       0.0334
    110  N         63.5240  -80.1860   11.5320 N.am   85  GLY85      -0.1940
    111  CA        62.3120  -80.5300   12.2500 C.3    85  GLY85       0.2014
    112  C         62.3830  -81.8710   12.9520 C.2    85  GLY85       0.2639
    113  O         63.2120  -82.7190   12.6230 O.2    85  GLY85      -0.2714
    114  N         61.5030  -82.0560   13.9310 N.am   86  ILE86      -0.1963
    115  CA        61.4290  -83.3020   14.6820 C.3    86  ILE86       0.1727
    116  C         59.9930  -83.8120   14.7170 C.2    86  ILE86       0.2616
    117  O         59.0500  -83.0410   14.5440 O.2    86  ILE86      -0.2715
    118  CB        61.9430  -83.1260   16.1210 C.3    86  ILE86       0.0290
    119  CG1       61.1820  -81.9970   16.8200 C.3    86  ILE86       0.0022
    120  CG2       63.4370  -82.8400   16.1220 C.3    86  ILE86       0.0023
    121  CD1       61.6410  -81.7340   18.2360 C.3    86  ILE86       0.0001
    122  N         59.8290  -85.1120   14.9380 N.am   87  ASN87      -0.1972
    123  CA        58.4980  -85.7010   14.9820 C.3    87  ASN87       0.1688
    124  C         58.4190  -86.9180   15.8940 C.2    87  ASN87       0.2292
    125  O         59.1750  -87.8780   15.7390 O.2    87  ASN87      -0.2864
    126  CB        58.0410  -86.0810   13.5720 C.3    87  ASN87       0.1181
    127  CG        56.5920  -86.5360   13.5310 C.2    87  ASN87       0.2629
    128  OD1       55.8310  -86.3160   14.4740 O.2    87  ASN87      -0.2716
    129  ND2       56.2030  -87.1700   12.4300 N.am   87  ASN87      -0.0877
    130  N         61.2180  -76.0970   17.7290 N.3   106  THR106     -0.1218
    131  CA        62.0740  -76.6240   16.6740 C.3   106  THR106      0.1862
    132  C         61.4490  -76.4490   15.2950 C.2   106  THR106      0.2287
    133  O         62.0780  -75.9180   14.3810 O.2   106  THR106     -0.2866
    134  CB        62.3800  -78.1170   16.8930 C.3   106  THR106      0.1770
    135  OG1       63.0500  -78.2900   18.1480 O.3   106  THR106     -0.2211
    136  CG2       63.2630  -78.6510   15.7760 C.3   106  THR106      0.0375
    137  N         60.0640  -75.8370    4.7580 N.3   133  VAL133     -0.1231
    138  CA        59.5260  -77.1780    4.5580 C.3   133  VAL133      0.1692
    139  C         58.4970  -77.5290    5.6280 C.2   133  VAL133      0.2592
    140  O         58.8340  -77.6810    6.8030 O.2   133  VAL133     -0.2718
    141  CB        60.6420  -78.2400    4.5640 C.3   133  VAL133      0.0266
    142  CG1       60.0500  -79.6310    4.3950 C.3   133  VAL133      0.0020
    143  CG2       61.6540  -77.9490    3.4670 C.3   133  VAL133      0.0020
    144  N         57.2400  -77.6550    5.2130 N.am  134  GLY134     -0.1957
    145  CA        56.1640  -78.0050    6.1210 C.3   134  GLY134      0.1869
    146  C         55.6650  -79.4180    5.8910 C.2   134  GLY134      0.2309
    147  O         56.4590  -80.3430    5.7210 O.2   134  GLY134     -0.2863
    148  N         52.6870  -82.1810   15.9070 N.3   148  TYR148     -0.1241
    149  CA        53.4220  -81.9960   14.6630 C.3   148  TYR148      0.1605
    150  C         52.6170  -81.1520   13.6790 C.2   148  TYR148      0.2264
    151  O         53.1750  -80.3330   12.9500 O.2   148  TYR148     -0.2867
    152  CB        53.7720  -83.3510   14.0430 C.3   148  TYR148      0.0534
    153  CG        54.5690  -83.2600   12.7610 C.ar  148  TYR148     -0.0201
    154  CD1       55.9430  -83.0560   12.7870 C.ar  148  TYR148     -0.0009
    155  CD2       53.9490  -83.3860   11.5250 C.ar  148  TYR148     -0.0009
    156  CE1       56.6760  -82.9750   11.6170 C.ar  148  TYR148      0.0417
    157  CE2       54.6730  -83.3070   10.3500 C.ar  148  TYR148      0.0417
    158  CZ        56.0350  -83.1020   10.4020 C.ar  148  TYR148      0.1957
    159  OH        56.7570  -83.0230    9.2330 O.3   148  TYR148     -0.2866
    160  N         53.6630  -77.5770   12.1830 N.3   152  LYS152     -0.1245
    161  CA        53.8100  -77.5170   10.7320 C.3   152  LYS152      0.1561
    162  C         52.7060  -76.6980   10.0760 C.2   152  LYS152      0.2260
    163  O         52.7830  -76.3730    8.8920 O.2   152  LYS152     -0.2867
    164  CB        53.8400  -78.9250   10.1370 C.3   152  LYS152      0.0271
    165  CG        55.1230  -79.6730   10.4370 C.3   152  LYS152      0.0035
    166  CD        56.3290  -78.8250   10.0690 C.3   152  LYS152      0.0206
    167  CE        57.6090  -79.4220   10.6140 C.3   152  LYS152      0.1093
    168  NZ        58.7860  -78.5460   10.3540 N.3   152  LYS152     -0.1314
    169  N         56.7000  -89.2090    2.4380 N.3   181  VAL181     -0.1245
    170  CA        57.9960  -89.3250    1.7840 C.3   181  VAL181      0.1561
    171  C         58.7420  -90.5530    2.2980 C.2   181  VAL181      0.2260
    172  O         58.7420  -90.8280    3.4990 O.2   181  VAL181     -0.2867
    173  CB        58.8490  -88.0610    2.0140 C.3   181  VAL181      0.0252
    174  CG1       60.0850  -88.0760    1.1310 C.3   181  VAL181      0.0019
    175  CG2       58.0180  -86.8080    1.7650 C.3   181  VAL181      0.0019
    176  N         61.6110  -92.4930    3.6310 N.3   183  THR183     -0.1218
    177  CA        62.8940  -92.3460    4.3060 C.3   183  THR183      0.1862
    178  C         62.9090  -93.1240    5.6190 C.2   183  THR183      0.2287
    179  O         61.8580  -93.3780    6.2150 O.2   183  THR183     -0.2866
    180  CB        63.2230  -90.8660    4.5940 C.3   183  THR183      0.1770
    181  OG1       64.5710  -90.7150    5.0670 O.3   183  THR183     -0.2211
    182  CG2       62.3120  -90.2150    5.5880 C.3   183  THR183      0.0375
    183  N         62.7560  -88.0260   -1.2410 N.3   200  THR200     -0.1218
    184  CA        63.2980  -86.7700   -0.7370 C.3   200  THR200      0.1862
    185  C         63.7990  -85.8770   -1.8700 C.2   200  THR200      0.2287
    186  O         63.7410  -84.6510   -1.7730 O.2   200  THR200     -0.2866
    187  CB        64.4420  -87.0140    0.2630 C.3   200  THR200      0.1770
    188  OG1       65.4240  -87.8730   -0.3300 O.3   200  THR200     -0.2211
    189  CG2       63.9090  -87.6640    1.5300 C.3   200  THR200      0.0375
@<TRIPOS>BOND
     1   185   186    2
     2   185   184    1
     3   183   184    1
     4   184   187    1
     5   188   187    1
     6   187   189    1
     7   174   173    1
     8    29    28    2
     9   175   173    1
    10   170   173    1
    11   170   171    1
    12   170   169    1
    13    32    30    1
    14   171   172    2
    15    37    36    2
    16    28    27    1
    17    28    34   am
    18    27    30    1
    19    27    26    1
    20    25    24    2
    21    30    31    1
    22    31    33    1
    23    36    35    1
    24   143   141    1
    25    24    26   am
    26    24    23    1
    27   176   177    1
    28    34    35    1
    29   177   180    1
    30   177   178    1
    31   142   141    1
    32   138   141    1
    33   138   137    1
    34   138   139    1
    35   180   181    1
    36   180   182    1
    37    23    22    1
    38   144   139   am
    39   144   145    1
    40    22    13   am
    41   104   101    1
    42   178   179    2
    43   139   140    2
    44   147   146    2
    45   146   145    1
    46    13    14    2
    47    13    12    1
    48     8     7    2
    49   101   100    1
    50   101   102    1
    51    12    11    1
    52    12    15    1
    53     7    11   am
    54     7     6    1
    55     5     6    1
    56     4     3    2
    57     6     9    1
    58     3     2    1
    59    45    43    1
    60    38    39    1
    61   102   103    2
    62   102   105   am
    63    15    16    1
    64    73    72    2
    65    16    17    1
    66     9    10    1
    67    43    42    1
    68     2     1    1
    69   163   162    2
    70   105   106    1
    71   159   158    1
    72    39    42    1
    73    39    40    1
    74    72    71    1
    75    42    44    1
    76    41    40    2
    77    17    18    1
    78    40    46   am
    79   166   165    1
    80   166   167    1
    81   162   161    1
    82   164   165    1
    83   164   161    1
    84   106   107    1
    85   106   109    1
    86   157   158   ar
    87   157   155   ar
    88   168   167    1
    89   158   156   ar
    90    71    70    1
    91    18    19    2
    92   161   160    1
    93   107   108    2
    94   107   110   am
    95    46    47    1
    96   155   153   ar
    97   110   111    1
    98    50    47    1
    99   156   154   ar
   100    19    21    1
   101    19    20    1
   102    47    48    1
   103   111   112    1
   104   129   127   am
   105   113   112    2
   106   153   154   ar
   107   153   152    1
   108   151   150    2
   109   112   114   am
   110    65    64    2
   111    93    92    1
   112    48    49    2
   113    48    51   am
   114   127   126    1
   115   127   128    2
   116   126   123    1
   117   150   149    1
   118   114   115    1
   119   152   149    1
   120    64    63    1
   121    78    79    1
   122    78    75    1
   123   133   132    2
   124    51    52    1
   125    92    94    1
   126    92    89    1
   127   117   116    2
   128   149   148    1
   129   115   116    1
   130   115   118    1
   131   116   122   am
   132    74    75    1
   133   122   123    1
   134   123   124    1
   135    66    63    1
   136    66    67    1
   137    77    76    2
   138    68    67    2
   139    63    62    1
   140   132   131    1
   141    67    69   am
   142    62    53   am
   143    75    76    1
   144    89    88    1
   145    89    90    1
   146   125   124    2
   147    52    53    1
   148    52    55    1
   149    53    54    2
   150   136   134    1
   151    76    80   am
   152   118   120    1
   153   118   119    1
   154    88    82   am
   155    91    90    2
   156   131   134    1
   157   131   130    1
   158    55    56    1
   159    56    57    1
   160    90    95   am
   161   119   121    1
   162   134   135    1
   163    61    59    1
   164    80    81    1
   165    58    59    2
   166    58    57    1
   167    82    81    1
   168    82    83    2
   169    81    84    1
   170    59    60    1
   171    95    96    1
   172    86    85   ar
   173    96    99    1
   174    96    97    1
   175    84    85    1
   176    85    87   ar
   177    97    98    2
