@<TRIPOS>MOLECULE
tmp/4cqmG00.pdb
 134 129 0 0 0
SMALL
GASTEIGER

@<TRIPOS>ATOM
      1  N         46.2440  -14.3840  -24.5660 N.3     4  PHE4       -0.1227
      2  CA        47.6170  -14.8680  -24.6110 C.3     4  PHE4        0.1736
      3  C         47.7210  -16.2800  -24.0560 C.2     4  PHE4        0.2596
      4  O         47.0980  -16.6090  -23.0470 O.2     4  PHE4       -0.2718
      5  CB        48.5420  -13.9290  -23.8370 C.3     4  PHE4        0.0547
      6  CG        48.8720  -12.6670  -24.5750 C.ar    4  PHE4       -0.0202
      7  CD1       47.9840  -11.6060  -24.5950 C.ar    4  PHE4       -0.0042
      8  CD2       50.0720  -12.5440  -25.2540 C.ar    4  PHE4       -0.0042
      9  CE1       48.2870  -10.4450  -25.2780 C.ar    4  PHE4       -0.0003
     10  CE2       50.3810  -11.3860  -25.9370 C.ar    4  PHE4       -0.0003
     11  CZ        49.4880  -10.3340  -25.9480 C.ar    4  PHE4       -0.0000
     12  N         48.5150  -17.1120  -24.7210 N.am    5  GLY5       -0.1957
     13  CA        48.6560  -18.5000  -24.3280 C.3     5  GLY5        0.1869
     14  C         47.3800  -19.2700  -24.5920 C.2     5  GLY5        0.2309
     15  O         47.0560  -20.2220  -23.8820 O.2     5  GLY5       -0.2863
     16  N         46.5470  -21.3710  -26.8790 N.3     7  SER7       -0.1202
     17  CA        46.7620  -22.4670  -27.8180 C.3     7  SER7        0.2020
     18  C         46.6280  -23.8280  -27.1400 C.2     7  SER7        0.2619
     19  O         46.4810  -24.8510  -27.8100 O.2     7  SER7       -0.2717
     20  CB        48.1350  -22.3420  -28.4780 C.3     7  SER7        0.2103
     21  OG        48.2190  -21.1540  -29.2450 O.3     7  SER7       -0.2182
     22  N         46.6750  -23.8370  -25.8120 N.am    8  ARG8       -0.1965
     23  CA        46.5050  -25.0700  -25.0510 C.3     8  ARG8        0.1729
     24  C         46.0070  -24.7880  -23.6390 C.2     8  ARG8        0.2617
     25  O         46.1320  -23.6720  -23.1370 O.2     8  ARG8       -0.2715
     26  CB        47.8170  -25.8530  -24.9940 C.3     8  ARG8        0.0348
     27  CG        47.7400  -27.2360  -25.6180 C.3     8  ARG8        0.0492
     28  CD        49.0410  -28.0050  -25.4320 C.3     8  ARG8        0.2205
     29  NE        50.1860  -27.2990  -26.0000 N.pl3   8  ARG8       -0.0865
     30  CZ        51.0990  -26.6520  -25.2830 C.cat   8  ARG8        0.5346
     31  NH1       51.0090  -26.6230  -23.9590 N.pl3   8  ARG8        0.1354
     32  NH2       52.1060  -26.0370  -25.8880 N.pl3   8  ARG8        0.1354
     33  N         45.4390  -25.8090  -23.0060 N.am    9  GLY9       -0.1940
     34  CA        44.9720  -25.6920  -21.6370 C.3     9  GLY9        0.2014
     35  C         43.7490  -24.8080  -21.4950 C.2     9  GLY9        0.2638
     36  O         42.7820  -24.9430  -22.2450 O.2     9  GLY9       -0.2714
     37  N         43.7950  -23.8980  -20.5280 N.am   10  ILE10      -0.1977
     38  CA        42.6640  -23.0220  -20.2500 C.3    10  ILE10       0.1596
     39  C         42.5980  -21.8780  -21.2580 C.2    10  ILE10       0.2287
     40  O         41.5570  -21.2420  -21.4180 O.2    10  ILE10      -0.2864
     41  CB        42.7330  -22.4490  -18.8150 C.3    10  ILE10       0.0276
     42  CG1       43.7240  -21.2860  -18.7300 C.3    10  ILE10       0.0022
     43  CG2       43.0930  -23.5440  -17.8190 C.3    10  ILE10       0.0022
     44  CD1       43.0630  -19.9330  -18.5670 C.3    10  ILE10       0.0001
     45  N         47.1200  -16.0220  -29.2450 N.3    28  ILE28      -0.1231
     46  CA        48.5310  -15.6510  -29.1680 C.3    28  ILE28       0.1692
     47  C         49.3400  -16.6550  -28.3450 C.2    28  ILE28       0.2592
     48  O         48.9890  -16.9650  -27.2070 O.2    28  ILE28      -0.2718
     49  CB        48.7100  -14.2460  -28.5500 C.3    28  ILE28       0.0266
     50  CG1       47.8490  -13.2170  -29.2860 C.3    28  ILE28       0.0019
     51  CG2       50.1690  -13.8330  -28.5800 C.3    28  ILE28       0.0020
     52  CD1       47.9080  -11.8310  -28.6930 C.3    28  ILE28       0.0001
     53  N         50.4250  -17.1550  -28.9280 N.am   29  ALA29      -0.1966
     54  CA        51.3180  -18.0840  -28.2410 C.3    29  ALA29       0.1728
     55  C         52.7130  -18.0240  -28.8540 C.2    29  ALA29       0.2616
     56  O         53.0560  -17.0540  -29.5260 O.2    29  ALA29      -0.2715
     57  CB        50.7670  -19.4980  -28.3020 C.3    29  ALA29       0.0334
     58  N         53.5180  -19.0550  -28.6180 N.am   30  ARG30      -0.1963
     59  CA        54.8400  -19.1420  -29.2330 C.3    30  ARG30       0.1729
     60  C         54.7600  -19.8010  -30.6030 C.2    30  ARG30       0.2616
     61  O         55.3740  -19.3400  -31.5670 O.2    30  ARG30      -0.2715
     62  CB        55.8080  -19.9180  -28.3430 C.3    30  ARG30       0.0348
     63  CG        56.7630  -19.0420  -27.5600 C.3    30  ARG30       0.0492
     64  CD        56.4900  -19.1320  -26.0770 C.3    30  ARG30       0.2205
     65  NE        56.6530  -20.4910  -25.5730 N.pl3  30  ARG30      -0.0865
     66  CZ        57.7520  -20.9390  -24.9750 C.cat  30  ARG30       0.5346
     67  NH1       58.7910  -20.1330  -24.8000 N.pl3  30  ARG30       0.1354
     68  NH2       57.8100  -22.1930  -24.5490 N.pl3  30  ARG30       0.1354
     69  N         54.0020  -20.8910  -30.6710 N.am   31  ASN31      -0.1972
     70  CA        53.7820  -21.6150  -31.9130 C.3    31  ASN31       0.1688
     71  C         52.6080  -21.0140  -32.6820 C.2    31  ASN31       0.2292
     72  O         51.4470  -21.2360  -32.3330 O.2    31  ASN31      -0.2864
     73  CB        53.5330  -23.0990  -31.6240 C.3    31  ASN31       0.1181
     74  CG        53.6780  -23.9750  -32.8570 C.2    31  ASN31       0.2629
     75  OD1       53.6240  -23.4950  -33.9890 O.2    31  ASN31      -0.2716
     76  ND2       53.8590  -25.2720  -32.6380 N.am   31  ASN31      -0.0877
     77  N         53.8360  -14.8960  -30.1040 N.3    48  CYS48      -0.1221
     78  CA        54.5130  -14.0470  -29.1220 C.3    48  CYS48       0.1808
     79  C         54.8690  -14.7760  -27.8190 C.2    48  CYS48       0.2601
     80  O         54.0640  -15.5380  -27.2810 O.2    48  CYS48      -0.2717
     81  CB        53.6420  -12.8300  -28.7960 C.3    48  CYS48       0.0970
     82  SG        54.1920  -11.8810  -27.3660 S.3    48  CYS48      -0.0800
     83  N         56.0840  -14.5390  -27.3270 N.am   49  ASP49      -0.1959
     84  CA        56.4560  -14.9060  -25.9640 C.3    49  ASP49       0.1840
     85  C         56.5200  -13.6200  -25.1440 C.2    49  ASP49       0.2621
     86  O         57.2040  -12.6670  -25.5160 O.2    49  ASP49      -0.2715
     87  CB        57.7860  -15.6670  -25.9350 C.3    49  ASP49       0.1450
     88  CG        58.2770  -15.9660  -24.5150 C.2    49  ASP49       0.3671
     89  OD1       57.4780  -15.9090  -23.5550 O.co2  49  ASP49      -0.2456
     90  OD2       59.4830  -16.2660  -24.3580 O.co2  49  ASP49      -0.2456
     91  N         55.7940  -13.6010  -24.0340 N.am   50  VAL50      -0.1977
     92  CA        55.5590  -12.3760  -23.2850 C.3    50  VAL50       0.1596
     93  C         56.7400  -11.9920  -22.3990 C.2    50  VAL50       0.2287
     94  O         56.7170  -10.9570  -21.7330 O.2    50  VAL50      -0.2864
     95  CB        54.2990  -12.5140  -22.4270 C.3    50  VAL50       0.0276
     96  CG1       53.0590  -12.4210  -23.3010 C.3    50  VAL50       0.0022
     97  CG2       54.3270  -13.8430  -21.6910 C.3    50  VAL50       0.0022
     98  N         46.8950  -16.1120  -20.1550 N.3    76  ALA76      -0.1231
     99  CA        46.9010  -17.5340  -19.8320 C.3    76  ALA76       0.1694
    100  C         48.2320  -18.1800  -20.2050 C.2    76  ALA76       0.2592
    101  O         48.3880  -19.3980  -20.1160 O.2    76  ALA76      -0.2718
    102  CB        45.7520  -18.2420  -20.5340 C.3    76  ALA76       0.0304
    103  N         49.1880  -17.3570  -20.6240 N.am   77  ALA77      -0.1966
    104  CA        50.5160  -17.8410  -20.9800 C.3    77  ALA77       0.1728
    105  C         51.3080  -18.2160  -19.7310 C.2    77  ALA77       0.2617
    106  O         51.6020  -17.3600  -18.8960 O.2    77  ALA77      -0.2715
    107  CB        51.2620  -16.7930  -21.7880 C.3    77  ALA77       0.0334
    108  N         51.6520  -19.4940  -19.6060 N.am   78  GLY78      -0.1940
    109  CA        52.3660  -19.9660  -18.4340 C.3    78  GLY78       0.2014
    110  C         53.1560  -21.2450  -18.6400 C.2    78  GLY78       0.2639
    111  O         52.9970  -21.9340  -19.6480 O.2    78  GLY78      -0.2714
    112  N         54.0130  -21.5580  -17.6720 N.am   79  ILE79      -0.1963
    113  CA        54.8200  -22.7730  -17.7020 C.3    79  ILE79       0.1727
    114  C         54.9670  -23.3590  -16.2970 C.2    79  ILE79       0.2616
    115  O         55.4390  -22.6880  -15.3780 O.2    79  ILE79      -0.2715
    116  CB        56.2160  -22.5110  -18.3060 C.3    79  ILE79       0.0290
    117  CG1       57.1590  -23.6780  -18.0050 C.3    79  ILE79       0.0022
    118  CG2       56.7960  -21.2060  -17.7800 C.3    79  ILE79       0.0023
    119  CD1       58.5570  -23.4910  -18.5520 C.3    79  ILE79       0.0001
    120  N         54.5410  -24.6080  -16.1310 N.am   80  ASN80      -0.1972
    121  CA        54.5650  -25.2550  -14.8230 C.3    80  ASN80       0.1688
    122  C         55.5190  -26.4460  -14.7750 C.2    80  ASN80       0.2292
    123  O         55.2290  -27.5080  -15.3270 O.2    80  ASN80      -0.2864
    124  CB        53.1590  -25.7190  -14.4270 C.3    80  ASN80       0.1181
    125  CG        52.0800  -24.7140  -14.7930 C.2    80  ASN80       0.2629
    126  OD1       52.3600  -23.5430  -15.0400 O.2    80  ASN80      -0.2716
    127  ND2       50.8350  -25.1730  -14.8250 N.am   80  ASN80      -0.0877
    128  N         58.1790  -15.5450  -17.6180 N.3    99  THR99      -0.1218
    129  CA        57.0470  -16.0150  -18.4090 C.3    99  THR99       0.1862
    130  C         55.7240  -15.7970  -17.6860 C.2    99  THR99       0.2287
    131  O         54.8350  -15.1110  -18.1900 O.2    99  THR99      -0.2866
    132  CB        57.1820  -17.5100  -18.7560 C.3    99  THR99       0.1770
    133  OG1       58.2900  -17.7000  -19.6440 O.3    99  THR99      -0.2211
    134  CG2       55.9120  -18.0190  -19.4210 C.3    99  THR99       0.0375
@<TRIPOS>BOND
     1    75    74    2
     2    74    76   am
     3    74    73    1
     4    71    72    2
     5    71    70    1
     6    70    73    1
     7    70    69    1
     8    61    60    2
     9    69    60   am
    10    60    59    1
    11    77    78    1
    12    56    55    2
    13    50    52    1
    14    50    49    1
    15    21    20    1
    16    45    46    1
    17    59    58    1
    18    59    62    1
    19    46    49    1
    20    46    47    1
    21    78    81    1
    22    78    79    1
    23    53    47   am
    24    53    54    1
    25    55    58   am
    26    55    54    1
    27    81    82    1
    28    51    49    1
    29    20    17    1
    30    47    48    2
    31    62    63    1
    32    57    54    1
    33    79    83   am
    34    79    80    2
    35    17    18    1
    36    17    16    1
    37    19    18    2
    38    63    64    1
    39    83    84    1
    40    18    22   am
    41    64    65    1
    42    29    28    1
    43    29    30    2
    44    84    87    1
    45    84    85    1
    46    11    10   ar
    47    11     9   ar
    48    10     8   ar
    49    87    88    1
    50    32    30    1
    51    22    23    1
    52    27    28    1
    53    27    26    1
    54    65    66    2
    55    86    85    2
    56    30    31    1
    57     9     7   ar
    58     8     6   ar
    59    85    91   am
    60    23    26    1
    61    23    24    1
    62    66    67    1
    63    66    68    1
    64    12    13    1
    65    12     3   am
    66     2     1    1
    67     2     3    1
    68     2     5    1
    69     7     6   ar
    70    14    13    1
    71    14    15    2
    72     6     5    1
    73    88    90   ar
    74    88    89   ar
    75     3     4    2
    76    91    92    1
    77    24    25    2
    78    24    33   am
    79    96    95    1
    80    92    95    1
    81    92    93    1
    82    33    34    1
    83    95    97    1
    84    93    94    2
    85    36    35    2
    86   107   104    1
    87    34    35    1
    88    35    37   am
    89    40    39    2
    90    39    38    1
    91   104   103    1
    92   104   105    1
    93   103   100   am
    94   102    99    1
    95    37    38    1
    96    38    41    1
    97   100   101    2
    98   100    99    1
    99    98    99    1
   100   105   108   am
   101   105   106    2
   102   111   110    2
   103   133   132    1
   104   108   109    1
   105   134   132    1
   106    41    42    1
   107    41    43    1
   108   132   129    1
   109    42    44    1
   110   110   109    1
   111   110   112   am
   112   119   117    1
   113   129   130    1
   114   129   128    1
   115   116   117    1
   116   116   118    1
   117   116   113    1
   118   131   130    2
   119   113   112    1
   120   113   114    1
   121   114   120   am
   122   114   115    2
   123   120   121    1
   124   123   122    2
   125   126   125    2
   126   127   125   am
   127   121   122    1
   128   121   124    1
   129   125   124    1
