@<TRIPOS>MOLECULE
tmp/4cqnA01.pdb
 154 149 0 0 0
SMALL
GASTEIGER

@<TRIPOS>ATOM
      1  N        -30.4490   30.7650   -2.6310 N.3   246  TYR246     -0.1227
      2  CA       -29.8890   29.4950   -2.2220 C.3   246  TYR246      0.1736
      3  C        -28.4010   29.6870   -2.0050 C.2   246  TYR246      0.2596
      4  O        -27.7030   30.2080   -2.8870 O.2   246  TYR246     -0.2718
      5  CB       -30.0950   28.4400   -3.3040 C.3   246  TYR246      0.0548
      6  CG       -29.4590   27.1120   -2.9240 C.ar  246  TYR246     -0.0200
      7  CD1      -30.1370   26.1980   -2.1220 C.ar  246  TYR246     -0.0009
      8  CD2      -28.1600   26.8000   -3.3110 C.ar  246  TYR246     -0.0009
      9  CE1      -29.5820   24.9940   -1.7790 C.ar  246  TYR246      0.0417
     10  CE2      -27.5960   25.6040   -2.9440 C.ar  246  TYR246      0.0417
     11  CZ       -28.3120   24.6990   -2.1900 C.ar  246  TYR246      0.1957
     12  OH       -27.7300   23.4770   -1.8540 O.3   246  TYR246     -0.2866
     13  N        -27.9300   29.2810   -0.8180 N.am  247  THR247     -0.1939
     14  CA       -26.5100   29.1660   -0.5460 C.3   247  THR247      0.2028
     15  C        -26.1540   27.7930    0.0700 C.2   247  THR247      0.2643
     16  O        -26.9670   27.1910    0.7900 O.2   247  THR247     -0.2714
     17  CB       -25.9970   30.3410    0.3310 C.3   247  THR247      0.1808
     18  OG1      -24.5860   30.2000    0.5910 O.3   247  THR247     -0.2208
     19  CG2      -26.7210   30.3760    1.6260 C.3   247  THR247      0.0379
     20  N        -24.9490   27.3070   -0.2520 N.am  248  THR248     -0.1936
     21  CA       -24.3160   26.1660    0.4430 C.3   248  THR248      0.2028
     22  C        -23.4580   26.6730    1.6480 C.2   248  THR248      0.2642
     23  O        -22.9020   25.8760    2.4340 O.2   248  THR248     -0.2714
     24  CB       -23.4210   25.3580   -0.4880 C.3   248  THR248      0.1808
     25  OG1      -22.3590   26.2050   -0.9340 O.3   248  THR248     -0.2208
     26  CG2      -24.2010   24.8700   -1.7230 C.3   248  THR248      0.0379
     27  N        -23.4000   27.9970    1.8060 N.am  249  ARG249     -0.1977
     28  CA       -22.5530   28.5950    2.8270 C.3   249  ARG249      0.1597
     29  C        -23.3260   29.4490    3.8230 C.2   249  ARG249      0.2287
     30  O        -22.9520   30.5960    4.0800 O.2   249  ARG249     -0.2864
     31  CB       -21.4120   29.3710    2.2100 C.3   249  ARG249      0.0334
     32  CG       -20.4150   28.4940    1.4730 C.3   249  ARG249      0.0492
     33  CD       -19.5820   27.5730    2.3630 C.3   249  ARG249      0.2205
     34  NE       -18.8520   28.1780    3.4850 N.pl3 249  ARG249     -0.0865
     35  CZ       -17.6240   28.7000    3.4140 C.cat 249  ARG249      0.5346
     36  NH1      -16.9850   28.7770    2.2560 N.pl3 249  ARG249      0.1354
     37  NH2      -17.0390   29.1810    4.5280 N.pl3 249  ARG249      0.1354
     38  N        -21.3110   31.4980    6.2810 N.3   252  THR252     -0.1218
     39  CA       -20.7540   32.7940    5.9980 C.3   252  THR252      0.1862
     40  C        -21.8340   33.8620    6.0570 C.2   252  THR252      0.2287
     41  O        -21.5710   35.0110    5.7120 O.2   252  THR252     -0.2866
     42  CB       -20.1370   32.8470    4.6050 C.3   252  THR252      0.1770
     43  OG1      -21.1500   32.5830    3.6230 O.3   252  THR252     -0.2211
     44  CG2      -19.0390   31.8260    4.4400 C.3   252  THR252      0.0375
     45  N        -18.3550   40.6130  -15.3340 N.3   300  LYS300     -0.1245
     46  CA       -19.4810   40.8340  -14.4860 C.3   300  LYS300      0.1561
     47  C        -19.7630   42.3310  -14.5570 C.2   300  LYS300      0.2260
     48  O        -18.8310   43.1500  -14.5160 O.2   300  LYS300     -0.2867
     49  CB       -19.1460   40.3950  -13.0700 C.3   300  LYS300      0.0271
     50  CG       -18.7630   38.9250  -12.9150 C.3   300  LYS300      0.0035
     51  CD       -17.2600   38.7840  -12.6990 C.3   300  LYS300      0.0206
     52  CE       -16.8310   37.3420  -12.4320 C.3   300  LYS300      0.1093
     53  NZ       -15.4310   37.1920  -12.8810 N.3   300  LYS300     -0.1314
     54  N        -24.9240   38.1080  -14.3090 N.3   325  PHE325     -0.1227
     55  CA       -24.5250   36.7160  -14.1870 C.3   325  PHE325      0.1736
     56  C        -25.4940   35.8730  -13.3380 C.2   325  PHE325      0.2595
     57  O        -25.1290   34.8210  -12.8100 O.2   325  PHE325     -0.2718
     58  CB       -23.1210   36.6650  -13.6100 C.3   325  PHE325      0.0547
     59  CG       -22.9730   37.4030  -12.3110 C.ar  325  PHE325     -0.0202
     60  CD1      -23.3610   36.8140  -11.1040 C.ar  325  PHE325     -0.0042
     61  CD2      -22.4280   38.6910  -12.2810 C.ar  325  PHE325     -0.0042
     62  CE1      -23.2360   37.4930   -9.8970 C.ar  325  PHE325     -0.0003
     63  CE2      -22.2930   39.3790  -11.0680 C.ar  325  PHE325     -0.0003
     64  CZ       -22.7010   38.7810   -9.8780 C.ar  325  PHE325     -0.0000
     65  N        -26.7240   36.3260  -13.1790 N.am  326  VAL326     -0.1980
     66  CA       -27.6050   35.6900  -12.2240 C.3   326  VAL326      0.1595
     67  C        -28.8560   35.4830  -13.0200 C.2   326  VAL326      0.2287
     68  O        -29.4060   36.4450  -13.5590 O.2   326  VAL326     -0.2864
     69  CB       -27.8810   36.6120  -11.0130 C.3   326  VAL326      0.0276
     70  CG1      -29.0650   36.1300  -10.2060 C.3   326  VAL326      0.0022
     71  CG2      -26.6670   36.7310  -10.1240 C.3   326  VAL326      0.0022
     72  N        -29.0150   35.8930   -5.6950 N.3   335  VAL335     -0.1231
     73  CA       -27.9780   35.3030   -4.8520 C.3   335  VAL335      0.1692
     74  C        -27.6040   36.1590   -3.6470 C.2   335  VAL335      0.2592
     75  O        -27.8440   37.3600   -3.6240 O.2   335  VAL335     -0.2718
     76  CB       -26.6990   34.9760   -5.6370 C.3   335  VAL335      0.0266
     77  CG1      -26.9410   33.7970   -6.5410 C.3   335  VAL335      0.0020
     78  CG2      -26.1960   36.1980   -6.3860 C.3   335  VAL335      0.0020
     79  N        -26.9650   35.5410   -2.6680 N.am  336  MET336     -0.1965
     80  CA       -26.4730   36.3010   -1.5400 C.3   336  MET336      0.1736
     81  C        -24.9250   36.4600   -1.5340 C.2   336  MET336      0.2616
     82  O        -24.1800   35.5010   -1.6900 O.2   336  MET336     -0.2715
     83  CB       -27.0100   35.7110   -0.2690 C.3   336  MET336      0.0427
     84  CG       -26.4370   34.3580    0.0330 C.3   336  MET336      0.0599
     85  SD       -26.0740   34.3670    1.7800 S.3   336  MET336     -0.1393
     86  CE       -24.4670   33.5360    1.7560 C.3   336  MET336      0.0692
     87  N        -24.4530   37.6800   -1.3510 N.am  337  ALA337     -0.1963
     88  CA       -23.0730   37.9550   -1.6180 C.3   337  ALA337      0.1728
     89  C        -22.2450   38.0470   -0.3820 C.2   337  ALA337      0.2616
     90  O        -22.5180   38.8720    0.5100 O.2   337  ALA337     -0.2715
     91  CB       -22.9450   39.2320   -2.4330 C.3   337  ALA337      0.0334
     92  N        -21.2220   37.1940   -0.3200 N.am  338  VAL338     -0.1977
     93  CA       -20.2160   37.3130    0.7260 C.3   338  VAL338      0.1596
     94  C        -18.8540   37.4460    0.0480 C.2   338  VAL338      0.2287
     95  O        -18.2030   36.4590   -0.2970 O.2   338  VAL338     -0.2864
     96  CB       -20.2650   36.1640    1.7820 C.3   338  VAL338      0.0276
     97  CG1      -19.1430   36.3340    2.8060 C.3   338  VAL338      0.0022
     98  CG2      -21.6290   36.0990    2.4860 C.3   338  VAL338      0.0022
     99  N        -15.5730   35.8230    1.4140 N.3   341  HIS341     -0.1226
    100  CA       -15.4190   34.3780    1.3020 C.3   341  HIS341      0.1752
    101  C        -15.9430   33.7260    0.0130 C.2   341  HIS341      0.2596
    102  O        -16.2710   32.5290    0.0170 O.2   341  HIS341     -0.2718
    103  CB       -15.9830   33.7590    2.5720 C.3   341  HIS341      0.0759
    104  CG       -15.5590   34.5050    3.8010 C.ar  341  HIS341      0.0818
    105  ND1      -14.3480   34.2810    4.4260 N.ar  341  HIS341     -0.2268
    106  CD2      -16.1620   35.5010    4.4940 C.ar  341  HIS341      0.1154
    107  CE1      -14.2380   35.0870    5.4640 C.ar  341  HIS341      0.1986
    108  NE2      -15.3230   35.8380    5.5270 N.ar  341  HIS341     -0.2212
    109  N        -16.0240   34.5080   -1.0770 N.am  342  ASP342     -0.1974
    110  CA       -16.2710   33.9480   -2.4280 C.3   342  ASP342      0.1709
    111  C        -15.5750   34.8160   -3.4390 C.2   342  ASP342      0.2293
    112  O        -15.7630   36.0110   -3.4530 O.2   342  ASP342     -0.2864
    113  CB       -17.7870   33.8320   -2.7470 C.3   342  ASP342      0.1436
    114  CG       -18.1030   33.8530   -4.2660 C.2   342  ASP342      0.3671
    115  OD1      -17.7470   34.8270   -4.9460 O.co2 342  ASP342     -0.2456
    116  OD2      -18.7480   32.9140   -4.7950 O.co2 342  ASP342     -0.2456
    117  N        -15.7930   35.2000   -6.7820 N.3   344  ARG344     -0.1231
    118  CA       -16.7730   35.9330   -7.6070 C.3   344  ARG344      0.1694
    119  C        -17.2760   37.1950   -6.8300 C.2   344  ARG344      0.2592
    120  O        -17.1850   38.3060   -7.3360 O.2   344  ARG344     -0.2718
    121  CB       -17.9270   35.0130   -8.0460 C.3   344  ARG344      0.0321
    122  CG       -17.5870   33.8840   -9.0340 C.3   344  ARG344      0.0489
    123  CD       -18.6600   32.7670   -9.1210 C.3   344  ARG344      0.2205
    124  NE       -19.1540   32.3630   -7.7950 N.pl3 344  ARG344     -0.0865
    125  CZ       -19.8540   31.2580   -7.4930 C.cat 344  ARG344      0.5346
    126  NH1      -20.1830   30.3810   -8.4340 N.pl3 344  ARG344      0.1354
    127  NH2      -20.2240   31.0340   -6.2250 N.pl3 344  ARG344      0.1354
    128  N        -17.7420   37.0440   -5.5870 N.am  345  ASP345     -0.1974
    129  CA       -18.1750   38.2100   -4.7860 C.3   345  ASP345      0.1709
    130  C        -17.0350   39.0960   -4.2890 C.2   345  ASP345      0.2293
    131  O        -17.2450   40.2680   -3.9180 O.2   345  ASP345     -0.2864
    132  CB       -18.9970   37.8100   -3.5610 C.3   345  ASP345      0.1436
    133  CG       -20.0960   36.7790   -3.8480 C.2   345  ASP345      0.3671
    134  OD1      -20.6500   36.6270   -4.9750 O.co2 345  ASP345     -0.2456
    135  OD2      -20.4240   36.1280   -2.8480 O.co2 345  ASP345     -0.2456
    136  N        -16.5930   41.2680   -7.5540 N.3   348  PHE348     -0.1241
    137  CA       -17.6850   42.1750   -7.7110 C.3   348  PHE348      0.1605
    138  C        -17.5460   43.3460   -6.7470 C.2   348  PHE348      0.2264
    139  O        -17.4530   44.4980   -7.1780 O.2   348  PHE348     -0.2867
    140  CB       -19.0390   41.4610   -7.5280 C.3   348  PHE348      0.0534
    141  CG       -20.1810   42.1940   -8.1650 C.ar  348  PHE348     -0.0203
    142  CD1      -20.4190   42.0690   -9.5230 C.ar  348  PHE348     -0.0042
    143  CD2      -20.9830   43.0360   -7.4150 C.ar  348  PHE348     -0.0042
    144  CE1      -21.4540   42.7650  -10.1350 C.ar  348  PHE348     -0.0003
    145  CE2      -22.0400   43.7290   -7.9990 C.ar  348  PHE348     -0.0003
    146  CZ       -22.2640   43.6100   -9.3690 C.ar  348  PHE348     -0.0000
    147  N        -30.0190   20.9720   -3.8250 N.3   414  ASN414     -0.1240
    148  CA       -30.0040   21.5990   -5.1320 C.3   414  ASN414      0.1653
    149  C        -29.0650   20.7980   -5.9250 C.2   414  ASN414      0.2266
    150  O        -28.2740   20.0300   -5.3460 O.2   414  ASN414     -0.2867
    151  CB       -29.4340   23.0140   -5.1130 C.3   414  ASN414      0.1155
    152  CG       -30.5060   24.0710   -5.2020 C.2   414  ASN414      0.2627
    153  OD1      -31.7230   23.8090   -5.0330 O.2   414  ASN414     -0.2716
    154  ND2      -30.0710   25.2860   -5.4530 N.am  414  ASN414     -0.0877
@<TRIPOS>BOND
     1    45    46    1
     2    47    48    2
     3    47    46    1
     4    46    49    1
     5    54    55    1
     6    55    58    1
     7    55    56    1
     8    58    59    1
     9    68    67    2
    10    56    65   am
    11    56    57    2
    12    65    66    1
    13    49    50    1
    14    67    66    1
    15    50    51    1
    16    53    52    1
    17    51    52    1
    18    59    61   ar
    19    59    60   ar
    20    61    63   ar
    21    66    69    1
    22    60    62   ar
    23    63    64   ar
    24    69    70    1
    25    69    71    1
    26   144   142   ar
    27   144   146   ar
    28    62    64   ar
    29   142   141   ar
    30   146   145   ar
    31   123   122    1
    32   123   124    1
    33   122   121    1
    34   126   125    1
    35   141   140    1
    36   141   143   ar
    37   121   118    1
    38   145   143   ar
    39   124   125    2
    40   137   136    1
    41   137   140    1
    42   137   138    1
    43   118   119    1
    44   118   117    1
    45   125   127    1
    46   120   119    2
    47   139   138    2
    48   119   128   am
    49    77    76    1
    50    78    76    1
    51   149   150    2
    52   149   148    1
    53    72    73    1
    54    76    73    1
    55   128   129    1
    56   154   152   am
    57   152   151    1
    58   152   153    2
    59   148   151    1
    60   148   147    1
    61   134   133   ar
    62   115   114   ar
    63    73    74    1
    64   116   114   ar
    65   129   130    1
    66   129   132    1
    67   130   131    2
    68   114   113    1
    69   133   132    1
    70   133   135   ar
    71    74    75    2
    72    74    79   am
    73   112   111    2
    74   111   110    1
    75     8    10   ar
    76     8     6   ar
    77     5     6    1
    78     5     2    1
    79    10    11   ar
    80     6     7   ar
    81     4     3    2
    82   113   110    1
    83    79    80    1
    84     1     2    1
    85    91    88    1
    86   110   109    1
    87     2     3    1
    88    11    12    1
    89    11     9   ar
    90     7     9   ar
    91     3    13   am
    92    26    24    1
    93    82    81    2
    94    88    87    1
    95    88    89    1
    96    80    81    1
    97    80    83    1
    98    81    87   am
    99   109   101   am
   100    25    24    1
   101    13    14    1
   102    14    15    1
   103    14    17    1
   104    24    21    1
   105    89    92   am
   106    89    90    2
   107    92    93    1
   108    95    94    2
   109    83    84    1
   110    20    15   am
   111    20    21    1
   112   101   102    2
   113   101   100    1
   114    84    85    1
   115    94    93    1
   116    15    16    2
   117    17    18    1
   118    17    19    1
   119    21    22    1
   120    93    96    1
   121   100    99    1
   122   100   103    1
   123    32    31    1
   124    32    33    1
   125    22    27   am
   126    22    23    2
   127    86    85    1
   128    96    98    1
   129    96    97    1
   130    27    28    1
   131    31    28    1
   132    36    35    1
   133    33    34    1
   134   103   104    1
   135    28    29    1
   136    35    34    2
   137    35    37    1
   138    43    42    1
   139   104   105   ar
   140   104   106   ar
   141    29    30    2
   142   105   107   ar
   143    44    42    1
   144   106   108   ar
   145    42    39    1
   146   107   108   ar
   147    41    40    2
   148    39    40    1
   149    39    38    1
