@<TRIPOS>MOLECULE
tmp/4cqnA00.pdb
 204 199 0 0 0
SMALL
GASTEIGER

@<TRIPOS>ATOM
      1  N        -22.4480    4.1920  -30.6860 N.3    40  MET40      -0.1230
      2  CA       -23.3290    5.3520  -30.8630 C.3    40  MET40       0.1702
      3  C        -23.5650    5.6270  -32.3730 C.2    40  MET40       0.2592
      4  O        -22.6120    5.9200  -33.1360 O.2    40  MET40      -0.2718
      5  CB       -22.6970    6.5430  -30.1770 C.3    40  MET40       0.0401
      6  CG       -22.4440    6.3050  -28.6900 C.3    40  MET40       0.0596
      7  SD       -22.0160    7.8630  -27.8790 S.3    40  MET40      -0.1393
      8  CE       -21.7850    7.2750  -26.1690 C.3    40  MET40       0.0692
      9  N        -24.8310    5.5000  -32.7820 N.am   41  LEU41      -0.1966
     10  CA       -25.2420    5.6090  -34.1920 C.3    41  LEU41       0.1713
     11  C        -24.9770    7.0030  -34.6900 C.2    41  LEU41       0.2458
     12  O        -25.1040    7.9630  -33.9000 O.2    41  LEU41      -0.2730
     13  CB       -26.7290    5.3000  -34.3830 C.3    41  LEU41       0.0310
     14  CG       -27.7170    6.4700  -34.1680 C.3    41  LEU41       0.0022
     15  CD1      -29.0650    6.0000  -34.6980 C.3    41  LEU41       0.0001
     16  CD2      -27.8140    6.8680  -32.6870 C.3    41  LEU41       0.0001
     17  N        -24.6040    7.1200  -35.9860 N.am   42  PRO42      -0.2716
     18  CA       -24.1830    8.3820  -36.5580 C.3    42  PRO42       0.1536
     19  C        -25.3670    9.2600  -36.9060 C.2    42  PRO42       0.2598
     20  O        -26.4640    8.7590  -37.1160 O.2    42  PRO42      -0.2715
     21  CB       -23.5140    7.9510  -37.8680 C.3    42  PRO42       0.0310
     22  CG       -24.3150    6.7440  -38.2880 C.3    42  PRO42       0.0237
     23  CD       -24.6290    6.0380  -36.9930 C.3    42  PRO42       0.0939
     24  N        -25.1220   10.5580  -36.9620 N.am   43  TYR43      -0.1974
     25  CA       -25.9370   11.4660  -37.6650 C.3    43  TYR43       0.1639
     26  C        -25.5310   11.5030  -39.1780 C.2    43  TYR43       0.2290
     27  O        -24.3350   11.6970  -39.5080 O.2    43  TYR43      -0.2864
     28  CB       -25.7150   12.8420  -37.0440 C.3    43  TYR43       0.0560
     29  CG       -26.3300   13.9350  -37.8490 C.ar   43  TYR43      -0.0198
     30  CD1      -27.7030   13.9710  -38.0340 C.ar   43  TYR43      -0.0009
     31  CD2      -25.5620   14.9040  -38.4560 C.ar   43  TYR43      -0.0009
     32  CE1      -28.3040   14.9400  -38.7810 C.ar   43  TYR43       0.0417
     33  CE2      -26.1710   15.9050  -39.1980 C.ar   43  TYR43       0.0417
     34  CZ       -27.5450   15.8910  -39.3620 C.ar   43  TYR43       0.1957
     35  OH       -28.2040   16.8420  -40.1120 O.3    43  TYR43      -0.2866
     36  N        -24.5810   12.9370  -42.0290 N.3    45  SER45      -0.1217
     37  CA       -24.1750   14.2870  -42.3590 C.3    45  SER45       0.1889
     38  C        -23.6320   14.4000  -43.7870 C.2    45  SER45       0.2288
     39  O        -23.3110   15.4850  -44.2520 O.2    45  SER45      -0.2866
     40  CB       -23.1220   14.7400  -41.3600 C.3    45  SER45       0.2089
     41  OG       -22.0450   13.8140  -41.3570 O.3    45  SER45      -0.2183
     42  N        -16.3550   10.4390  -41.6560 N.3    49  HIS49      -0.1241
     43  CA       -14.9930   10.8810  -41.3560 C.3    49  HIS49       0.1621
     44  C        -14.2460    9.8620  -40.4970 C.2    49  HIS49       0.2264
     45  O        -14.7520    8.7790  -40.2000 O.2    49  HIS49      -0.2867
     46  CB       -14.9350   12.2730  -40.7010 C.3    49  HIS49       0.0745
     47  CG       -15.8480   12.4460  -39.5340 C.ar   49  HIS49       0.0817
     48  ND1      -15.7190   11.7140  -38.3680 N.ar   49  HIS49      -0.2268
     49  CD2      -16.9160   13.2580  -39.3500 C.ar   49  HIS49       0.1154
     50  CE1      -16.6570   12.0810  -37.5090 C.ar   49  HIS49       0.1986
     51  NE2      -17.3950   13.0160  -38.0810 N.ar   49  HIS49      -0.2212
     52  N        -13.2800    9.9220  -37.4950 N.3    51  GLY51      -0.1210
     53  CA       -13.7990    9.7890  -36.1600 C.3    51  GLY51       0.1956
     54  C        -14.7740    8.6430  -36.1240 C.2    51  GLY51       0.2611
     55  O        -14.7600    7.8420  -35.1850 O.2    51  GLY51      -0.2717
     56  N        -15.6250    8.5560  -37.1380 N.am   52  HIS52      -0.1975
     57  CA       -16.5950    7.4750  -37.1800 C.3    52  HIS52       0.1656
     58  C        -15.8610    6.1400  -37.3570 C.2    52  HIS52       0.2291
     59  O        -16.3400    5.0890  -36.9280 O.2    52  HIS52      -0.2864
     60  CB       -17.5450    7.6240  -38.3600 C.3    52  HIS52       0.0771
     61  CG       -18.3620    8.8730  -38.3760 C.ar   52  HIS52       0.0820
     62  ND1      -18.3240    9.7580  -39.4340 N.ar   52  HIS52      -0.2267
     63  CD2      -19.3120    9.3360  -37.5290 C.ar   52  HIS52       0.1154
     64  CE1      -19.1820   10.7430  -39.2120 C.ar   52  HIS52       0.1986
     65  NE2      -19.8040   10.5020  -38.0680 N.ar   52  HIS52      -0.2212
     66  N        -14.6560    4.9150  -34.2290 N.3    55  ASN55      -0.1225
     67  CA       -15.7760    4.3910  -33.4480 C.3    55  ASN55       0.1785
     68  C        -16.1910    3.0210  -33.9140 C.2    55  ASN55       0.2597
     69  O        -16.4220    2.1120  -33.1150 O.2    55  ASN55      -0.2718
     70  CB       -16.9980    5.2830  -33.6120 C.3    55  ASN55       0.1169
     71  CG       -17.8390    5.3910  -32.3510 C.2    55  ASN55       0.2627
     72  OD1      -18.0490    6.4930  -31.8650 O.2    55  ASN55      -0.2716
     73  ND2      -18.3330    4.2700  -31.8190 N.am   55  ASN55      -0.0877
     74  N        -16.3310    2.8650  -35.2190 N.am   56  TYR56      -0.1976
     75  CA       -17.0190    1.6820  -35.6660 C.3    56  TYR56       0.1639
     76  C        -16.1240    0.4670  -35.8050 C.2    56  TYR56       0.2290
     77  O        -16.6120   -0.6680  -35.6540 O.2    56  TYR56      -0.2864
     78  CB       -17.8760    1.9970  -36.8920 C.3    56  TYR56       0.0560
     79  CG       -18.8710    3.1050  -36.5930 C.ar   56  TYR56      -0.0198
     80  CD1      -19.6320    3.0820  -35.4270 C.ar   56  TYR56      -0.0009
     81  CD2      -19.0370    4.1770  -37.4630 C.ar   56  TYR56      -0.0009
     82  CE1      -20.5420    4.0870  -35.1450 C.ar   56  TYR56       0.0417
     83  CE2      -19.9170    5.1920  -37.1830 C.ar   56  TYR56       0.0417
     84  CZ       -20.6870    5.1390  -36.0430 C.ar   56  TYR56       0.1957
     85  OH       -21.6040    6.1440  -35.7680 O.3    56  TYR56      -0.2866
     86  N        -29.2580    8.6840  -36.8290 N.3    80  ASP80      -0.1239
     87  CA       -29.8940    9.5200  -35.8100 C.3    80  ASP80       0.1674
     88  C        -30.0970   10.7580  -36.5820 C.2    80  ASP80       0.2266
     89  O        -29.2390   11.6160  -36.5340 O.2    80  ASP80      -0.2867
     90  CB       -28.9280    9.7140  -34.6230 C.3    80  ASP80       0.1410
     91  CG       -29.2140   10.9600  -33.7940 C.2    80  ASP80       0.3668
     92  OD1      -30.3530   11.4600  -33.7770 O.co2  80  ASP80      -0.2456
     93  OD2      -28.2550   11.4470  -33.1580 O.co2  80  ASP80      -0.2456
     94  N        -31.6170   14.9550  -29.3290 N.3   493  PHE493     -0.1241
     95  CA       -31.1340   14.0430  -28.2730 C.3   493  PHE493      0.1605
     96  C        -32.1940   13.0400  -27.8600 C.2   493  PHE493      0.2264
     97  O        -31.8520   11.9620  -27.3340 O.2   493  PHE493     -0.2867
     98  CB       -30.6810   14.7790  -26.9840 C.3   493  PHE493      0.0534
     99  CG       -29.2460   15.1720  -26.9880 C.ar  493  PHE493     -0.0203
    100  CD1      -28.2520   14.2010  -27.0800 C.ar  493  PHE493     -0.0042
    101  CD2      -28.8870   16.5200  -26.9920 C.ar  493  PHE493     -0.0042
    102  CE1      -26.9360   14.5510  -27.1360 C.ar  493  PHE493     -0.0003
    103  CE2      -27.5440   16.8770  -27.0560 C.ar  493  PHE493     -0.0003
    104  CZ       -26.5740   15.8760  -27.1130 C.ar  493  PHE493     -0.0000
    105  N        -31.8560    9.7550  -29.6080 N.3   496  SER496     -0.1217
    106  CA       -30.6080    9.0230  -29.3200 C.3   496  SER496      0.1889
    107  C        -30.5690    8.5480  -27.8620 C.2   496  SER496      0.2288
    108  O        -29.5780    7.8760  -27.4150 O.2   496  SER496     -0.2866
    109  CB       -29.3980    9.9190  -29.5670 C.3   496  SER496      0.2089
    110  OG       -29.4170   10.9680  -28.6400 O.3   496  SER496     -0.2183
    111  N        -32.8320    4.7970  -28.8600 N.3   499  TYR499     -0.1241
    112  CA       -32.5470    3.8860  -29.9790 C.3   499  TYR499      0.1605
    113  C        -31.9400    2.5170  -29.5640 C.2   499  TYR499      0.2264
    114  O        -32.3100    1.4800  -30.1480 O.2   499  TYR499     -0.2867
    115  CB       -31.6370    4.5560  -31.0330 C.3   499  TYR499      0.0534
    116  CG       -30.1820    4.5750  -30.6080 C.ar  499  TYR499     -0.0201
    117  CD1      -29.7820    5.2710  -29.4400 C.ar  499  TYR499     -0.0009
    118  CD2      -29.2030    3.8590  -31.3090 C.ar  499  TYR499     -0.0009
    119  CE1      -28.4590    5.2870  -29.0370 C.ar  499  TYR499      0.0417
    120  CE2      -27.8830    3.8760  -30.8850 C.ar  499  TYR499      0.0417
    121  CZ       -27.5300    4.5880  -29.7360 C.ar  499  TYR499      0.1957
    122  OH       -26.2310    4.6470  -29.2920 O.3   499  TYR499     -0.2866
    123  N        -18.3940    5.0400  -28.0470 N.3   529  GLY529     -0.1210
    124  CA       -18.7090    6.3210  -28.6990 C.3   529  GLY529      0.1956
    125  C        -17.8120    7.4280  -28.2010 C.2   529  GLY529      0.2612
    126  O        -17.1810    7.3200  -27.0840 O.2   529  GLY529     -0.2717
    127  N        -17.7950    8.5220  -28.9420 N.am  530  GLY530     -0.1956
    128  CA       -16.9450    9.6650  -28.5510 C.3   530  GLY530      0.1869
    129  C        -16.9490    9.9560  -27.0600 C.2   530  GLY530      0.2309
    130  O        -17.9170    9.6330  -26.3880 O.2   530  GLY530     -0.2863
    131  N        -16.8370   13.0390  -26.2940 N.3   532  GLU532     -0.1231
    132  CA       -17.7080   14.2020  -26.4240 C.3   532  GLU532      0.1699
    133  C        -19.0770   14.0790  -25.7400 C.2   532  GLU532      0.2592
    134  O        -19.6840   15.0990  -25.4110 O.2   532  GLU532     -0.2718
    135  CB       -17.9090   14.6020  -27.9400 C.3   532  GLU532      0.0402
    136  CG       -18.6450   13.6130  -28.8290 C.3   532  GLU532      0.1161
    137  CD       -18.9160   14.1100  -30.2630 C.2   532  GLU532      0.3649
    138  OE1      -19.0170   15.3380  -30.4820 O.co2 532  GLU532     -0.2457
    139  OE2      -19.0340   13.2610  -31.2000 O.co2 532  GLU532     -0.2457
    140  N        -19.5740   12.8550  -25.5730 N.am  533  HIS533     -0.1976
    141  CA       -20.9540   12.5960  -25.1540 C.3   533  HIS533      0.1656
    142  C        -20.9460   12.0180  -23.7790 C.2   533  HIS533      0.2291
    143  O        -21.9490   11.4480  -23.3140 O.2   533  HIS533     -0.2864
    144  CB       -21.5760   11.4870  -26.0080 C.3   533  HIS533      0.0771
    145  CG       -21.7430   11.8080  -27.4430 C.ar  533  HIS533      0.0820
    146  ND1      -22.6000   12.7880  -27.8920 N.ar  533  HIS533     -0.2267
    147  CD2      -21.2610   11.1920  -28.5440 C.ar  533  HIS533      0.1154
    148  CE1      -22.5810   12.7960  -29.2120 C.ar  533  HIS533      0.1986
    149  NE2      -21.7700   11.8420  -29.6310 N.ar  533  HIS533     -0.2212
    150  N        -25.3960   13.2210  -23.7000 N.3   537  HIS537     -0.1241
    151  CA       -26.0410   12.0860  -24.3220 C.3   537  HIS537      0.1621
    152  C        -26.1150   10.9400  -23.3150 C.2   537  HIS537      0.2264
    153  O        -27.1570   10.3140  -23.1320 O.2   537  HIS537     -0.2867
    154  CB       -25.3020   11.6700  -25.5920 C.3   537  HIS537      0.0745
    155  CG       -25.6280   10.2800  -26.0500 C.ar  537  HIS537      0.0817
    156  ND1      -26.9220    9.8160  -26.1680 N.ar  537  HIS537     -0.2268
    157  CD2      -24.8280    9.2590  -26.4480 C.ar  537  HIS537      0.1154
    158  CE1      -26.9070    8.5660  -26.5980 C.ar  537  HIS537      0.1986
    159  NE2      -25.6460    8.2060  -26.7830 N.ar  537  HIS537     -0.2212
    160  N        -14.0560    6.6490  -26.8160 N.3   566  GLN566     -0.1231
    161  CA       -12.8770    6.7810  -27.6120 C.3   566  GLN566      0.1698
    162  C        -12.5050    8.2360  -27.5290 C.2   566  GLN566      0.2593
    163  O        -13.3490    9.0530  -27.1930 O.2   566  GLN566     -0.2718
    164  CB       -13.1510    6.3500  -29.0520 C.3   566  GLN566      0.0381
    165  CG       -13.7940    7.3800  -29.9740 C.3   566  GLN566      0.0905
    166  CD       -13.9330    6.7920  -31.3680 C.2   566  GLN566      0.2608
    167  OE1      -13.4120    5.6970  -31.6230 O.2   566  GLN566     -0.2717
    168  NE2      -14.6250    7.4820  -32.2760 N.am  566  GLN566     -0.0878
    169  N        -11.2320    8.5440  -27.7780 N.am  567  GLY567     -0.1942
    170  CA       -10.7930    9.9040  -27.8770 C.3   567  GLY567      0.2014
    171  C        -11.3370   10.4810  -29.1580 C.2   567  GLY567      0.2639
    172  O        -11.7440    9.7580  -30.0500 O.2   567  GLY567     -0.2714
    173  N        -11.3530   11.7970  -29.2580 N.am  568  MET568     -0.1963
    174  CA       -11.8200   12.4770  -30.4880 C.3   568  MET568      0.1736
    175  C        -10.6880   12.3770  -31.4540 C.2   568  MET568      0.2616
    176  O         -9.5240   12.5000  -31.0500 O.2   568  MET568     -0.2715
    177  CB       -12.1290   13.9460  -30.2320 C.3   568  MET568      0.0427
    178  CG       -13.3690   14.1510  -29.3950 C.3   568  MET568      0.0599
    179  SD       -14.7560   13.1580  -30.0140 S.3   568  MET568     -0.1393
    180  CE       -15.0520   12.3860  -28.4600 C.3   568  MET568      0.0692
    181  N        -11.0110   12.0720  -32.7010 N.am  569  VAL569     -0.1977
    182  CA       -10.0450   12.2260  -33.7740 C.3   569  VAL569      0.1596
    183  C        -10.1490   13.6700  -34.2290 C.2   569  VAL569      0.2287
    184  O        -11.2460   14.1180  -34.5640 O.2   569  VAL569     -0.2864
    185  CB       -10.3390   11.2560  -34.9270 C.3   569  VAL569      0.0276
    186  CG1       -9.3670   11.4660  -36.0720 C.3   569  VAL569      0.0022
    187  CG2      -10.3430    9.8120  -34.4000 C.3   569  VAL569      0.0022
    188  N        -12.2650   18.4240  -32.9900 N.3   619  LYS619     -0.1231
    189  CA       -12.8400   17.1690  -33.4850 C.3   619  LYS619      0.1693
    190  C        -13.2210   17.2770  -34.9680 C.2   619  LYS619      0.2591
    191  O        -13.6160   18.3500  -35.4460 O.2   619  LYS619     -0.2718
    192  CB       -14.0350   16.7400  -32.6500 C.3   619  LYS619      0.0285
    193  CG       -15.0150   17.8490  -32.3810 C.3   619  LYS619      0.0035
    194  CD       -16.4010   17.3210  -32.5330 C.3   619  LYS619      0.0206
    195  CE       -17.2970   18.1260  -31.6320 C.3   619  LYS619      0.1093
    196  NZ       -18.7250   17.8600  -31.9150 N.3   619  LYS619     -0.1314
    197  N        -13.0880   16.1830  -35.7020 N.am  620  MET620     -0.1979
    198  CA       -13.4850   16.2100  -37.1050 C.3   620  MET620      0.1605
    199  C        -14.9940   16.3080  -37.2240 C.2   620  MET620      0.2287
    200  O        -15.7200   15.4330  -36.7270 O.2   620  MET620     -0.2864
    201  CB       -13.0440   14.9320  -37.8030 C.3   620  MET620      0.0413
    202  CG       -11.7610   14.9770  -38.5540 C.3   620  MET620      0.0598
    203  SD       -11.4750   13.2880  -39.1050 S.3   620  MET620     -0.1393
    204  CE        -9.7010   13.4810  -39.4390 C.3   620  MET620      0.0692
@<TRIPOS>BOND
     1    39    38    2
     2    38    37    1
     3    37    36    1
     4    37    40    1
     5    42    43    1
     6    40    41    1
     7    43    46    1
     8    43    44    1
     9    46    47    1
    10    44    45    2
    11    35    34    1
    12    47    49   ar
    13    47    48   ar
    14    27    26    2
    15   204   203    1
    16    62    64   ar
    17    62    61   ar
    18    34    33   ar
    19    34    32   ar
    20    49    51   ar
    21    64    65   ar
    22    33    31   ar
    23    26    25    1
    24   203   202    1
    25    32    30   ar
    26   202   201    1
    27    31    29   ar
    28    61    60    1
    29    61    63   ar
    30    48    50   ar
    31    60    57    1
    32    22    21    1
    33    22    23    1
    34    51    50   ar
    35    65    63   ar
    36    30    29   ar
    37    21    18    1
    38    29    28    1
    39   201   198    1
    40    25    28    1
    41    25    24    1
    42    52    53    1
    43    81    83   ar
    44    81    79   ar
    45    58    57    1
    46    58    59    2
    47   199   198    1
    48   199   200    2
    49    83    84   ar
    50    57    56    1
    51    56    54   am
    52    20    19    2
    53   198   197    1
    54    23    17    1
    55    24    19   am
    56    19    18    1
    57    78    79    1
    58    78    75    1
    59    86    87    1
    60    79    80   ar
    61    88    89    2
    62    88    87    1
    63    18    17    1
    64    53    54    1
    65    54    55    2
    66   186   185    1
    67    84    85    1
    68    84    82   ar
    69    17    11   am
    70    87    90    1
    71    76    75    1
    72    76    77    2
    73   197   190   am
    74    75    74    1
    75   191   190    2
    76    80    82   ar
    77    74    68   am
    78   190   189    1
    79   185   187    1
    80   185   182    1
    81    15    14    1
    82    11    10    1
    83    11    12    2
    84    90    91    1
    85   184   183    2
    86    13    10    1
    87    13    14    1
    88    66    67    1
    89   183   182    1
    90    10     9    1
    91    14    16    1
    92    68    67    1
    93    68    69    2
    94    91    92   ar
    95    91    93   ar
    96   182   181    1
    97    70    67    1
    98    70    71    1
    99   189   188    1
   100   189   192    1
   101     4     3    2
   102     9     3   am
   103   181   175   am
   104   192   193    1
   105   194   193    1
   106   194   195    1
   107     3     2    1
   108    71    72    2
   109    71    73   am
   110   168   166   am
   111   196   195    1
   112   167   166    2
   113   175   176    2
   114   175   174    1
   115   166   165    1
   116   118   120   ar
   117   118   116   ar
   118   139   137   ar
   119   115   116    1
   120   115   112    1
   121   120   121   ar
   122     2     1    1
   123     2     5    1
   124   116   117   ar
   125   174   177    1
   126   174   173    1
   127   138   137   ar
   128   137   136    1
   129   177   178    1
   130     5     6    1
   131   114   113    2
   132   172   171    2
   133   179   178    1
   134   179   180    1
   135   112   113    1
   136   112   111    1
   137   165   164    1
   138   121   122    1
   139   121   119   ar
   140   149   148   ar
   141   149   147   ar
   142   105   106    1
   143   109   106    1
   144   109   110    1
   145   117   119   ar
   146    94    95    1
   147   106   107    1
   148   173   171   am
   149   148   146   ar
   150   171   170    1
   151   164   161    1
   152   127   128    1
   153   127   125   am
   154   136   135    1
   155   124   125    1
   156   124   123    1
   157     6     7    1
   158   128   129    1
   159   147   145   ar
   160    95    96    1
   161    95    98    1
   162   125   126    2
   163   135   132    1
   164   146   145   ar
   165     7     8    1
   166   170   169    1
   167   107   108    2
   168    96    97    2
   169   169   162   am
   170   161   162    1
   171   161   160    1
   172   162   163    2
   173   145   144    1
   174   102   104   ar
   175   102   100   ar
   176   104   103   ar
   177   100    99   ar
   178   129   130    2
   179   103   101   ar
   180   101    99   ar
   181    99    98    1
   182   159   158   ar
   183   159   157   ar
   184   158   156   ar
   185   157   155   ar
   186   132   131    1
   187   132   133    1
   188   156   155   ar
   189   155   154    1
   190   144   141    1
   191   133   140   am
   192   133   134    2
   193   154   151    1
   194   140   141    1
   195   141   142    1
   196   151   150    1
   197   151   152    1
   198   142   143    2
   199   152   153    2
