@<TRIPOS>MOLECULE
tmp/4cqpA02.pdb
 93 88 0 0 0
SMALL
GASTEIGER

@<TRIPOS>ATOM
      1  N         36.3740   -8.8180   12.7710 N.3    91  TYR91      -0.1241
      2  CA        37.2840   -9.1330   13.8710 C.3    91  TYR91       0.1605
      3  C         38.4530   -9.9020   13.2790 C.2    91  TYR91       0.2264
      4  O         38.2460  -10.9410   12.6630 O.2    91  TYR91      -0.2867
      5  CB        36.5840   -9.9790   14.9360 C.3    91  TYR91       0.0534
      6  CG        37.3190  -10.0690   16.2600 C.ar   91  TYR91      -0.0201
      7  CD1       38.4560  -10.8490   16.3930 C.ar   91  TYR91      -0.0009
      8  CD2       36.8640   -9.3840   17.3820 C.ar   91  TYR91      -0.0009
      9  CE1       39.1290  -10.9430   17.6000 C.ar   91  TYR91       0.0417
     10  CE2       37.5300   -9.4740   18.5960 C.ar   91  TYR91       0.0417
     11  CZ        38.6610  -10.2560   18.6970 C.ar   91  TYR91       0.1957
     12  OH        39.3350  -10.3600   19.8860 O.3    91  TYR91      -0.2866
     13  N         26.5220  -11.1630   25.0390 N.3   129  LEU129     -0.1245
     14  CA        27.5580  -10.1460   25.2360 C.3   129  LEU129      0.1561
     15  C         28.7770  -10.4320   24.3700 C.2   129  LEU129      0.2260
     16  O         29.7870   -9.7310   24.4620 O.2   129  LEU129     -0.2867
     17  CB        27.9870  -10.0880   26.7010 C.3   129  LEU129      0.0270
     18  CG        26.8810  -10.0310   27.7610 C.3   129  LEU129      0.0019
     19  CD1       27.5030   -9.8650   29.1430 C.3   129  LEU129      0.0001
     20  CD2       25.8750   -8.9220   27.4700 C.3   129  LEU129      0.0001
     21  N         30.0730   -9.6040   21.6330 N.3   131  VAL131     -0.1231
     22  CA        29.9710   -8.5550   20.6220 C.3   131  VAL131      0.1692
     23  C         31.1840   -7.6320   20.6690 C.2   131  VAL131      0.2593
     24  O         31.7300   -7.3840   21.7330 O.2   131  VAL131     -0.2718
     25  CB        28.6720   -7.7320   20.7840 C.3   131  VAL131      0.0266
     26  CG1       27.4550   -8.5840   20.4400 C.3   131  VAL131      0.0020
     27  CG2       28.5440   -7.1670   22.1920 C.3   131  VAL131      0.0020
     28  N         31.5890   -7.1310   19.5040 N.am  132  SER132     -0.1938
     29  CA        32.7990   -6.3250   19.3580 C.3   132  SER132      0.2055
     30  C         32.5440   -5.0570   18.5480 C.2   132  SER132      0.2643
     31  O         31.7370   -5.0550   17.6170 O.2   132  SER132     -0.2714
     32  CB        33.8870   -7.1500   18.6640 C.3   132  SER132      0.2130
     33  OG        35.0580   -6.3790   18.4260 O.3   132  SER132     -0.2179
     34  N         33.2590   -3.9890   18.8940 N.am  133  SER133     -0.1949
     35  CA        33.1880   -2.7300   18.1550 C.3   133  SER133      0.1924
     36  C         33.8790   -2.8370   16.8020 C.2   133  SER133      0.2314
     37  O         33.6950   -1.9770   15.9460 O.2   133  SER133     -0.2863
     38  CB        33.8290   -1.6070   18.9590 C.3   133  SER133      0.2116
     39  OG        35.1890   -1.9000   19.2180 O.3   133  SER133     -0.2180
     40  N         27.8760   -2.2580   18.7010 N.3   141  SER141     -0.1217
     41  CA        28.7560   -3.4220   18.5850 C.3   141  SER141      0.1889
     42  C         27.9310   -4.6670   18.2660 C.2   141  SER141      0.2288
     43  O         26.8370   -4.8500   18.8060 O.2   141  SER141     -0.2866
     44  CB        29.5490   -3.6410   19.8710 C.3   141  SER141      0.2089
     45  OG        30.5220   -2.6300   20.0310 O.3   141  SER141     -0.2183
     46  N         29.6160  -16.0490   20.1630 N.3   149  TRP149     -0.1241
     47  CA        30.7740  -15.8940   21.0310 C.3   149  TRP149      0.1605
     48  C         30.3410  -16.0710   22.4910 C.2   149  TRP149      0.2264
     49  O         29.9020  -15.1270   23.1420 O.2   149  TRP149     -0.2867
     50  CB        31.4320  -14.5380   20.7890 C.3   149  TRP149      0.0550
     51  CG        32.7220  -14.3330   21.5090 C.ar  149  TRP149      0.0003
     52  CD1       33.3960  -15.2400   22.2760 C.ar  149  TRP149      0.0946
     53  CD2       33.5270  -13.1520   21.4870 C.ar  149  TRP149      0.0152
     54  NE1       34.5590  -14.6850   22.7530 N.ar  149  TRP149     -0.2442
     55  CE2       34.6650  -13.4050   22.2790 C.ar  149  TRP149      0.0810
     56  CE3       33.3940  -11.9010   20.8790 C.ar  149  TRP149      0.0012
     57  CZ2       35.6650  -12.4550   22.4780 C.ar  149  TRP149      0.0191
     58  CZ3       34.3900  -10.9560   21.0780 C.ar  149  TRP149      0.0001
     59  CH2       35.5100  -11.2390   21.8710 C.ar  149  TRP149      0.0015
     60  N         30.6080  -16.4440   26.3750 N.3   151  ILE151     -0.1245
     61  CA        31.4490  -16.0340   27.5010 C.3   151  ILE151      0.1561
     62  C         30.8330  -16.4770   28.8300 C.2   151  ILE151      0.2260
     63  O         29.6640  -16.8620   28.8940 O.2   151  ILE151     -0.2867
     64  CB        31.6830  -14.5090   27.5230 C.3   151  ILE151      0.0252
     65  CG1       30.3680  -13.7570   27.7280 C.3   151  ILE151      0.0019
     66  CG2       32.3450  -14.0520   26.2320 C.3   151  ILE151      0.0019
     67  CD1       30.5610  -12.3060   28.1090 C.3   151  ILE151      0.0001
     68  N         39.2460  -13.0040   32.4200 N.3   189  LYS189     -0.1231
     69  CA        38.0810  -12.1220   32.4250 C.3   189  LYS189      0.1693
     70  C         36.9080  -12.7300   31.6550 C.2   189  LYS189      0.2591
     71  O         35.7820  -12.7270   32.1440 O.2   189  LYS189     -0.2718
     72  CB        38.4120  -10.7460   31.8470 C.3   189  LYS189      0.0285
     73  CG        37.2290   -9.7810   31.9010 C.3   189  LYS189      0.0035
     74  CD        37.2130   -8.8040   30.7370 C.3   189  LYS189      0.0206
     75  CE        37.4120   -7.3690   31.1930 C.3   189  LYS189      0.1093
     76  NZ        37.4640   -6.4550   30.0180 N.3   189  LYS189     -0.1314
     77  N         37.1810  -13.2440   30.4560 N.am  190  LEU190     -0.1980
     78  CA        36.1350  -13.7530   29.5690 C.3   190  LEU190      0.1596
     79  C         35.6710  -15.1620   29.9280 C.2   190  LEU190      0.2287
     80  O         34.4750  -15.4600   29.8610 O.2   190  LEU190     -0.2864
     81  CB        36.6200  -13.7490   28.1160 C.3   190  LEU190      0.0297
     82  CG        37.0400  -12.4070   27.5120 C.3   190  LEU190      0.0022
     83  CD1       37.3740  -12.5860   26.0400 C.3   190  LEU190      0.0001
     84  CD2       35.9670  -11.3440   27.6950 C.3   190  LEU190      0.0001
     85  N         41.8600   -4.5670   17.5870 N.3   222  GLN222     -0.1245
     86  CA        41.7600   -5.8080   18.3540 C.3   222  GLN222      0.1566
     87  C         43.0990   -6.5060   18.5000 C.2   222  GLN222      0.2260
     88  O         43.7940   -6.7280   17.5150 O.2   222  GLN222     -0.2867
     89  CB        40.7780   -6.7690   17.6880 C.3   222  GLN222      0.0367
     90  CG        39.3930   -6.1920   17.4540 C.3   222  GLN222      0.0905
     91  CD        38.8030   -5.5700   18.6990 C.2   222  GLN222      0.2608
     92  OE1       38.9240   -6.1160   19.7970 O.2   222  GLN222     -0.2717
     93  NE2       38.1600   -4.4200   18.5360 N.am  222  GLN222     -0.0878
@<TRIPOS>BOND
     1     4     3    2
     2     1     2    1
     3     3     2    1
     4     2     5    1
     5     5     6    1
     6    37    36    2
     7     6     7   ar
     8     6     8   ar
     9     7     9   ar
    10    36    35    1
    11     8    10   ar
    12    90    89    1
    13    90    91    1
    14    88    87    2
    15    85    86    1
    16     9    11   ar
    17    31    30    2
    18    89    86    1
    19    35    34    1
    20    35    38    1
    21    42    41    1
    22    42    43    2
    23    86    87    1
    24    33    32    1
    25    93    91   am
    26    30    34   am
    27    30    29    1
    28    41    40    1
    29    41    44    1
    30    10    11   ar
    31    32    29    1
    32    11    12    1
    33    91    92    2
    34    38    39    1
    35    29    28    1
    36    28    23   am
    37    44    45    1
    38    46    47    1
    39    26    25    1
    40    22    23    1
    41    22    25    1
    42    22    21    1
    43    23    24    2
    44    25    27    1
    45    50    47    1
    46    50    51    1
    47    56    58   ar
    48    56    53   ar
    49    47    48    1
    50    58    59   ar
    51    53    51   ar
    52    53    55   ar
    53    51    52   ar
    54    59    57   ar
    55    52    54   ar
    56    55    57   ar
    57    55    54   ar
    58    48    49    2
    59    15    16    2
    60    15    14    1
    61    13    14    1
    62    14    17    1
    63    83    82    1
    64    66    64    1
    65    60    61    1
    66    17    18    1
    67    20    18    1
    68    61    64    1
    69    61    62    1
    70    82    84    1
    71    82    81    1
    72    64    65    1
    73    65    67    1
    74    18    19    1
    75    81    78    1
    76    62    63    2
    77    78    79    1
    78    78    77    1
    79    80    79    2
    80    76    75    1
    81    77    70   am
    82    74    75    1
    83    74    73    1
    84    70    71    2
    85    70    69    1
    86    72    73    1
    87    72    69    1
    88    68    69    1
