@<TRIPOS>MOLECULE
tmp/4cqqA01.pdb
 149 142 0 0 0
SMALL
GASTEIGER

@<TRIPOS>ATOM
      1  N         36.9050   -9.2370   12.5100 N.3    91  TYR91      -0.1241
      2  CA        37.8060   -9.5510   13.6120 C.3    91  TYR91       0.1605
      3  C         38.9820  -10.3280   13.0310 C.2    91  TYR91       0.2264
      4  O         38.7770  -11.3780   12.4270 O.2    91  TYR91      -0.2867
      5  CB        37.0880  -10.3950   14.6650 C.3    91  TYR91       0.0534
      6  CG        37.7570  -10.3950   16.0250 C.ar   91  TYR91      -0.0201
      7  CD1       38.9220  -11.1230   16.2530 C.ar   91  TYR91      -0.0009
      8  CD2       37.2220   -9.6660   17.0880 C.ar   91  TYR91      -0.0009
      9  CE1       39.5330  -11.1250   17.4990 C.ar   91  TYR91       0.0417
     10  CE2       37.8260   -9.6650   18.3380 C.ar   91  TYR91       0.0417
     11  CZ        38.9830  -10.3950   18.5370 C.ar   91  TYR91       0.1957
     12  OH        39.5860  -10.3960   19.7750 O.3    91  TYR91      -0.2866
     13  N         27.0440  -11.5750   24.8020 N.3   129  LEU129     -0.1231
     14  CA        28.0720  -10.5560   25.0000 C.3   129  LEU129      0.1693
     15  C         29.3160  -10.8450   24.1620 C.2   129  LEU129      0.2593
     16  O         30.3520  -10.2070   24.3450 O.2   129  LEU129     -0.2718
     17  CB        28.4440  -10.4610   26.4800 C.3   129  LEU129      0.0284
     18  CG        27.3090  -10.1260   27.4550 C.3   129  LEU129      0.0019
     19  CD1       27.8540  -10.0190   28.8700 C.3   129  LEU129      0.0001
     20  CD2       26.5890   -8.8430   27.0600 C.3   129  LEU129      0.0001
     21  N         29.2040  -11.7900   23.2310 N.am  130  GLY130     -0.1942
     22  CA        30.3070  -12.1450   22.3470 C.3   130  GLY130      0.2014
     23  C         30.4160  -11.2480   21.1250 C.2   130  GLY130      0.2639
     24  O         30.1700  -11.6930   19.9930 O.2   130  GLY130     -0.2714
     25  N         30.8110   -9.9940   21.3560 N.am  131  VAL131     -0.1963
     26  CA        30.8950   -8.9770   20.3010 C.3   131  VAL131      0.1727
     27  C         32.1870   -8.1610   20.3820 C.2   131  VAL131      0.2617
     28  O         32.9030   -8.2170   21.3770 O.2   131  VAL131     -0.2715
     29  CB        29.6890   -8.0110   20.3540 C.3   131  VAL131      0.0290
     30  CG1       28.3860   -8.7800   20.1750 C.3   131  VAL131      0.0023
     31  CG2       29.6720   -7.2150   21.6550 C.3   131  VAL131      0.0023
     32  N         32.4630   -7.3990   19.3270 N.am  132  SER132     -0.1936
     33  CA        33.6730   -6.5760   19.2380 C.3   132  SER132      0.2055
     34  C         33.4490   -5.3430   18.3640 C.2   132  SER132      0.2643
     35  O         32.6420   -5.3660   17.4290 O.2   132  SER132     -0.2714
     36  CB        34.8340   -7.3970   18.6720 C.3   132  SER132      0.2130
     37  OG        35.9100   -6.5620   18.2760 O.3   132  SER132     -0.2179
     38  N         34.1820   -4.2740   18.6650 N.am  133  SER133     -0.1949
     39  CA        34.0890   -3.0300   17.9030 C.3   133  SER133      0.1924
     40  C         34.7260   -3.1390   16.5120 C.2   133  SER133      0.2314
     41  O         34.5040   -2.2760   15.6630 O.2   133  SER133     -0.2863
     42  CB        34.7390   -1.8880   18.6790 C.3   133  SER133      0.2116
     43  OG        36.0650   -2.2270   19.0360 O.3   133  SER133     -0.2180
     44  N         28.7970   -2.5100   18.4950 N.3   141  SER141     -0.1217
     45  CA        29.6690   -3.6750   18.3630 C.3   141  SER141      0.1889
     46  C         28.8510   -4.9390   18.0890 C.2   141  SER141      0.2288
     47  O         27.8810   -5.2180   18.7880 O.2   141  SER141     -0.2866
     48  CB        30.5000   -3.8500   19.6350 C.3   141  SER141      0.2089
     49  OG        31.3650   -2.7440   19.8310 O.3   141  SER141     -0.2183
     50  N         30.1550  -16.4270   19.9280 N.3   149  TRP149     -0.1241
     51  CA        31.3270  -16.2340   20.7840 C.3   149  TRP149      0.1605
     52  C         30.9030  -16.3440   22.2580 C.2   149  TRP149      0.2264
     53  O         30.3790  -15.3910   22.8310 O.2   149  TRP149     -0.2867
     54  CB        31.9680  -14.8700   20.5000 C.3   149  TRP149      0.0550
     55  CG        33.2670  -14.5990   21.2300 C.ar  149  TRP149      0.0003
     56  CD1       33.9030  -15.4130   22.1300 C.ar  149  TRP149      0.0946
     57  CD2       34.0660  -13.4130   21.1360 C.ar  149  TRP149      0.0152
     58  NE1       35.0550  -14.8140   22.5790 N.ar  149  TRP149     -0.2442
     59  CE2       35.1780  -13.5860   21.9870 C.ar  149  TRP149      0.0810
     60  CE3       33.9550  -12.2240   20.4050 C.ar  149  TRP149      0.0012
     61  CZ2       36.1700  -12.6160   22.1280 C.ar  149  TRP149      0.0191
     62  CZ3       34.9430  -11.2600   20.5480 C.ar  149  TRP149      0.0001
     63  CH2       36.0360  -11.4640   21.4020 C.ar  149  TRP149      0.0015
     64  N         31.1810  -16.6750   26.3340 N.3   151  ILE151     -0.1245
     65  CA        31.9930  -16.2890   27.5010 C.3   151  ILE151      0.1561
     66  C         31.3670  -16.7850   28.8120 C.2   151  ILE151      0.2260
     67  O         30.2220  -17.2410   28.8380 O.2   151  ILE151     -0.2867
     68  CB        32.2090  -14.7590   27.5780 C.3   151  ILE151      0.0252
     69  CG1       30.9170  -14.0340   27.9760 C.3   151  ILE151      0.0019
     70  CG2       32.7300  -14.2280   26.2500 C.3   151  ILE151      0.0019
     71  CD1       31.0660  -12.5320   28.0950 C.3   151  ILE151      0.0001
     72  N         39.1700  -18.6940   19.7380 N.3   179  HIS179     -0.1241
     73  CA        39.6840  -17.3580   20.0160 C.3   179  HIS179      0.1621
     74  C         41.0350  -17.4370   20.7220 C.2   179  HIS179      0.2264
     75  O         41.1760  -18.1160   21.7450 O.2   179  HIS179     -0.2867
     76  CB        38.6980  -16.5670   20.8780 C.3   179  HIS179      0.0745
     77  CG        39.2450  -15.2670   21.3750 C.ar  179  HIS179      0.0817
     78  ND1       39.3220  -14.9550   22.7150 N.ar  179  HIS179     -0.2268
     79  CD2       39.7640  -14.2070   20.7130 C.ar  179  HIS179      0.1154
     80  CE1       39.8490  -13.7530   22.8570 C.ar  179  HIS179      0.1986
     81  NE2       40.1270  -13.2770   21.6570 N.ar  179  HIS179     -0.2212
     82  N         44.8800  -12.2460   24.1470 N.3   182  ASN182     -0.1240
     83  CA        46.0980  -11.4580   24.0940 C.3   182  ASN182      0.1653
     84  C         47.1600  -11.9070   25.0960 C.2   182  ASN182      0.2266
     85  O         48.3210  -12.1110   24.7310 O.2   182  ASN182     -0.2867
     86  CB        45.7810   -9.9870   24.3290 C.3   182  ASN182      0.1155
     87  CG        46.5790   -9.0950   23.4290 C.2   182  ASN182      0.2627
     88  OD1       46.3230   -9.0610   22.2330 O.2   182  ASN182     -0.2716
     89  ND2       47.5750   -8.4030   23.9830 N.am  182  ASN182     -0.0877
     90  N         43.7390  -11.8500   30.0400 N.3   186  GLU186     -0.1245
     91  CA        42.5300  -11.7980   29.2120 C.3   186  GLU186      0.1567
     92  C         41.8370  -13.1600   29.1240 C.2   186  GLU186      0.2260
     93  O         40.6120  -13.2320   28.9960 O.2   186  GLU186     -0.2867
     94  CB        42.8540  -11.2810   27.8090 C.3   186  GLU186      0.0388
     95  CG        41.6270  -10.8310   27.0310 C.3   186  GLU186      0.1160
     96  CD        41.9810  -10.1200   25.7370 C.2   186  GLU186      0.3649
     97  OE1       42.4230  -10.7920   24.7740 O.co2 186  GLU186     -0.2457
     98  OE2       41.8020   -8.8850   25.6820 O.co2 186  GLU186     -0.2457
     99  N         39.9340  -13.2850   32.3050 N.3   189  LYS189     -0.1231
    100  CA        38.9170  -12.2370   32.2300 C.3   189  LYS189      0.1693
    101  C         37.6990  -12.6290   31.3750 C.2   189  LYS189      0.2591
    102  O         36.5930  -12.1580   31.6370 O.2   189  LYS189     -0.2718
    103  CB        39.5630  -10.9440   31.7160 C.3   189  LYS189      0.0285
    104  CG        38.6160   -9.7970   31.3960 C.3   189  LYS189      0.0035
    105  CD        39.3980   -8.5180   31.1110 C.3   189  LYS189      0.0206
    106  CE        39.0550   -7.9160   29.7550 C.3   189  LYS189      0.1093
    107  NZ        37.6200   -7.5430   29.6310 N.3   189  LYS189     -0.1314
    108  N         37.9030  -13.4890   30.3720 N.am  190  LEU190     -0.1980
    109  CA        36.8200  -13.9380   29.4760 C.3   190  LEU190      0.1596
    110  C         36.2920  -15.3370   29.8070 C.2   190  LEU190      0.2287
    111  O         35.0810  -15.5670   29.8040 O.2   190  LEU190     -0.2864
    112  CB        37.2860  -13.9130   28.0100 C.3   190  LEU190      0.0297
    113  CG        37.1100  -12.5960   27.2460 C.3   190  LEU190      0.0022
    114  CD1       37.5660  -11.3930   28.0640 C.3   190  LEU190      0.0001
    115  CD2       37.8610  -12.6600   25.9280 C.3   190  LEU190      0.0001
    116  N         48.1410   -4.8010   16.4010 N.3   218  LYS218     -0.1245
    117  CA        46.7090   -4.5560   16.2510 C.3   218  LYS218      0.1561
    118  C         46.3140   -4.6340   14.7780 C.2   218  LYS218      0.2260
    119  O         47.0120   -4.1110   13.9120 O.2   218  LYS218     -0.2867
    120  CB        46.3100   -3.1920   16.8270 C.3   218  LYS218      0.0271
    121  CG        46.2290   -3.1590   18.3460 C.3   218  LYS218      0.0035
    122  CD        45.5960   -1.8720   18.8510 C.3   218  LYS218      0.0206
    123  CE        45.2740   -1.9360   20.3380 C.3   218  LYS218      0.1093
    124  NZ        46.4810   -1.8230   21.2050 N.3   218  LYS218     -0.1314
    125  N         42.1370   -2.6700   15.1190 N.3   221  GLY221     -0.1210
    126  CA        42.0570   -2.2650   16.5170 C.3   221  GLY221      0.1956
    127  C         41.9910   -3.3940   17.5310 C.2   221  GLY221      0.2612
    128  O         41.6830   -3.1560   18.6990 O.2   221  GLY221     -0.2717
    129  N         42.2870   -4.6180   17.1060 N.am  222  GLN222     -0.1965
    130  CA        42.2440   -5.7660   18.0080 C.3   222  GLN222      0.1733
    131  C         43.5460   -6.5490   17.9580 C.2   222  GLN222      0.2616
    132  O         44.0960   -6.7820   16.8810 O.2   222  GLN222     -0.2715
    133  CB        41.0730   -6.6910   17.6620 C.3   222  GLN222      0.0408
    134  CG        39.7100   -6.0100   17.6250 C.3   222  GLN222      0.0908
    135  CD        39.3350   -5.3210   18.9280 C.2   222  GLN222      0.2608
    136  OE1       39.7320   -5.7440   20.0190 O.2   222  GLN222     -0.2717
    137  NE2       38.5590   -4.2470   18.8150 N.am  222  GLN222     -0.0878
    138  N         44.0300   -6.9450   19.1320 N.am  223  ASN223     -0.1958
    139  CA        45.2360   -7.7570   19.2490 C.3   223  ASN223      0.1819
    140  C         44.9210   -9.2500   19.2480 C.2   223  ASN223      0.2621
    141  O         45.7500  -10.0650   18.8390 O.2   223  ASN223     -0.2715
    142  CB        45.9760   -7.4140   20.5330 C.3   223  ASN223      0.1195
    143  CG        46.5760   -6.0330   20.5170 C.2   223  ASN223      0.2630
    144  OD1       47.3900   -5.7110   19.6520 O.2   223  ASN223     -0.2716
    145  ND2       46.2000   -5.2130   21.4920 N.am  223  ASN223     -0.0877
    146  N         43.7280   -9.6020   19.7230 N.am  224  GLY224     -0.1954
    147  CA        43.2560  -10.9850   19.7050 C.3   224  GLY224      0.1869
    148  C         43.0730  -11.5100   18.2940 C.2   224  GLY224      0.2309
    149  O         42.9680  -10.7320   17.3470 O.2   224  GLY224     -0.2863
@<TRIPOS>BOND
     1     4     3    2
     2     1     2    1
     3     3     2    1
     4     2     5    1
     5   119   118    2
     6     5     6    1
     7   118   117    1
     8   125   126    1
     9    41    40    2
    10     6     7   ar
    11     6     8   ar
    12   117   116    1
    13   117   120    1
    14     7     9   ar
    15    40    39    1
    16   126   127    1
    17   120   121    1
    18   132   131    2
    19     8    10   ar
    20   129   127   am
    21   129   130    1
    22   149   148    2
    23    35    34    2
    24     9    11   ar
    25   127   128    2
    26   134   133    1
    27   134   135    1
    28   133   130    1
    29    39    38    1
    30    39    42    1
    31   131   130    1
    32   131   138   am
    33    46    45    1
    34    46    47    2
    35    37    36    1
    36   148   147    1
    37    10    11   ar
    38   121   122    1
    39    45    44    1
    40    45    48    1
    41    34    38   am
    42    34    33    1
    43    11    12    1
    44    36    33    1
    45    42    43    1
    46   137   135   am
    47   141   140    2
    48   122   123    1
    49   135   136    2
    50   138   139    1
    51    33    32    1
    52   140   139    1
    53   140   146   am
    54   139   142    1
    55    32    27   am
    56    48    49    1
    57   144   143    2
    58   147   146    1
    59    72    73    1
    60    50    51    1
    61    24    23    2
    62    73    74    1
    63    73    76    1
    64    30    29    1
    65    26    29    1
    66    26    27    1
    67    26    25    1
    68   123   124    1
    69    29    31    1
    70    27    28    2
    71    60    62   ar
    72    60    57   ar
    73    54    51    1
    74    54    55    1
    75   143   142    1
    76   143   145   am
    77    62    63   ar
    78    79    77   ar
    79    79    81   ar
    80    74    75    2
    81    51    52    1
    82    76    77    1
    83    23    25   am
    84    23    22    1
    85    57    55   ar
    86    57    59   ar
    87    55    56   ar
    88    77    78   ar
    89    63    61   ar
    90    81    80   ar
    91    59    61   ar
    92    59    58   ar
    93    56    58   ar
    94    88    87    2
    95    52    53    2
    96    22    21    1
    97    78    80   ar
    98    21    15   am
    99    87    89   am
   100    87    86    1
   101    83    82    1
   102    83    86    1
   103    83    84    1
   104    15    16    2
   105    15    14    1
   106    85    84    2
   107    97    96   ar
   108    13    14    1
   109    14    17    1
   110    98    96   ar
   111    96    95    1
   112   115   113    1
   113    70    68    1
   114    64    65    1
   115    17    18    1
   116    95    94    1
   117    20    18    1
   118   113   112    1
   119   113   114    1
   120    18    19    1
   121    65    68    1
   122    65    66    1
   123    68    69    1
   124    94    91    1
   125    69    71    1
   126   112   109    1
   127    66    67    2
   128    93    92    2
   129    92    91    1
   130    91    90    1
   131   109   110    1
   132   109   108    1
   133   107   106    1
   134   106   105    1
   135   111   110    2
   136   108   101   am
   137   105   104    1
   138   101   102    2
   139   101   100    1
   140   104   103    1
   141   103   100    1
   142   100    99    1
