@<TRIPOS>MOLECULE
tmp/4cqxA01.pdb
 134 126 0 0 0
SMALL
GASTEIGER

@<TRIPOS>ATOM
      1  N         67.6420  -30.3930   29.0780 N.3    93  TYR93      -0.1241
      2  CA        67.5320  -30.1700   30.5130 C.3    93  TYR93       0.1605
      3  C         66.1440  -29.5980   30.7870 C.2    93  TYR93       0.2264
      4  O         65.7970  -28.5440   30.2610 O.2    93  TYR93      -0.2867
      5  CB        68.6140  -29.2160   31.0370 C.3    93  TYR93       0.0534
      6  CG        68.8180  -29.3660   32.5310 C.ar   93  TYR93      -0.0201
      7  CD1       67.9710  -28.7300   33.4280 C.ar   93  TYR93      -0.0009
      8  CD2       69.8240  -30.1820   33.0470 C.ar   93  TYR93      -0.0009
      9  CE1       68.1300  -28.8800   34.7900 C.ar   93  TYR93       0.0417
     10  CE2       69.9890  -30.3400   34.4140 C.ar   93  TYR93       0.0417
     11  CZ        69.1370  -29.6840   35.2780 C.ar   93  TYR93       0.1957
     12  OH        69.2660  -29.8170   36.6310 O.3    93  TYR93      -0.2866
     13  N         79.8600  -26.6650   32.8460 N.3   131  GLY131     -0.1210
     14  CA        78.7860  -27.4990   33.3880 C.3   131  GLY131      0.1956
     15  C         78.0260  -28.2730   32.3190 C.2   131  GLY131      0.2612
     16  O         77.6500  -27.7180   31.2840 O.2   131  GLY131     -0.2717
     17  N         77.8010  -29.5580   32.5810 N.am  132  VAL132     -0.1965
     18  CA        77.0680  -30.4290   31.6690 C.3   132  VAL132      0.1727
     19  C         76.0420  -31.2680   32.4260 C.2   132  VAL132      0.2617
     20  O         76.0260  -31.2800   33.6610 O.2   132  VAL132     -0.2715
     21  CB        78.0180  -31.3720   30.8930 C.3   132  VAL132      0.0290
     22  CG1       78.8760  -30.5780   29.9200 C.3   132  VAL132      0.0023
     23  CG2       78.8920  -32.1800   31.8480 C.3   132  VAL132      0.0023
     24  N         75.1980  -31.9700   31.6680 N.am  133  SER133     -0.1936
     25  CA        74.1970  -32.8650   32.2340 C.3   133  SER133      0.2055
     26  C         73.9660  -34.0620   31.3300 C.2   133  SER133      0.2643
     27  O         74.0040  -33.9460   30.0990 O.2   133  SER133     -0.2714
     28  CB        72.8700  -32.1320   32.4400 C.3   133  SER133      0.2130
     29  OG        71.8710  -33.0060   32.9470 O.3   133  SER133     -0.2179
     30  N         73.6970  -35.2080   31.9510 N.am  134  SER134     -0.1949
     31  CA        73.2920  -36.4020   31.2150 C.3   134  SER134      0.1924
     32  C         71.9490  -36.2040   30.5040 C.2   134  SER134      0.2314
     33  O         71.5950  -36.9850   29.6410 O.2   134  SER134     -0.2863
     34  CB        73.2170  -37.6170   32.1520 C.3   134  SER134      0.2116
     35  OG        72.2920  -37.3990   33.2030 O.3   134  SER134     -0.2180
     36  N         77.8770  -36.5830   28.4100 N.3   142  SER142     -0.1217
     37  CA        77.0880  -35.4820   28.9390 C.3   142  SER142      0.1889
     38  C         77.5600  -34.1740   28.3060 C.2   142  SER142      0.2288
     39  O         78.7530  -33.9670   28.0740 O.2   142  SER142     -0.2866
     40  CB        77.1810  -35.4150   30.4600 C.3   142  SER142      0.2089
     41  OG        76.4470  -36.4720   31.0470 O.3   142  SER142     -0.2183
     42  N         76.4780  -22.9750   31.5950 N.3   150  TRP150     -0.1241
     43  CA        76.1470  -23.2970   32.9790 C.3   150  TRP150      0.1605
     44  C         77.3360  -22.9350   33.8600 C.2   150  TRP150      0.2264
     45  O         78.3520  -23.6370   33.8590 O.2   150  TRP150     -0.2867
     46  CB        75.8520  -24.7930   33.1250 C.3   150  TRP150      0.0550
     47  CG        75.1260  -25.1750   34.3800 C.ar  150  TRP150      0.0003
     48  CD1       74.9600  -24.4250   35.5130 C.ar  150  TRP150      0.0946
     49  CD2       74.4740  -26.4200   34.6290 C.ar  150  TRP150      0.0152
     50  NE1       74.2250  -25.1220   36.4390 N.ar  150  TRP150     -0.2442
     51  CE2       73.9150  -26.3510   35.9190 C.ar  150  TRP150      0.0810
     52  CE3       74.2920  -27.5830   33.8760 C.ar  150  TRP150      0.0012
     53  CZ2       73.2000  -27.4090   36.4750 C.ar  150  TRP150      0.0191
     54  CZ3       73.5840  -28.6260   34.4280 C.ar  150  TRP150      0.0001
     55  CH2       73.0450  -28.5340   35.7130 C.ar  150  TRP150      0.0015
     56  N         79.2650  -22.5040   37.4200 N.3   152  THR152     -0.1218
     57  CA        79.2680  -23.0270   38.7840 C.3   152  THR152      0.1862
     58  C         80.4480  -22.4900   39.6010 C.2   152  THR152      0.2287
     59  O         81.3690  -21.8660   39.0690 O.2   152  THR152     -0.2866
     60  CB        79.2820  -24.5660   38.8000 C.3   152  THR152      0.1770
     61  OG1       80.3780  -25.0500   38.0160 O.3   152  THR152     -0.2211
     62  CG2       77.9930  -25.1090   38.2380 C.3   152  THR152      0.0375
     63  N         68.8880  -21.7680   36.8780 N.3   180  HIS180     -0.1241
     64  CA        68.7770  -23.1500   37.3390 C.3   180  HIS180      0.1621
     65  C         68.0600  -23.2190   38.6870 C.2   180  HIS180      0.2264
     66  O         68.4430  -22.5390   39.6330 O.2   180  HIS180     -0.2867
     67  CB        70.1590  -23.7680   37.4630 C.3   180  HIS180      0.0745
     68  CG        70.1400  -25.1910   37.9180 C.ar  180  HIS180      0.0817
     69  ND1       70.7400  -25.6060   39.0860 N.ar  180  HIS180     -0.2268
     70  CD2       69.5850  -26.2960   37.3690 C.ar  180  HIS180      0.1154
     71  CE1       70.5600  -26.9040   39.2370 C.ar  180  HIS180      0.1986
     72  NE2       69.8640  -27.3480   38.2080 N.ar  180  HIS180     -0.2212
     73  N         67.3590  -28.9660   43.2860 N.3   183  ASN183     -0.1240
     74  CA        66.4780  -29.9060   43.9850 C.3   183  ASN183      0.1653
     75  C         66.3970  -29.6630   45.4850 C.2   183  ASN183      0.2266
     76  O         65.3400  -29.8520   46.0770 O.2   183  ASN183     -0.2867
     77  CB        66.9520  -31.3480   43.7900 C.3   183  ASN183      0.1155
     78  CG        67.1110  -31.7320   42.3350 C.2   183  ASN183      0.2627
     79  OD1       66.9950  -30.9050   41.4320 O.2   183  ASN183     -0.2716
     80  ND2       67.3890  -33.0020   42.1020 N.am  183  ASN183     -0.0877
     81  N         72.3260  -29.3100   47.2200 N.3   187  GLU187     -0.1245
     82  CA        72.6880  -29.1410   45.8160 C.3   187  GLU187      0.1567
     83  C         73.0510  -27.6840   45.5400 C.2   187  GLU187      0.2260
     84  O         74.0200  -27.3940   44.8360 O.2   187  GLU187     -0.2867
     85  CB        71.5400  -29.5880   44.9100 C.3   187  GLU187      0.0388
     86  CG        71.9500  -29.8260   43.4670 C.3   187  GLU187      0.1160
     87  CD        70.7930  -30.2910   42.6030 C.2   187  GLU187      0.3649
     88  OE1       69.9720  -29.4380   42.2090 O.co2 187  GLU187     -0.2457
     89  OE2       70.7060  -31.5060   42.3050 O.co2 187  GLU187     -0.2457
     90  N         76.5580  -27.0840   46.8070 N.3   190  ARG190     -0.1231
     91  CA        77.5050  -27.8740   46.0180 C.3   190  ARG190      0.1694
     92  C         77.8150  -27.2470   44.6450 C.2   190  ARG190      0.2591
     93  O         78.9630  -27.2490   44.2020 O.2   190  ARG190     -0.2718
     94  CB        76.9830  -29.3060   45.8720 C.3   190  ARG190      0.0321
     95  CG        77.6800  -30.1600   44.8170 C.3   190  ARG190      0.0489
     96  CD        77.5070  -31.6510   45.0810 C.3   190  ARG190      0.2205
     97  NE        76.3010  -31.9620   45.8630 N.pl3 190  ARG190     -0.0865
     98  CZ        75.0900  -32.2150   45.3650 C.cat 190  ARG190      0.5346
     99  NH1       74.8700  -32.2100   44.0550 N.pl3 190  ARG190      0.1354
    100  NH2       74.0840  -32.4810   46.1970 N.pl3 190  ARG190      0.1354
    101  N         76.8010  -26.7060   43.9800 N.am  191  LEU191     -0.1980
    102  CA        76.9960  -26.1020   42.6620 C.3   191  LEU191      0.1596
    103  C         77.4690  -24.6570   42.7390 C.2   191  LEU191      0.2287
    104  O         78.3660  -24.2490   41.9950 O.2   191  LEU191     -0.2864
    105  CB        75.6990  -26.1330   41.8620 C.3   191  LEU191      0.0297
    106  CG        75.0350  -27.4770   41.6070 C.3   191  LEU191      0.0022
    107  CD1       74.1050  -27.3450   40.4080 C.3   191  LEU191      0.0001
    108  CD2       76.0590  -28.5800   41.3740 C.3   191  LEU191      0.0001
    109  N         61.3550  -36.5460   38.2910 N.3   219  LYS219     -0.1245
    110  CA        62.4040  -36.6010   37.2690 C.3   219  LYS219      0.1561
    111  C         61.8440  -36.4130   35.8620 C.2   219  LYS219      0.2260
    112  O         60.8290  -37.0120   35.5140 O.2   219  LYS219     -0.2867
    113  CB        63.1540  -37.9270   37.3150 C.3   219  LYS219      0.0271
    114  CG        64.2230  -38.0070   38.3890 C.3   219  LYS219      0.0035
    115  CD        64.7240  -39.4380   38.5400 C.3   219  LYS219      0.0206
    116  CE        66.1610  -39.4850   39.0310 C.3   219  LYS219      0.1093
    117  NZ        66.3560  -38.6340   40.2370 N.3   219  LYS219     -0.1314
    118  N         65.7790  -37.6980   33.5470 N.3   222  GLY222     -0.1210
    119  CA        66.7020  -38.0370   34.6140 C.3   222  GLY222      0.1956
    120  C         66.9040  -36.9490   35.6430 C.2   222  GLY222      0.2611
    121  O         67.5210  -37.2070   36.6700 O.2   222  GLY222     -0.2717
    122  N         66.3850  -35.7470   35.3970 N.am  223  GLN223     -0.1979
    123  CA        66.6480  -34.6090   36.2810 C.3   223  GLN223      0.1601
    124  C         65.4070  -34.1710   37.0330 C.2   223  GLN223      0.2287
    125  O         64.3270  -34.0810   36.4640 O.2   223  GLN223     -0.2864
    126  CB        67.1760  -33.4140   35.4910 C.3   223  GLN223      0.0394
    127  CG        68.2880  -33.7360   34.5120 C.3   223  GLN223      0.0908
    128  CD        69.4870  -34.4020   35.1600 C.2   223  GLN223      0.2608
    129  OE1       69.9250  -34.0080   36.2420 O.2   223  GLN223     -0.2717
    130  NE2       70.0320  -35.4180   34.4920 N.am  223  GLN223     -0.0878
    131  N         66.0300  -31.2880   38.8830 N.3   225  GLY225     -0.1225
    132  CA        66.3160  -29.8840   38.6490 C.3   225  GLY225      0.1811
    133  C         65.6050  -29.3630   37.4180 C.2   225  GLY225      0.2280
    134  O         65.2570  -30.1330   36.5330 O.2   225  GLY225     -0.2866
@<TRIPOS>BOND
     1    39    38    2
     2    38    37    1
     3    36    37    1
     4    37    40    1
     5     1     2    1
     6    33    32    2
     7    22    21    1
     8    27    26    2
     9     4     3    2
    10    40    41    1
    11    32    31    1
    12     2     3    1
    13     2     5    1
    14    21    18    1
    15    21    23    1
    16     5     6    1
    17    31    30    1
    18    31    34    1
    19    16    15    2
    20    26    30   am
    21    26    25    1
    22    42    43    1
    23    24    25    1
    24    24    19   am
    25    18    19    1
    26    18    17    1
    27    34    35    1
    28    25    28    1
    29    15    17   am
    30    15    14    1
    31    19    20    2
    32    28    29    1
    33     6     8   ar
    34     6     7   ar
    35    13    14    1
    36    43    46    1
    37    43    44    1
    38     8    10   ar
    39    46    47    1
    40     7     9   ar
    41   118   119    1
    42    45    44    2
    43    52    54   ar
    44    52    49   ar
    45    47    49   ar
    46    47    48   ar
    47    10    11   ar
    48    54    55   ar
    49   130   128   am
    50   127   128    1
    51   127   126    1
    52   119   120    1
    53    49    51   ar
    54     9    11   ar
    55   128   129    2
    56    11    12    1
    57   122   120   am
    58   122   123    1
    59   126   123    1
    60    48    50   ar
    61   112   111    2
    62   120   121    2
    63    55    53   ar
    64   111   110    1
    65    51    50   ar
    66    51    53   ar
    67   123   124    1
    68   125   124    2
    69   134   133    2
    70    63    64    1
    71   110   113    1
    72   110   109    1
    73   113   114    1
    74    64    67    1
    75    64    65    1
    76    70    68   ar
    77    70    72   ar
    78   133   132    1
    79    56    57    1
    80    67    68    1
    81    68    69   ar
    82    61    60    1
    83    72    71   ar
    84    62    60    1
    85   114   115    1
    86   115   116    1
    87   132   131    1
    88    65    66    2
    89    57    60    1
    90    57    58    1
    91   116   117    1
    92    59    58    2
    93    69    71   ar
    94   107   106    1
    95   108   106    1
    96    79    78    2
    97   106   105    1
    98   105   102    1
    99   104   103    2
   100    80    78   am
   101    88    87   ar
   102    89    87   ar
   103    78    77    1
   104    87    86    1
   105   102   103    1
   106   102   101    1
   107    73    74    1
   108    86    85    1
   109    77    74    1
   110   101    92   am
   111    74    75    1
   112    99    98    1
   113    93    92    2
   114    92    91    1
   115    95    96    1
   116    95    94    1
   117    84    83    2
   118    85    82    1
   119    96    97    1
   120    98    97    2
   121    98   100    1
   122    75    76    2
   123    83    82    1
   124    82    81    1
   125    94    91    1
   126    91    90    1
