@<TRIPOS>MOLECULE
tmp/4cqyC01.pdb
 140 133 0 0 0
SMALL
GASTEIGER

@<TRIPOS>ATOM
      1  N         -6.9950  -17.9790   53.8590 N.3    93  TYR93      -0.1241
      2  CA        -5.7930  -17.2630   54.2560 C.3    93  TYR93       0.1605
      3  C         -5.3800  -16.4200   53.0590 C.2    93  TYR93       0.2264
      4  O         -5.1710  -16.9690   51.9740 O.2    93  TYR93      -0.2867
      5  CB        -4.6500  -18.1960   54.6800 C.3    93  TYR93       0.0534
      6  CG        -3.6350  -17.4590   55.5120 C.ar   93  TYR93      -0.0201
      7  CD1       -2.6760  -16.6340   54.9140 C.ar   93  TYR93      -0.0009
      8  CD2       -3.6670  -17.5310   56.9060 C.ar   93  TYR93      -0.0009
      9  CE1       -1.7670  -15.9210   55.6830 C.ar   93  TYR93       0.0417
     10  CE2       -2.7590  -16.8210   57.6870 C.ar   93  TYR93       0.0417
     11  CZ        -1.8120  -16.0110   57.0710 C.ar   93  TYR93       0.1957
     12  OH        -0.9060  -15.3080   57.8430 O.3    93  TYR93      -0.2866
     13  N         -0.7840  -25.9630   62.5840 N.3   131  GLY131     -0.1210
     14  CA        -1.0010  -24.5340   62.3600 C.3   131  GLY131      0.1956
     15  C         -2.3540  -24.1990   61.7630 C.2   131  GLY131      0.2612
     16  O         -2.7670  -24.8000   60.7690 O.2   131  GLY131     -0.2717
     17  N         -3.0510  -23.2550   62.3880 N.am  132  VAL132     -0.1965
     18  CA        -4.3800  -22.8020   61.9360 C.3   132  VAL132      0.1727
     19  C         -4.4760  -21.2690   61.9330 C.2   132  VAL132      0.2617
     20  O         -3.5790  -20.5880   62.4180 O.2   132  VAL132     -0.2715
     21  CB        -5.5210  -23.3890   62.8100 C.3   132  VAL132      0.0290
     22  CG1       -5.6590  -24.8960   62.5980 C.3   132  VAL132      0.0023
     23  CG2       -5.3040  -23.0730   64.2860 C.3   132  VAL132      0.0023
     24  N         -5.5710  -20.7420   61.3910 N.am  133  SER133     -0.1936
     25  CA        -5.8350  -19.3040   61.3600 C.3   133  SER133      0.2055
     26  C         -7.3370  -19.0210   61.4330 C.2   133  SER133      0.2643
     27  O         -8.1490  -19.7640   60.8660 O.2   133  SER133     -0.2714
     28  CB        -5.2620  -18.6760   60.0790 C.3   133  SER133      0.2130
     29  OG        -5.5920  -17.2880   59.9870 O.3   133  SER133     -0.2179
     30  N         -7.7030  -17.9340   62.1080 N.am  134  SER134     -0.1949
     31  CA        -9.0980  -17.4920   62.1300 C.3   134  SER134      0.1924
     32  C         -9.5250  -16.9100   60.7740 C.2   134  SER134      0.2314
     33  O        -10.7160  -16.6870   60.5380 O.2   134  SER134     -0.2863
     34  CB        -9.3580  -16.4990   63.2690 C.3   134  SER134      0.2116
     35  OG        -8.6700  -15.2880   63.0330 O.3   134  SER134     -0.2180
     36  N        -10.9980  -21.5620   64.2180 N.3   142  SER142     -0.1217
     37  CA        -9.7870  -21.5080   63.4040 C.3   142  SER142      0.1889
     38  C         -9.4060  -22.8740   62.8410 C.2   142  SER142      0.2288
     39  O         -9.3510  -23.8670   63.5650 O.2   142  SER142     -0.2866
     40  CB        -8.6200  -20.9170   64.1940 C.3   142  SER142      0.2089
     41  OG        -8.9280  -19.6040   64.6150 O.3   142  SER142     -0.2183
     42  N          0.4540  -26.3580   57.3300 N.3   150  TRP150     -0.1241
     43  CA         1.2600  -25.2660   57.8730 C.3   150  TRP150      0.1605
     44  C          2.2530  -25.8000   58.8980 C.2   150  TRP150      0.2264
     45  O          1.8800  -26.0970   60.0330 O.2   150  TRP150     -0.2867
     46  CB         0.3680  -24.2290   58.5460 C.3   150  TRP150      0.0550
     47  CG         1.0050  -22.8850   58.7150 C.ar  150  TRP150      0.0003
     48  CD1        2.3440  -22.5690   58.6120 C.ar  150  TRP150      0.0946
     49  CD2        0.3320  -21.6690   59.0400 C.ar  150  TRP150      0.0152
     50  NE1        2.5310  -21.2260   58.8400 N.ar  150  TRP150     -0.2442
     51  CE2        1.3160  -20.6480   59.1040 C.ar  150  TRP150      0.0810
     52  CE3       -1.0080  -21.3380   59.2840 C.ar  150  TRP150      0.0012
     53  CZ2        0.9940  -19.3130   59.3940 C.ar  150  TRP150      0.0191
     54  CZ3       -1.3260  -20.0100   59.5740 C.ar  150  TRP150      0.0001
     55  CH2       -0.3290  -19.0180   59.6240 C.ar  150  TRP150      0.0015
     56  N          5.3040  -25.4060   61.5020 N.3   152  THR152     -0.1218
     57  CA         5.9680  -24.4040   62.3340 C.3   152  THR152      0.1862
     58  C          7.0220  -25.0810   63.2100 C.2   152  THR152      0.2287
     59  O          7.1170  -26.3160   63.2420 O.2   152  THR152     -0.2866
     60  CB         4.9760  -23.5930   63.2040 C.3   152  THR152      0.1770
     61  OG1        4.1750  -24.4820   63.9870 O.3   152  THR152     -0.2211
     62  CG2        4.0640  -22.6950   62.3450 C.3   152  THR152      0.0375
     63  N          4.6950  -19.0460   53.2360 N.3   180  HIS180     -0.1241
     64  CA         4.0760  -18.0450   54.0740 C.3   180  HIS180      0.1621
     65  C          4.9770  -16.8210   54.2040 C.2   180  HIS180      0.2264
     66  O          6.1360  -16.9340   54.6160 O.2   180  HIS180     -0.2867
     67  CB         3.7460  -18.6130   55.4520 C.3   180  HIS180      0.0745
     68  CG         3.2330  -17.5860   56.4140 C.ar  180  HIS180      0.0817
     69  ND1        3.9290  -17.2080   57.5430 N.ar  180  HIS180     -0.2268
     70  CD2        2.0960  -16.8520   56.4080 C.ar  180  HIS180      0.1154
     71  CE1        3.2350  -16.2940   58.1960 C.ar  180  HIS180      0.1986
     72  NE2        2.1200  -16.0570   57.5270 N.ar  180  HIS180     -0.2212
     73  N          4.5410  -11.1430   58.8570 N.3   183  ASN183     -0.1240
     74  CA         4.3260   -9.7210   59.1060 C.3   183  ASN183      0.1653
     75  C          5.5830   -8.9630   59.4770 C.2   183  ASN183      0.2266
     76  O          5.7360   -7.8080   59.0950 O.2   183  ASN183     -0.2867
     77  CB         3.2490   -9.5280   60.1830 C.3   183  ASN183      0.1155
     78  CG         1.8840  -10.0010   59.7200 C.2   183  ASN183      0.2627
     79  OD1        1.4930   -9.7480   58.5820 O.2   183  ASN183     -0.2716
     80  ND2        1.1590  -10.6980   60.5890 N.am  183  ASN183     -0.0877
     81  N          7.7290  -12.0690   64.1360 N.3   187  GLU187     -0.1245
     82  CA         6.7870  -13.1280   63.7670 C.3   187  GLU187      0.1567
     83  C          7.5300  -14.3010   63.1120 C.2   187  GLU187      0.2260
     84  O          7.2650  -15.4660   63.4290 O.2   187  GLU187     -0.2867
     85  CB         5.6660  -12.5980   62.8620 C.3   187  GLU187      0.0388
     86  CG         4.6190  -13.6460   62.4840 C.3   187  GLU187      0.1160
     87  CD         3.4570  -13.0640   61.6890 C.2   187  GLU187      0.3649
     88  OE1        2.5850  -12.3900   62.2810 O.co2 187  GLU187     -0.2457
     89  OE2        3.4140  -13.2780   60.4610 O.co2 187  GLU187     -0.2457
     90  N          9.2430  -16.3430   65.8220 N.3   190  ARG190     -0.1231
     91  CA         8.1870  -16.9650   66.6180 C.3   190  ARG190      0.1694
     92  C          7.6400  -18.2400   65.9560 C.2   190  ARG190      0.2591
     93  O          7.4410  -19.2490   66.6320 O.2   190  ARG190     -0.2718
     94  CB         7.0610  -15.9610   66.8800 C.3   190  ARG190      0.0321
     95  CG         6.0200  -16.4110   67.8940 C.3   190  ARG190      0.0489
     96  CD         5.1300  -15.2520   68.3360 C.3   190  ARG190      0.2205
     97  NE         4.2790  -14.7360   67.2550 N.pl3 190  ARG190     -0.0865
     98  CZ         4.3800  -13.5140   66.7270 C.cat 190  ARG190      0.5346
     99  NH1        5.2990  -12.6540   67.1670 N.pl3 190  ARG190      0.1354
    100  NH2        3.5540  -13.1460   65.7520 N.pl3 190  ARG190      0.1354
    101  N          7.4220  -18.1980   64.6400 N.am  191  LEU191     -0.1980
    102  CA         6.8630  -19.3510   63.9330 C.3   191  LEU191      0.1596
    103  C          7.9020  -20.3670   63.4560 C.2   191  LEU191      0.2287
    104  O          7.6470  -21.5670   63.4970 O.2   191  LEU191     -0.2864
    105  CB         5.9810  -18.9330   62.7400 C.3   191  LEU191      0.0297
    106  CG         4.8660  -17.8850   62.8350 C.3   191  LEU191      0.0022
    107  CD1        3.8220  -18.1570   61.7540 C.3   191  LEU191      0.0001
    108  CD2        4.2150  -17.8140   64.2130 C.3   191  LEU191      0.0001
    109  N         -4.9830   -5.8220   56.6710 N.3   219  LYS219     -0.1245
    110  CA        -5.6810   -7.0330   57.0810 C.3   219  LYS219      0.1561
    111  C         -6.6620   -7.4590   56.0030 C.2   219  LYS219      0.2260
    112  O         -7.4010   -6.6370   55.4770 O.2   219  LYS219     -0.2867
    113  CB        -6.4230   -6.8060   58.3910 C.3   219  LYS219      0.0271
    114  CG        -5.5490   -6.9080   59.6230 C.3   219  LYS219      0.0035
    115  CD        -6.4040   -6.7080   60.8650 C.3   219  LYS219      0.0206
    116  CE        -5.7360   -7.2910   62.0990 C.3   219  LYS219      0.1093
    117  NZ        -4.5850   -6.4500   62.5120 N.3   219  LYS219     -0.1314
    118  N         -9.0080  -10.6410   58.3520 N.3   222  GLY222     -0.1210
    119  CA        -8.4670  -10.4380   59.6940 C.3   222  GLY222      0.1956
    120  C         -6.9700  -10.6380   59.8440 C.2   222  GLY222      0.2612
    121  O         -6.4440  -10.5020   60.9440 O.2   222  GLY222     -0.2717
    122  N         -6.2750  -10.9550   58.7490 N.am  223  GLN223     -0.1965
    123  CA        -4.8420  -11.2620   58.8120 C.3   223  GLN223      0.1733
    124  C         -3.9810  -10.4280   57.8570 C.2   223  GLN223      0.2617
    125  O         -4.3380  -10.2130   56.6960 O.2   223  GLN223     -0.2715
    126  CB        -4.5970  -12.7580   58.5610 C.3   223  GLN223      0.0408
    127  CG        -5.1860  -13.6910   59.6200 C.3   223  GLN223      0.0908
    128  CD        -4.6730  -13.3930   61.0270 C.2   223  GLN223      0.2608
    129  OE1       -3.4780  -13.2090   61.2440 O.2   223  GLN223     -0.2717
    130  NE2       -5.5820  -13.3390   61.9830 N.am  223  GLN223     -0.0878
    131  N         -2.8250   -9.9970   58.3470 N.am  224  SER224     -0.1936
    132  CA        -1.9060   -9.2010   57.5510 C.3   224  SER224      0.2055
    133  C         -0.8240  -10.0400   56.8700 C.2   224  SER224      0.2643
    134  O         -0.1500   -9.5560   55.9560 O.2   224  SER224     -0.2714
    135  CB        -1.2830   -8.0970   58.4060 C.3   224  SER224      0.2130
    136  OG        -2.1840   -7.0150   58.5450 O.3   224  SER224     -0.2179
    137  N         -0.6610  -11.2880   57.3180 N.am  225  GLY225     -0.1954
    138  CA         0.2580  -12.2390   56.6910 C.3   225  GLY225      0.1869
    139  C         -0.2770  -12.6890   55.3440 C.2   225  GLY225      0.2309
    140  O         -1.4560  -12.4700   55.0420 O.2   225  GLY225     -0.2863
@<TRIPOS>BOND
     1     4     3    2
     2     3     2    1
     3    63    64    1
     4     1     2    1
     5    64    65    1
     6    64    67    1
     7    65    66    2
     8     2     5    1
     9     5     6    1
    10     7     6   ar
    11     7     9   ar
    12   140   139    2
    13   139   138    1
    14    67    68    1
    15   112   111    2
    16     6     8   ar
    17     9    11   ar
    18   134   133    2
    19   111   110    1
    20    70    68   ar
    21    70    72   ar
    22    68    69   ar
    23   109   110    1
    24   138   137    1
    25   125   124    2
    26   133   137   am
    27   133   132    1
    28     8    10   ar
    29    11    10   ar
    30    11    12    1
    31   110   113    1
    32    42    43    1
    33    72    71   ar
    34    69    71   ar
    35   132   131    1
    36   132   135    1
    37   124   131   am
    38   124   123    1
    39    43    46    1
    40    43    44    1
    41   118   119    1
    42   113   114    1
    43   135   136    1
    44    46    47    1
    45   126   123    1
    46   126   127    1
    47    79    78    2
    48    48    47   ar
    49    48    50   ar
    50    47    49   ar
    51   122   123    1
    52   122   120   am
    53    50    51   ar
    54    73    74    1
    55    44    45    2
    56    49    51   ar
    57    49    52   ar
    58    76    75    2
    59    51    53   ar
    60    74    75    1
    61    74    77    1
    62    52    54   ar
    63    53    55   ar
    64    54    55   ar
    65   127   128    1
    66   114   115    1
    67   119   120    1
    68    78    77    1
    69    78    80   am
    70   120   121    2
    71    29    28    1
    72    28    25    1
    73    89    87   ar
    74    33    32    2
    75    16    15    2
    76    32    31    1
    77   115   116    1
    78    27    26    2
    79   128   129    2
    80   128   130   am
    81    25    24    1
    82    25    26    1
    83    24    19   am
    84    26    30   am
    85    56    57    1
    86    87    88   ar
    87    87    86    1
    88   107   106    1
    89    15    14    1
    90    15    17   am
    91    19    18    1
    92    19    20    2
    93    18    17    1
    94    18    21    1
    95   116   117    1
    96    30    31    1
    97    31    34    1
    98    57    60    1
    99    57    58    1
   100    62    60    1
   101    14    13    1
   102    86    85    1
   103    22    21    1
   104   105   106    1
   105   105   102    1
   106    21    23    1
   107   106   108    1
   108    38    37    1
   109    38    39    2
   110    85    82    1
   111    35    34    1
   112    83    84    2
   113    83    82    1
   114    60    61    1
   115    58    59    2
   116    37    40    1
   117    37    36    1
   118   103   104    2
   119   103   102    1
   120    82    81    1
   121   102   101    1
   122    40    41    1
   123   101    92   am
   124   100    98    1
   125    90    91    1
   126    92    91    1
   127    92    93    2
   128    91    94    1
   129    98    99    1
   130    98    97    2
   131    94    95    1
   132    97    96    1
   133    95    96    1
