@<TRIPOS>MOLECULE
tmp/4cr7D00.pdb
 109 105 0 0 0
SMALL
GASTEIGER

@<TRIPOS>ATOM
      1  N         77.0780   87.4190  106.3610 N.3    87  LYS87      -0.1231
      2  CA        76.8230   87.5650  107.8020 C.3    87  LYS87       0.1693
      3  C         78.0250   87.0420  108.5890 C.2    87  LYS87       0.2593
      4  O         78.9930   86.5520  108.0210 O.2    87  LYS87      -0.2718
      5  CB        75.5280   86.8410  108.2070 C.3    87  LYS87       0.0285
      6  CG        74.2950   87.2830  107.4050 C.3    87  LYS87       0.0035
      7  CD        72.9990   86.6070  107.8540 C.3    87  LYS87       0.0206
      8  CE        72.0570   86.3360  106.6760 C.3    87  LYS87       0.1093
      9  NZ        70.6060   86.1450  107.0290 N.3    87  LYS87      -0.1314
     10  N         77.9870   87.1940  109.9040 N.am   88  GLY88      -0.1942
     11  CA        79.0340   86.6310  110.7530 C.3    88  GLY88       0.2014
     12  C         80.0150   87.6630  111.2970 C.2    88  GLY88       0.2639
     13  O         80.2100   88.7510  110.7220 O.2    88  GLY88      -0.2714
     14  N         80.6440   87.2890  112.4110 N.am   89  GLY89      -0.1954
     15  CA        81.6730   88.0920  113.0630 C.3    89  GLY89       0.1869
     16  C         83.0690   87.5840  112.7540 C.2    89  GLY89       0.2309
     17  O         83.2440   86.5910  112.0730 O.2    89  GLY89      -0.2863
     18  N         69.4680   95.2960  109.5270 N.3   139  SER139     -0.1202
     19  CA        69.6040   94.5240  110.7480 C.3   139  SER139      0.2020
     20  C         69.4340   95.4680  111.9210 C.2   139  SER139      0.2619
     21  O         69.5730   96.6860  111.7750 O.2   139  SER139     -0.2717
     22  CB        70.9920   93.8980  110.7920 C.3   139  SER139      0.2103
     23  OG        71.3280   93.3460  112.0470 O.3   139  SER139     -0.2182
     24  N         69.1500   94.9110  113.0960 N.am  140  VAL140     -0.1965
     25  CA        69.2300   95.6950  114.3360 C.3   140  VAL140      0.1727
     26  C         70.6720   96.2340  114.4540 C.2   140  VAL140      0.2616
     27  O         70.9090   97.3280  115.0240 O.2   140  VAL140     -0.2715
     28  CB        68.7840   94.8830  115.5830 C.3   140  VAL140      0.0290
     29  CG1       69.0570   95.6690  116.8730 C.3   140  VAL140      0.0023
     30  CG2       67.3000   94.5860  115.5280 C.3   140  VAL140      0.0023
     31  N         71.6290   95.5150  113.8800 N.am  141  ASN141     -0.1972
     32  CA        73.0390   95.9890  113.8200 C.3   141  ASN141      0.1688
     33  C         73.2490   97.2590  112.9860 C.2   141  ASN141      0.2292
     34  O         74.3320   97.8720  113.0390 O.2   141  ASN141     -0.2864
     35  CB        74.0060   94.9110  113.3560 C.3   141  ASN141      0.1181
     36  CG        74.2150   93.7930  114.3840 C.2   141  ASN141      0.2629
     37  OD1       74.9850   93.9260  115.3410 O.2   141  ASN141     -0.2716
     38  ND2       73.5260   92.6790  114.1770 N.am  141  ASN141     -0.0877
     39  N         76.4900   94.3970  117.9660 N.3   146  GLU146     -0.1245
     40  CA        76.9030   93.1370  118.5960 C.3   146  GLU146      0.1567
     41  C         78.3910   93.1500  118.7950 C.2   146  GLU146      0.2260
     42  O         79.1010   93.8020  118.0430 O.2   146  GLU146     -0.2867
     43  CB        76.7150   91.9670  117.6640 C.3   146  GLU146      0.0388
     44  CG        75.3440   91.4490  117.5270 C.3   146  GLU146      0.1160
     45  CD        75.2990   90.4740  116.3550 C.2   146  GLU146      0.3649
     46  OE1       76.3670   89.9930  115.9550 O.co2 146  GLU146     -0.2457
     47  OE2       74.2100   90.2050  115.8310 O.co2 146  GLU146     -0.2457
     48  N         82.0930   92.0030  115.6570 N.3   149  ALA149     -0.1245
     49  CA        81.5880   91.9770  114.2840 C.3   149  ALA149      0.1562
     50  C         81.6110   93.3710  113.6450 C.2   149  ALA149      0.2260
     51  O         80.6930   93.7440  112.9370 O.2   149  ALA149     -0.2867
     52  CB        80.1580   91.4070  114.2960 C.3   149  ALA149      0.0290
     53  N         80.9160   93.8640  109.7840 N.3   152  TYR152     -0.1241
     54  CA        79.4850   93.6160  109.4920 C.3   152  TYR152      0.1605
     55  C         78.5850   94.7520  110.0350 C.2   152  TYR152      0.2264
     56  O         77.6890   95.1690  109.3620 O.2   152  TYR152     -0.2867
     57  CB        79.0790   92.2560  110.1080 C.3   152  TYR152      0.0534
     58  CG        77.5910   91.9410  110.0320 C.ar  152  TYR152     -0.0201
     59  CD1       77.0250   91.4340  108.8710 C.ar  152  TYR152     -0.0009
     60  CD2       76.7630   92.1750  111.1150 C.ar  152  TYR152     -0.0009
     61  CE1       75.6730   91.1500  108.7870 C.ar  152  TYR152      0.0417
     62  CE2       75.3940   91.9300  111.0440 C.ar  152  TYR152      0.0417
     63  CZ        74.8600   91.4240  109.8890 C.ar  152  TYR152      0.1957
     64  OH        73.5160   91.1570  109.8280 O.3   152  TYR152     -0.2866
     65  N         65.8150   93.0450  110.6890 N.2   182  PRO182     -0.2571
     66  CA        65.5770   91.8360  111.5200 C.3   182  PRO182      0.2026
     67  C         66.4770   91.7340  112.7050 C.2   182  PRO182      0.2684
     68  O         67.6250   92.1010  112.6290 O.2   182  PRO182     -0.2709
     69  CB        65.8740   90.6480  110.5970 C.2   182  PRO182      0.0085
     70  CG        66.3500   91.2220  109.2820 C.2   182  PRO182      0.0180
     71  CD        66.4110   92.7130  109.3720 C.2   182  PRO182      0.0938
     72  N         65.9370   91.2360  113.8060 N.am  183  GLY183     -0.1936
     73  CA        66.7580   90.8000  114.9260 C.3   183  GLY183      0.1999
     74  C         67.2180   89.3740  114.6560 C.2   183  GLY183      0.2481
     75  O         67.3850   88.9920  113.5070 O.2   183  GLY183     -0.2729
     76  N         67.4440   88.5680  115.7100 N.am  184  PRO184     -0.2715
     77  CA        67.8190   87.1870  115.4590 C.3   184  PRO184      0.1536
     78  C         66.7600   86.4030  114.6590 C.2   184  PRO184      0.2598
     79  O         65.5770   86.4590  114.9440 O.2   184  PRO184     -0.2715
     80  CB        68.0340   86.6090  116.8590 C.3   184  PRO184      0.0310
     81  CG        67.3320   87.5100  117.7870 C.3   184  PRO184      0.0237
     82  CD        67.2580   88.8600  117.1410 C.3   184  PRO184      0.0939
     83  N         67.2030   85.7180  113.6060 N.am  185  VAL185     -0.1978
     84  CA        66.3140   84.9260  112.7580 C.3   185  VAL185      0.1596
     85  C         66.9090   83.5480  112.5550 C.2   185  VAL185      0.2287
     86  O         68.0360   83.4400  112.1110 O.2   185  VAL185     -0.2864
     87  CB        66.0600   85.6050  111.3900 C.3   185  VAL185      0.0276
     88  CG1       65.3070   84.6900  110.4510 C.3   185  VAL185      0.0022
     89  CG2       65.2640   86.8850  111.5850 C.3   185  VAL185      0.0022
     90  N         70.0800   79.0740  117.1620 N.3   194  TYR194     -0.1241
     91  CA        70.4570   79.7490  118.4000 C.3   194  TYR194      0.1605
     92  C         70.4480   78.7760  119.5760 C.2   194  TYR194      0.2264
     93  O         70.0910   79.1400  120.7020 O.2   194  TYR194     -0.2867
     94  CB        69.5090   80.9420  118.6430 C.3   194  TYR194      0.0534
     95  CG        69.6990   82.0480  117.6250 C.ar  194  TYR194     -0.0201
     96  CD1       69.1820   81.9430  116.3500 C.ar  194  TYR194     -0.0009
     97  CD2       70.4430   83.1710  117.9300 C.ar  194  TYR194     -0.0009
     98  CE1       69.3890   82.9350  115.4040 C.ar  194  TYR194      0.0417
     99  CE2       70.6580   84.1750  117.0050 C.ar  194  TYR194      0.0417
    100  CZ        70.1210   84.0470  115.7490 C.ar  194  TYR194      0.1957
    101  OH        70.3140   85.0140  114.8180 O.3   194  TYR194     -0.2866
    102  N         63.7720   93.1530  120.8180 N.3   244  LEU244     -0.1245
    103  CA        65.1520   93.2610  121.1970 C.3   244  LEU244      0.1561
    104  C         65.5530   94.7260  121.3880 C.2   244  LEU244      0.2260
    105  O         66.1140   95.0580  122.4040 O.2   244  LEU244     -0.2867
    106  CB        66.0330   92.5830  120.1600 C.3   244  LEU244      0.0270
    107  CG        67.5460   92.7570  120.2480 C.3   244  LEU244      0.0019
    108  CD1       68.1180   92.0080  121.4340 C.3   244  LEU244      0.0001
    109  CD2       68.2140   92.2890  118.9690 C.3   244  LEU244      0.0001
@<TRIPOS>BOND
     1     1     2    1
     2     8     9    1
     3     8     7    1
     4     6     7    1
     5     6     5    1
     6     2     5    1
     7     2     3    1
     8     4     3    2
     9     3    10   am
    10    61    59   ar
    11    61    63   ar
    12    59    58   ar
    13    70    71    1
    14    70    69    2
    15    56    55    2
    16    71    65    2
    17    54    53    1
    18    54    55    1
    19    54    57    1
    20    18    19    1
    21    64    63    1
    22    63    62   ar
    23    10    11    1
    24    58    57    1
    25    58    60   ar
    26    88    87    1
    27    69    66    1
    28    65    66    1
    29    13    12    2
    30    19    22    1
    31    19    20    1
    32    11    12    1
    33    22    23    1
    34    62    60   ar
    35    12    14   am
    36    87    89    1
    37    87    84    1
    38    66    67    1
    39    21    20    2
    40    20    24   am
    41    17    16    2
    42    86    85    2
    43    14    15    1
    44    85    84    1
    45    68    67    2
    46    67    72   am
    47    16    15    1
    48    84    83    1
    49    51    50    2
    50    33    34    2
    51    33    32    1
    52    24    25    1
    53    35    32    1
    54    35    36    1
    55    75    74    2
    56    83    78   am
    57    50    49    1
    58    72    73    1
    59    32    31    1
    60    31    26   am
    61    38    36   am
    62    49    52    1
    63    49    48    1
    64    25    26    1
    65    25    28    1
    66    36    37    2
    67    26    27    2
    68    74    73    1
    69    74    76   am
    70    78    79    2
    71    78    77    1
    72   101   100    1
    73    98   100   ar
    74    98    96   ar
    75    77    76    1
    76    77    80    1
    77    30    28    1
    78    28    29    1
    79    76    82    1
    80   100    99   ar
    81    47    45   ar
    82    46    45   ar
    83    96    95   ar
    84    45    44    1
    85    80    81    1
    86    99    97   ar
    87    82    81    1
    88    90    91    1
    89    44    43    1
    90    95    97   ar
    91    95    94    1
    92    43    40    1
    93    39    40    1
    94    42    41    2
    95    91    94    1
    96    91    92    1
    97    40    41    1
    98   109   107    1
    99    92    93    2
   100   106   107    1
   101   106   103    1
   102   107   108    1
   103   102   103    1
   104   103   104    1
   105   104   105    2
