@<TRIPOS>MOLECULE
tmp/4cr8D00.pdb
 137 127 0 0 0
SMALL
GASTEIGER

@<TRIPOS>ATOM
      1  N         13.5380  -71.4460   69.5710 N.3    15  GLY15      -0.1225
      2  CA        12.7640  -71.0250   68.4220 C.3    15  GLY15       0.1811
      3  C         13.6520  -70.6190   67.2800 C.2    15  GLY15       0.2280
      4  O         13.2840  -69.7750   66.4700 O.2    15  GLY15      -0.2866
      5  N         12.7310  -70.3840   63.4990 N.3    18  GLY18      -0.1210
      6  CA        11.7430  -69.3880   63.0990 C.3    18  GLY18       0.1956
      7  C         12.3790  -68.0870   62.6670 C.2    18  GLY18       0.2612
      8  O         13.5920  -67.9270   62.8030 O.2    18  GLY18      -0.2717
      9  N         11.5600  -67.1340   62.2180 N.am   19  GLY19      -0.1942
     10  CA        12.0580  -65.8450   61.6920 C.3    19  GLY19       0.2014
     11  C         12.8640  -65.0630   62.7160 C.2    19  GLY19       0.2639
     12  O         14.0290  -64.7370   62.4960 O.2    19  GLY19      -0.2714
     13  N         12.2580  -64.7830   63.8660 N.am   20  ILE20      -0.1963
     14  CA        12.9740  -64.0350   64.9200 C.3    20  ILE20       0.1727
     15  C         14.1950  -64.8030   65.4480 C.2    20  ILE20       0.2616
     16  O         15.2840  -64.2490   65.5370 O.2    20  ILE20      -0.2715
     17  CB        12.0550  -63.6140   66.0810 C.3    20  ILE20       0.0290
     18  CG1       11.0490  -62.5630   65.5730 C.3    20  ILE20       0.0022
     19  CG2       12.8980  -63.0890   67.2440 C.3    20  ILE20       0.0023
     20  CD1        9.8340  -62.3330   66.4370 C.3    20  ILE20       0.0001
     21  N         14.0180  -66.0740   65.7710 N.am   21  GLY21      -0.1955
     22  CA        15.1240  -66.8930   66.2620 C.3    21  GLY21       0.1869
     23  C         16.2880  -67.0370   65.2780 C.2    21  GLY21       0.2309
     24  O         17.4490  -66.9730   65.6790 O.2    21  GLY21      -0.2863
     25  N         15.4030  -75.8310   68.3830 N.3    39  ASP39      -0.1225
     26  CA        14.0570  -75.8230   67.8410 C.3    39  ASP39       0.1805
     27  C         13.6710  -77.3110   67.7070 C.2    39  ASP39       0.2597
     28  O         14.4130  -78.1850   68.1610 O.2    39  ASP39      -0.2718
     29  CB        14.0170  -75.0970   66.4800 C.3    39  ASP39       0.1424
     30  CG        12.6690  -74.4610   66.1720 C.2    39  ASP39       0.3668
     31  OD1       11.6660  -75.2060   66.0520 O.co2  39  ASP39      -0.2456
     32  OD2       12.6190  -73.2140   66.0240 O.co2  39  ASP39      -0.2456
     33  N         12.5110  -77.5810   67.1220 N.am   40  LEU40      -0.1979
     34  CA        12.1140  -78.9410   66.8310 C.3    40  LEU40       0.1596
     35  C         13.1040  -79.5520   65.8520 C.2    40  LEU40       0.2287
     36  O         13.6370  -78.8660   64.9930 O.2    40  LEU40      -0.2864
     37  CB        10.6940  -78.9640   66.2620 C.3    40  LEU40       0.0297
     38  CG         9.5730  -78.6130   67.2560 C.3    40  LEU40       0.0022
     39  CD1        8.2510  -78.3910   66.5200 C.3    40  LEU40       0.0001
     40  CD2        9.4350  -79.6720   68.3310 C.3    40  LEU40       0.0001
     41  N         12.6280  -79.0150   62.0620 N.3    43  ARG43      -0.1245
     42  CA        12.7780  -77.6100   61.7190 C.3    43  ARG43       0.1563
     43  C         14.2750  -77.2430   61.6560 C.2    43  ARG43       0.2260
     44  O         14.7390  -76.6540   60.6680 O.2    43  ARG43      -0.2867
     45  CB        11.9630  -76.7430   62.6920 C.3    43  ARG43       0.0307
     46  CG        10.4480  -76.9000   62.4990 C.3    43  ARG43       0.0489
     47  CD         9.9570  -75.9220   61.4310 C.3    43  ARG43       0.2205
     48  NE         9.8020  -74.5630   61.9870 N.pl3  43  ARG43      -0.0865
     49  CZ        10.0750  -73.4220   61.3520 C.cat  43  ARG43       0.5346
     50  NH1       10.5610  -73.4310   60.1090 N.pl3  43  ARG43       0.1354
     51  NH2        9.8670  -72.2570   61.9580 N.pl3  43  ARG43       0.1354
     52  N         15.1800  -79.6630   70.5050 N.3    59  CYS59      -0.1221
     53  CA        14.4970  -79.6070   71.8020 C.3    59  CYS59       0.1808
     54  C         13.0370  -79.2800   71.6710 C.2    59  CYS59       0.2601
     55  O         12.6670  -78.1430   71.4330 O.2    59  CYS59      -0.2717
     56  CB        15.1440  -78.5740   72.7210 C.3    59  CYS59       0.0970
     57  SG        14.4390  -78.6330   74.3960 S.3    59  CYS59      -0.0800
     58  N         12.2080  -80.2890   71.8440 N.am   60  ASP60      -0.1959
     59  CA        10.7590  -80.1350   71.8470 C.3    60  ASP60       0.1840
     60  C         10.2800  -79.5560   73.1770 C.2    60  ASP60       0.2622
     61  O         10.3690  -80.2040   74.2230 O.2    60  ASP60      -0.2715
     62  CB        10.1070  -81.5080   71.6020 C.3    60  ASP60       0.1450
     63  CG         8.5900  -81.4260   71.4710 C.2    60  ASP60       0.3671
     64  OD1        7.9970  -80.3470   71.7490 O.co2  60  ASP60      -0.2456
     65  OD2        7.9950  -82.4510   71.0780 O.co2  60  ASP60      -0.2456
     66  N          9.7250  -78.3570   73.1400 N.am   61  LEU61      -0.1963
     67  CA         9.2630  -77.6870   74.3690 C.3    61  LEU61       0.1728
     68  C          8.1370  -78.4300   75.1180 C.2    61  LEU61       0.2616
     69  O          7.9340  -78.2160   76.3170 O.2    61  LEU61      -0.2715
     70  CB         8.7710  -76.2860   74.0680 C.3    61  LEU61       0.0311
     71  CG         9.6730  -75.0510   74.0700 C.3    61  LEU61       0.0022
     72  CD1       11.0050  -75.1440   74.7940 C.3    61  LEU61       0.0001
     73  CD2        9.6950  -74.3140   72.7410 C.3    61  LEU61       0.0001
     74  N          7.4060  -79.2910   74.4190 N.am   62  ALA62      -0.1977
     75  CA         6.3530  -80.1140   75.0510 C.3    62  ALA62       0.1597
     76  C          6.9100  -81.2960   75.8560 C.2    62  ALA62       0.2287
     77  O          6.2000  -81.9100   76.6160 O.2    62  ALA62      -0.2864
     78  CB         5.3630  -80.6190   74.0040 C.3    62  ALA62       0.0319
     79  N         12.7230  -67.9610   72.7280 N.3    87  GLY87      -0.1210
     80  CA        11.8630  -67.5530   71.6210 C.3    87  GLY87       0.1956
     81  C         10.9120  -68.6090   71.0860 C.2    87  GLY87       0.2612
     82  O          9.9870  -68.2870   70.3570 O.2    87  GLY87      -0.2717
     83  N         11.0940  -69.8650   71.4580 N.am   88  GLY88      -0.1942
     84  CA        10.2470  -70.9660   70.9680 C.3    88  GLY88       0.2014
     85  C          8.8050  -70.8160   71.4090 C.2    88  GLY88       0.2639
     86  O          8.5430  -70.5840   72.5770 O.2    88  GLY88      -0.2714
     87  N          7.8740  -70.9320   70.4570 N.am   89  ALA89      -0.1963
     88  CA         6.4590  -70.6280   70.7080 C.3    89  ALA89       0.1728
     89  C          5.5470  -71.1010   69.5780 C.2    89  ALA89       0.2616
     90  O          5.9060  -70.9880   68.4080 O.2    89  ALA89      -0.2715
     91  CB         6.2860  -69.1290   70.8820 C.3    89  ALA89       0.0334
     92  N          4.3800  -71.6290   69.9290 N.am   90  LEU90      -0.1963
     93  CA         3.3140  -71.8410   68.9480 C.3    90  LEU90       0.1728
     94  C          2.6640  -70.4950   68.6530 C.2    90  LEU90       0.2616
     95  O          2.3710  -69.7430   69.5740 O.2    90  LEU90      -0.2715
     96  CB         2.2460  -72.7990   69.5050 C.3    90  LEU90       0.0311
     97  CG         2.5200  -74.3000   69.4940 C.3    90  LEU90       0.0022
     98  CD1        1.3530  -75.0370   70.1560 C.3    90  LEU90       0.0001
     99  CD2        2.7620  -74.7820   68.0690 C.3    90  LEU90       0.0001
    100  N          2.4030  -70.1960   67.3890 N.am   91  LYS91      -0.1977
    101  CA         1.8170  -68.8880   67.0300 C.3    91  LYS91       0.1596
    102  C          0.3320  -69.0300   66.6950 C.2    91  LYS91       0.2287
    103  O         -0.2150  -70.1560   66.6000 O.2    91  LYS91      -0.2864
    104  CB         2.5610  -68.2630   65.8410 C.3    91  LYS91       0.0298
    105  CG         4.0240  -67.9610   66.1420 C.3    91  LYS91       0.0038
    106  CD         4.1310  -66.7450   67.0510 C.3    91  LYS91       0.0206
    107  CE         5.6080  -66.3950   67.2270 C.3    91  LYS91       0.1093
    108  NZ         5.8530  -65.8040   68.5730 N.3    91  LYS91      -0.1314
    109  N          3.3070  -75.3620   75.8670 N.3   111  VAL111     -0.1245
    110  CA         4.4540  -75.0570   75.0400 C.3   111  VAL111      0.1561
    111  C          4.9500  -73.6380   75.3010 C.2   111  VAL111      0.2260
    112  O          6.1400  -73.4540   75.5630 O.2   111  VAL111     -0.2867
    113  CB         4.1440  -75.2340   73.5300 C.3   111  VAL111      0.0252
    114  CG1        5.2340  -74.6420   72.6620 C.3   111  VAL111      0.0019
    115  CG2        3.9100  -76.7240   73.1980 C.3   111  VAL111      0.0019
    116  N         10.9290  -63.8000   74.4370 N.3   144  ILE144     -0.1245
    117  CA        10.2260  -63.2080   73.3200 C.3   144  ILE144      0.1561
    118  C          8.7350  -63.2640   73.6390 C.2   144  ILE144      0.2260
    119  O          8.0970  -64.3240   73.6950 O.2   144  ILE144     -0.2867
    120  CB        10.5360  -63.8860   71.9690 C.3   144  ILE144      0.0252
    121  CG1       12.0440  -63.9520   71.7380 C.3   144  ILE144      0.0019
    122  CG2        9.8570  -63.1200   70.8040 C.3   144  ILE144      0.0019
    123  CD1       12.7490  -62.6200   71.8040 C.3   144  ILE144      0.0001
    124  N          5.2870  -59.1390   62.6240 N.3   192  VAL192     -0.1245
    125  CA         6.5840  -59.3260   62.0130 C.3   192  VAL192      0.1561
    126  C          6.4550  -60.3380   60.9010 C.2   192  VAL192      0.2260
    127  O          5.9940  -61.4440   61.1420 O.2   192  VAL192     -0.2867
    128  CB         7.6240  -59.8280   63.0390 C.3   192  VAL192      0.0252
    129  CG1        8.9560  -60.1180   62.3460 C.3   192  VAL192      0.0019
    130  CG2        7.8270  -58.7870   64.1260 C.3   192  VAL192      0.0019
    131  N          7.6060  -63.0870   58.6500 N.3   194  VAL194     -0.1245
    132  CA         8.6500  -64.1360   58.7210 C.3   194  VAL194      0.1561
    133  C          8.6790  -65.0370   57.4850 C.2   194  VAL194      0.2260
    134  O          9.4020  -66.0290   57.4750 O.2   194  VAL194     -0.2867
    135  CB         8.5110  -65.0310   59.9840 C.3   194  VAL194      0.0252
    136  CG1        8.6710  -64.1810   61.2290 C.3   194  VAL194      0.0019
    137  CG2        7.1650  -65.7660   60.0180 C.3   194  VAL194      0.0019
@<TRIPOS>BOND
     1   134   133    2
     2   133   132    1
     3   131   132    1
     4   132   135    1
     5   135   137    1
     6   135   136    1
     7    50    49    1
     8    44    43    2
     9   126   127    2
    10   126   125    1
    11    49    51    1
    12    49    48    2
    13    47    48    1
    14    47    46    1
    15    43    42    1
    16    10     9    1
    17    10    11    1
    18    42    41    1
    19    42    45    1
    20   125   124    1
    21   125   128    1
    22     9     7   am
    23   129   128    1
    24    12    11    2
    25    46    45    1
    26     7     8    2
    27     7     6    1
    28    11    13   am
    29   128   130    1
    30     6     5    1
    31    13    14    1
    32    14    15    1
    33    14    17    1
    34    36    35    2
    35    23    24    2
    36    23    22    1
    37    15    16    2
    38    15    21   am
    39    18    17    1
    40    18    20    1
    41    21    22    1
    42   104   105    1
    43   104   101    1
    44    35    34    1
    45    32    30   ar
    46    31    30   ar
    47    17    19    1
    48   105   106    1
    49    30    29    1
    50    37    34    1
    51    37    38    1
    52     4     3    2
    53    29    26    1
    54    39    38    1
    55   103   102    2
    56   102   101    1
    57    34    33    1
    58   101   100    1
    59   106   107    1
    60    33    27   am
    61   107   108    1
    62    38    40    1
    63     3     2    1
    64   100    94   am
    65    27    26    1
    66    27    28    2
    67    26    25    1
    68    99    97    1
    69    90    89    2
    70     2     1    1
    71    94    93    1
    72    94    95    2
    73    93    96    1
    74    93    92    1
    75    97    96    1
    76    97    98    1
    77    89    92   am
    78    89    88    1
    79    82    81    2
    80    87    88    1
    81    87    85   am
    82    52    53    1
    83    88    91    1
    84   122   120    1
    85    84    85    1
    86    84    83    1
    87    65    63   ar
    88    81    83   am
    89    81    80    1
    90    85    86    2
    91    55    54    2
    92    63    62    1
    93    63    64   ar
    94    62    59    1
    95    80    79    1
    96    54    53    1
    97    54    58   am
    98   121   123    1
    99   121   120    1
   100    53    56    1
   101    58    59    1
   102    59    60    1
   103   120   117    1
   104   114   113    1
   105    56    57    1
   106    73    71    1
   107    66    60   am
   108    66    67    1
   109    60    61    2
   110   115   113    1
   111   117   118    1
   112   117   116    1
   113   113   110    1
   114   118   119    2
   115    78    75    1
   116    70    71    1
   117    70    67    1
   118    71    72    1
   119    67    68    1
   120    74    75    1
   121    74    68   am
   122   110   111    1
   123   110   109    1
   124    75    76    1
   125    68    69    2
   126   111   112    2
   127    76    77    2
