@<TRIPOS>MOLECULE
tmp/4cr9A00.pdb
 97 94 0 0 0
SMALL
GASTEIGER

@<TRIPOS>ATOM
      1  N         50.0070   30.6160   18.2220 N.3    44  HIS44      -0.1241
      2  CA        51.3610   30.0800   18.0480 C.3    44  HIS44       0.1621
      3  C         52.0750   30.6500   16.8170 C.2    44  HIS44       0.2264
      4  O         53.2940   30.5890   16.7310 O.2    44  HIS44      -0.2867
      5  CB        51.3720   28.5480   18.0650 C.3    44  HIS44       0.0745
      6  CG        51.0770   27.9050   16.7480 C.ar   44  HIS44       0.0817
      7  ND1       49.8560   27.3400   16.4580 N.ar   44  HIS44      -0.2268
      8  CD2       51.8580   27.6880   15.6630 C.ar   44  HIS44       0.1154
      9  CE1       49.8920   26.8150   15.2450 C.ar   44  HIS44       0.1986
     10  NE2       51.0940   27.0160   14.7400 N.ar   44  HIS44      -0.2212
     11  N         55.3200   16.5380    5.6570 N.3   137  LEU137     -0.1245
     12  CA        55.9930   17.1010    6.8270 C.3   137  LEU137      0.1561
     13  C         57.1720   17.9880    6.4580 C.2   137  LEU137      0.2260
     14  O         57.2930   19.1020    6.9630 O.2   137  LEU137     -0.2867
     15  CB        56.4740   16.0040    7.7880 C.3   137  LEU137      0.0270
     16  CG        56.0150   16.1150    9.2450 C.3   137  LEU137      0.0019
     17  CD1       56.8990   15.2360   10.1220 C.3   137  LEU137      0.0001
     18  CD2       56.0020   17.5420    9.7780 C.3   137  LEU137      0.0001
     19  N         44.8050   16.2380    5.7490 N.3   182  ASP182     -0.1225
     20  CA        45.0900   16.9290    7.0120 C.3   182  ASP182      0.1805
     21  C         45.7120   18.2940    6.7260 C.2   182  ASP182      0.2598
     22  O         46.1970   18.5480    5.6220 O.2   182  ASP182     -0.2718
     23  CB        46.0700   16.0690    7.8470 C.3   182  ASP182      0.1424
     24  CG        46.2280   16.5300    9.3040 C.2   182  ASP182      0.3668
     25  OD1       45.4400   17.3630    9.8020 O.co2 182  ASP182     -0.2456
     26  OD2       47.1730   16.0260    9.9750 O.co2 182  ASP182     -0.2456
     27  N         45.7100   19.1550    7.7360 N.am  183  ALA183     -0.1966
     28  CA        46.5310   20.3570    7.7410 C.3   183  ALA183      0.1728
     29  C         47.9930   19.9620    7.9270 C.2   183  ALA183      0.2616
     30  O         48.2900   18.8610    8.3620 O.2   183  ALA183     -0.2715
     31  CB        46.1000   21.2790    8.8720 C.3   183  ALA183      0.0334
     32  N         48.9030   20.8720    7.6170 N.am  184  CYS184     -0.1954
     33  CA        50.3280   20.6230    7.8470 C.3   184  CYS184      0.1843
     34  C         51.0310   21.9340    8.1430 C.2   184  CYS184      0.2625
     35  O         50.3890   22.9760    8.2660 O.2   184  CYS184     -0.2714
     36  CB        50.9510   19.9210    6.6360 C.3   184  CYS184      0.0997
     37  SG        52.5130   19.0460    6.9810 S.3   184  CYS184     -0.0797
     38  N         52.3490   21.9210    8.2660 N.am  185  LYS185     -0.1977
     39  CA        53.0900   23.1650    8.5220 C.3   185  LYS185      0.1596
     40  C         52.6980   24.2800    7.5320 C.2   185  LYS185      0.2287
     41  O         52.6180   24.0120    6.3380 O.2   185  LYS185     -0.2864
     42  CB        54.5900   22.8930    8.4520 C.3   185  LYS185      0.0298
     43  CG        55.4490   24.1200    8.6580 C.3   185  LYS185      0.0038
     44  CD        56.8460   23.7580    9.1290 C.3   185  LYS185      0.0206
     45  CE        57.7010   25.0050    9.2240 C.3   185  LYS185      0.1093
     46  NZ        58.9240   24.7830   10.0390 N.3   185  LYS185     -0.1314
     47  N         48.6700   26.5870    9.7620 N.3   188  SER188     -0.1217
     48  CA        48.3610   27.1340   11.0900 C.3   188  SER188      0.1889
     49  C         47.6200   28.4520   11.0180 C.2   188  SER188      0.2288
     50  O         47.9740   29.3250   10.2350 O.2   188  SER188     -0.2866
     51  CB        49.6460   27.3720   11.8780 C.3   188  SER188      0.2089
     52  OG        50.2810   26.1480   12.2290 O.3   188  SER188     -0.2183
     53  N         43.1190   25.9020   12.6810 N.3   206  THR206     -0.1203
     54  CA        44.2270   24.9490   12.5340 C.3   206  THR206      0.1994
     55  C         45.3360   25.2150   13.5550 C.2   206  THR206      0.2619
     56  O         45.8640   26.3180   13.6350 O.2   206  THR206     -0.2717
     57  CB        44.7770   25.0230   11.1020 C.3   206  THR206      0.1784
     58  OG1       43.7280   24.6910   10.1880 O.3   206  THR206     -0.2211
     59  CG2       45.9490   24.0730   10.8940 C.3   206  THR206      0.0376
     60  N         45.6870   24.1880   14.3340 N.am  207  SER207     -0.1937
     61  CA        46.5200   24.3920   15.5140 C.3   207  SER207      0.2055
     62  C         47.7430   23.4690   15.5270 C.2   207  SER207      0.2643
     63  O         48.8760   23.9510   15.5070 O.2   207  SER207     -0.2714
     64  CB        45.6870   24.2150   16.7870 C.3   207  SER207      0.2130
     65  OG        46.4570   24.5090   17.9480 O.3   207  SER207     -0.2179
     66  N         47.5190   22.1620   15.5750 N.am  208  TRP208     -0.1959
     67  CA        48.6320   21.2030   15.6460 C.3   208  TRP208      0.1771
     68  C         48.2260   19.7800   15.3020 C.2   208  TRP208      0.2620
     69  O         47.0430   19.4560   15.2020 O.2   208  TRP208     -0.2715
     70  CB        49.2860   21.2350   17.0430 C.3   208  TRP208      0.0590
     71  CG        48.4160   20.7470   18.1650 C.ar  208  TRP208      0.0006
     72  CD1       47.4690   21.4670   18.8380 C.ar  208  TRP208      0.0946
     73  CD2       48.4310   19.4420   18.7720 C.ar  208  TRP208      0.0152
     74  NE1       46.8830   20.6910   19.8100 N.ar  208  TRP208     -0.2442
     75  CE2       47.4560   19.4440   19.7900 C.ar  208  TRP208      0.0810
     76  CE3       49.1710   18.2730   18.5470 C.ar  208  TRP208      0.0012
     77  CZ2       47.2100   18.3240   20.5940 C.ar  208  TRP208      0.0191
     78  CZ3       48.9220   17.1580   19.3450 C.ar  208  TRP208      0.0001
     79  CH2       47.9430   17.1910   20.3440 C.ar  208  TRP208      0.0015
     80  N         49.2330   18.9280   15.1470 N.am  209  GLY209     -0.1954
     81  CA        49.0320   17.4860   15.0370 C.3   209  GLY209      0.1869
     82  C         50.3820   16.7990   15.1280 C.2   209  GLY209      0.2309
     83  O         51.4150   17.4600   14.9920 O.2   209  GLY209     -0.2863
     84  N         52.7890   14.9440   13.2040 N.3   211  GLY211     -0.1210
     85  CA        52.9600   14.7460   11.7690 C.3   211  GLY211      0.1956
     86  C         51.7920   15.3440   11.0040 C.2   211  GLY211      0.2612
     87  O         50.9910   16.1080   11.5590 O.2   211  GLY211     -0.2717
     88  N         51.6950   15.0100    9.7240 N.am  212  CYS212     -0.1970
     89  CA        50.6100   15.5030    8.8800 C.3   212  CYS212      0.1712
     90  C         49.9330   14.3380    8.1920 C.2   212  CYS212      0.2296
     91  O         50.5810   13.5690    7.4900 O.2   212  CYS212     -0.2864
     92  CB        51.1490   16.4880    7.8440 C.3   212  CYS212      0.0983
     93  SG        52.0750   17.8550    8.5750 S.3   212  CYS212     -0.0798
     94  N         44.0740   15.7270   13.0350 N.3   219  GLY219     -0.1225
     95  CA        44.4900   17.1070   13.2190 C.3   219  GLY219      0.1811
     96  C         43.7350   17.7060   14.3910 C.2   219  GLY219      0.2280
     97  O         42.5670   17.3830   14.6150 O.2   219  GLY219     -0.2866
@<TRIPOS>BOND
     1    22    21    2
     2    11    12    1
     3    19    20    1
     4    41    40    2
     5    13    12    1
     6    13    14    2
     7    36    37    1
     8    36    33    1
     9    21    20    1
    10    21    27   am
    11    12    15    1
    12    37    93    1
    13    20    23    1
    14    91    90    2
    15    40    39    1
    16    32    33    1
    17    32    29   am
    18    27    28    1
    19    28    29    1
    20    28    31    1
    21    15    16    1
    22    92    93    1
    23    92    89    1
    24    33    34    1
    25    23    24    1
    26    29    30    2
    27    34    35    2
    28    34    38   am
    29    90    89    1
    30    38    39    1
    31    42    39    1
    32    42    43    1
    33    43    44    1
    34    89    88    1
    35    44    45    1
    36    45    46    1
    37    16    18    1
    38    16    17    1
    39    24    25   ar
    40    24    26   ar
    41    88    86   am
    42    47    48    1
    43    58    57    1
    44    50    49    2
    45    59    57    1
    46    86    87    2
    47    86    85    1
    48    49    48    1
    49    48    51    1
    50    57    54    1
    51    85    84    1
    52    51    52    1
    53    54    53    1
    54    54    55    1
    55    94    95    1
    56    95    96    1
    57    55    56    2
    58    55    60   am
    59    60    61    1
    60    96    97    2
    61    10     9   ar
    62    10     8   ar
    63    83    82    2
    64    81    82    1
    65    81    80    1
    66    80    68   am
    67    69    68    2
    68     9     7   ar
    69    68    67    1
    70    63    62    2
    71    61    62    1
    72    61    64    1
    73    62    66   am
    74    66    67    1
    75    67    70    1
    76     8     6   ar
    77     7     6   ar
    78     4     3    2
    79     6     5    1
    80    64    65    1
    81     3     2    1
    82    70    71    1
    83     2     5    1
    84     2     1    1
    85    71    73   ar
    86    71    72   ar
    87    76    73   ar
    88    76    78   ar
    89    73    75   ar
    90    72    74   ar
    91    78    79   ar
    92    75    74   ar
    93    75    77   ar
    94    79    77   ar
