@<TRIPOS>MOLECULE
tmp/4craA00.pdb
 202 200 0 0 0
SMALL
GASTEIGER

@<TRIPOS>ATOM
      1  N        -36.5740  -57.6760   -3.4840 N.3    26  ARG26      -0.1231
      2  CA       -35.2070  -57.1620   -3.2900 C.3    26  ARG26       0.1694
      3  C        -34.9580  -55.8160   -4.0010 C.2    26  ARG26       0.2592
      4  O        -35.6260  -55.5050   -4.9960 O.2    26  ARG26      -0.2718
      5  CB       -34.2080  -58.1890   -3.8190 C.3    26  ARG26       0.0321
      6  CG       -34.2730  -58.3800   -5.3260 C.3    26  ARG26       0.0489
      7  CD       -33.7140  -59.7300   -5.7300 C.3    26  ARG26       0.2205
      8  NE       -34.4570  -60.8310   -5.1270 N.pl3  26  ARG26      -0.0865
      9  CZ       -34.1650  -62.1140   -5.3200 C.cat  26  ARG26       0.5346
     10  NH1      -33.1450  -62.4430   -6.1040 N.pl3  26  ARG26       0.1354
     11  NH2      -34.8860  -63.0630   -4.7390 N.pl3  26  ARG26       0.1354
     12  N        -33.9990  -55.0350   -3.4860 N.am   27  HIS27      -0.1962
     13  CA       -33.4690  -53.8460   -4.1750 C.3    27  HIS27       0.1787
     14  C        -32.9440  -54.2160   -5.5670 C.2    27  HIS27       0.2620
     15  O        -32.1540  -55.1480   -5.7030 O.2    27  HIS27      -0.2715
     16  CB       -32.3130  -53.2570   -3.3520 C.3    27  HIS27       0.0785
     17  CG       -31.5580  -52.1730   -4.0530 C.ar   27  HIS27       0.0821
     18  ND1      -31.9840  -50.8640   -4.0590 N.ar   27  HIS27      -0.2267
     19  CD2      -30.4050  -52.1980   -4.7680 C.ar   27  HIS27       0.1154
     20  CE1      -31.1380  -50.1280   -4.7570 C.ar   27  HIS27       0.1986
     21  NE2      -30.1660  -50.9150   -5.1970 N.ar   27  HIS27      -0.2212
     22  N        -33.3670  -53.4700   -6.5900 N.am   28  LEU28      -0.1963
     23  CA       -32.8900  -53.6560   -7.9530 C.3    28  LEU28       0.1728
     24  C        -31.9190  -52.5410   -8.3770 C.2    28  LEU28       0.2616
     25  O        -30.8300  -52.8070   -8.8720 O.2    28  LEU28      -0.2715
     26  CB       -34.0950  -53.7120   -8.8980 C.3    28  LEU28       0.0311
     27  CG       -33.8780  -53.7410  -10.4120 C.3    28  LEU28       0.0022
     28  CD1      -33.0830  -54.9710  -10.8240 C.3    28  LEU28       0.0001
     29  CD2      -35.2160  -53.6940  -11.1280 C.3    28  LEU28       0.0001
     30  N        -32.3240  -51.2900   -8.1740 N.am   29  CYS29      -0.1968
     31  CA       -31.5430  -50.1480   -8.6350 C.3    29  CYS29       0.1712
     32  C        -31.8510  -48.8960   -7.8370 C.2    29  CYS29       0.2296
     33  O        -32.8720  -48.8150   -7.1530 O.2    29  CYS29      -0.2864
     34  CB       -31.8850  -49.8750  -10.1030 C.3    29  CYS29       0.0983
     35  SG       -30.9820  -50.8730  -11.3130 S.3    29  CYS29      -0.0798
     36  N        -30.5740  -50.0120  -18.2330 N.3    44  HIS44      -0.1226
     37  CA       -30.0980  -51.3970  -18.0460 C.3    44  HIS44       0.1752
     38  C        -30.7420  -52.0920  -16.8430 C.2    44  HIS44       0.2596
     39  O        -30.6970  -53.3190  -16.7270 O.2    44  HIS44      -0.2718
     40  CB       -28.5650  -51.4610  -17.9500 C.3    44  HIS44       0.0759
     41  CG       -28.0190  -50.9970  -16.6370 C.ar   44  HIS44       0.0818
     42  ND1      -27.3590  -49.7990  -16.4950 N.ar   44  HIS44      -0.2268
     43  CD2      -28.0410  -51.5680  -15.4050 C.ar   44  HIS44       0.1154
     44  CE1      -26.9860  -49.6530  -15.2340 C.ar   44  HIS44       0.1986
     45  NE2      -27.3980  -50.7070  -14.5500 N.ar   44  HIS44      -0.2212
     46  N        -31.3370  -51.3090  -15.9450 N.am   45  CYS45      -0.1970
     47  CA       -32.0390  -51.8520  -14.7760 C.3    45  CYS45       0.1712
     48  C        -33.2180  -52.7520  -15.1300 C.2    45  CYS45       0.2296
     49  O        -33.6800  -53.5060  -14.2860 O.2    45  CYS45      -0.2864
     50  CB       -32.5580  -50.7230  -13.8770 C.3    45  CYS45       0.0983
     51  SG       -31.2500  -49.8300  -13.0340 S.3    45  CYS45      -0.0798
     52  N        -33.3860  -55.0480  -17.6360 N.3    47  TYR47      -0.1241
     53  CA       -33.0210  -56.2550  -18.3530 C.3    47  TYR47       0.1605
     54  C        -33.8770  -57.3920  -17.8190 C.2    47  TYR47       0.2264
     55  O        -33.8850  -57.6590  -16.6240 O.2    47  TYR47      -0.2867
     56  CB       -31.5510  -56.6140  -18.1650 C.3    47  TYR47       0.0534
     57  CG       -31.2490  -57.9510  -18.8010 C.ar   47  TYR47      -0.0201
     58  CD1      -31.1120  -58.0560  -20.1740 C.ar   47  TYR47      -0.0009
     59  CD2      -31.1960  -59.1140  -18.0440 C.ar   47  TYR47      -0.0009
     60  CE1      -30.8760  -59.2710  -20.7770 C.ar   47  TYR47       0.0417
     61  CE2      -30.9600  -60.3410  -18.6450 C.ar   47  TYR47       0.0417
     62  CZ       -30.8040  -60.4020  -20.0120 C.ar   47  TYR47       0.1957
     63  OH       -30.5730  -61.5930  -20.6390 O.3    47  TYR47      -0.2866
     64  N        -22.8590  -52.4710   -3.5070 N.3   134  TYR134     -0.1241
     65  CA       -21.7170  -53.1770   -2.9430 C.3   134  TYR134      0.1605
     66  C        -20.6270  -52.2100   -2.4740 C.2   134  TYR134      0.2264
     67  O        -20.4170  -51.1590   -3.0760 O.2   134  TYR134     -0.2867
     68  CB       -21.1110  -54.0710   -4.0270 C.3   134  TYR134      0.0534
     69  CG       -21.8960  -55.2960   -4.4400 C.ar  134  TYR134     -0.0201
     70  CD1      -23.2750  -55.4100   -4.2450 C.ar  134  TYR134     -0.0009
     71  CD2      -21.2400  -56.3490   -5.0730 C.ar  134  TYR134     -0.0009
     72  CE1      -23.9680  -56.5430   -4.6520 C.ar  134  TYR134      0.0417
     73  CE2      -21.9230  -57.4770   -5.4950 C.ar  134  TYR134      0.0417
     74  CZ       -23.2790  -57.5750   -5.2710 C.ar  134  TYR134      0.1957
     75  OH       -23.9280  -58.7120   -5.6910 O.3   134  TYR134     -0.2866
     76  N        -16.3760  -55.1120   -5.3310 N.3   137  LEU137     -0.1245
     77  CA       -16.9360  -55.8440   -6.4760 C.3   137  LEU137      0.1561
     78  C        -17.6190  -57.1550   -6.0760 C.2   137  LEU137      0.2260
     79  O        -18.6520  -57.5130   -6.6460 O.2   137  LEU137     -0.2867
     80  CB       -15.8700  -56.1120   -7.5440 C.3   137  LEU137      0.0270
     81  CG       -16.4130  -56.7370   -8.8400 C.3   137  LEU137      0.0019
     82  CD1      -17.4900  -55.8770   -9.4940 C.3   137  LEU137      0.0001
     83  CD2      -15.2710  -56.9940   -9.8110 C.3   137  LEU137      0.0001
     84  N        -22.3410  -57.3090   -1.3020 N.3   140  LYS140     -0.1231
     85  CA       -23.7960  -57.4480   -1.2010 C.3   140  LYS140      0.1693
     86  C        -24.4510  -56.0900   -0.9640 C.2   140  LYS140      0.2591
     87  O        -23.7650  -55.1160   -0.6540 O.2   140  LYS140     -0.2718
     88  CB       -24.1540  -58.3840   -0.0510 C.3   140  LYS140      0.0285
     89  CG       -23.6400  -57.9200    1.3050 C.3   140  LYS140      0.0035
     90  CD       -23.8680  -58.9830    2.3710 C.3   140  LYS140      0.0206
     91  CE       -22.8730  -58.8550    3.5160 C.3   140  LYS140      0.1093
     92  NZ       -23.0010  -59.9850    4.4820 N.3   140  LYS140     -0.1314
     93  N        -25.7800  -56.0450   -1.0770 N.am  141  ILE141     -0.1980
     94  CA       -26.5280  -54.7900   -0.8930 C.3   141  ILE141      0.1595
     95  C        -26.4020  -54.3390    0.5570 C.2   141  ILE141      0.2287
     96  O        -26.4550  -55.1580    1.4750 O.2   141  ILE141     -0.2864
     97  CB       -28.0180  -54.9410   -1.3060 C.3   141  ILE141      0.0276
     98  CG1      -28.1280  -55.2560   -2.7980 C.3   141  ILE141      0.0022
     99  CG2      -28.8290  -53.6830   -1.0000 C.3   141  ILE141      0.0022
    100  CD1      -27.3820  -54.3050   -3.7170 C.3   141  ILE141      0.0001
    101  N        -16.0220  -45.0410   -5.5150 N.3   182  ASP182     -0.1225
    102  CA       -16.7320  -45.2990   -6.7800 C.3   182  ASP182      0.1805
    103  C        -18.1150  -45.8810   -6.4860 C.2   182  ASP182      0.2598
    104  O        -18.3900  -46.3370   -5.3710 O.2   182  ASP182     -0.2718
    105  CB       -15.9110  -46.3120   -7.6280 C.3   182  ASP182      0.1424
    106  CG       -16.3120  -46.3590   -9.1210 C.2   182  ASP182      0.3668
    107  OD1      -17.1740  -45.5780   -9.5840 O.co2 182  ASP182     -0.2456
    108  OD2      -15.7360  -47.2230   -9.8480 O.co2 182  ASP182     -0.2456
    109  N        -18.9810  -45.8430   -7.4940 N.am  183  ALA183     -0.1966
    110  CA       -20.1790  -46.6730   -7.5150 C.3   183  ALA183      0.1728
    111  C        -19.7750  -48.1280   -7.7530 C.2   183  ALA183      0.2616
    112  O        -18.6630  -48.4080   -8.2110 O.2   183  ALA183     -0.2715
    113  CB       -21.1180  -46.2020   -8.6200 C.3   183  ALA183      0.0334
    114  N        -20.6880  -49.0360   -7.4360 N.am  184  CYS184     -0.1954
    115  CA       -20.5080  -50.4770   -7.6370 C.3   184  CYS184      0.1843
    116  C        -21.8710  -51.1350   -7.8570 C.2   184  CYS184      0.2625
    117  O        -22.8870  -50.4480   -7.9680 O.2   184  CYS184     -0.2714
    118  CB       -19.7800  -51.1100   -6.4420 C.3   184  CYS184      0.0997
    119  SG       -18.8820  -52.6600   -6.7960 S.3   184  CYS184     -0.0797
    120  N        -21.8950  -52.4650   -7.9210 N.am  185  LYS185     -0.1963
    121  CA       -23.1260  -53.1950   -8.2010 C.3   185  LYS185      0.1728
    122  C        -24.2220  -52.8250   -7.2070 C.2   185  LYS185      0.2616
    123  O        -23.9860  -52.8150   -6.0010 O.2   185  LYS185     -0.2715
    124  CB       -22.8900  -54.7030   -8.1460 C.3   185  LYS185      0.0311
    125  CG       -22.1520  -55.2450   -9.3570 C.3   185  LYS185      0.0038
    126  CD       -21.6830  -56.6750   -9.1180 C.3   185  LYS185      0.0206
    127  CE       -22.8510  -57.6420   -8.9940 C.3   185  LYS185      0.1093
    128  NZ       -22.4120  -59.0660   -8.8580 N.3   185  LYS185     -0.1314
    129  N        -25.4110  -52.5360   -7.7180 N.am  186  GLY186     -0.1955
    130  CA       -26.5380  -52.1460   -6.8760 C.3   186  GLY186      0.1869
    131  C        -26.7420  -50.6450   -6.7960 C.2   186  GLY186      0.2309
    132  O        -27.8240  -50.1950   -6.4240 O.2   186  GLY186     -0.2863
    133  N        -26.3790  -48.7100   -9.5610 N.3   188  SER188     -0.1217
    134  CA       -26.7520  -48.1930  -10.8750 C.3   188  SER188      0.1889
    135  C        -28.1780  -47.6250  -10.8930 C.2   188  SER188      0.2288
    136  O        -29.0490  -48.0380  -10.1250 O.2   188  SER188     -0.2866
    137  CB       -26.5290  -49.2230  -11.9800 C.3   188  SER188      0.2089
    138  OG       -27.4620  -50.2840  -11.9170 O.3   188  SER188     -0.2183
    139  N        -25.7620  -43.1800  -12.5490 N.3   206  THR206     -0.1203
    140  CA       -24.7900  -44.2590  -12.3780 C.3   206  THR206      0.1994
    141  C        -25.0290  -45.3640  -13.4050 C.2   206  THR206      0.2619
    142  O        -26.1060  -45.9540  -13.4650 O.2   206  THR206     -0.2717
    143  CB       -24.8420  -44.7940  -10.9350 C.3   206  THR206      0.1784
    144  OG1      -24.5260  -43.7170  -10.0380 O.3   206  THR206     -0.2211
    145  CG2      -23.8520  -45.9440  -10.7220 C.3   206  THR206      0.0376
    146  N        -24.0180  -45.6270  -14.2360 N.am  207  SER207     -0.1937
    147  CA       -24.2170  -46.4820  -15.4130 C.3   207  SER207      0.2055
    148  C        -23.3090  -47.7310  -15.4170 C.2   207  SER207      0.2643
    149  O        -23.7960  -48.8660  -15.3390 O.2   207  SER207     -0.2714
    150  CB       -24.0480  -45.6670  -16.6940 C.3   207  SER207      0.2130
    151  OG       -24.4220  -46.4280  -17.8450 O.3   207  SER207     -0.2179
    152  N        -22.0040  -47.5240  -15.5150 N.am  208  TRP208     -0.1959
    153  CA       -21.0590  -48.6510  -15.6090 C.3   208  TRP208      0.1771
    154  C        -19.6320  -48.2350  -15.2690 C.2   208  TRP208      0.2620
    155  O        -19.3100  -47.0480  -15.1580 O.2   208  TRP208     -0.2715
    156  CB       -21.0940  -49.3000  -17.0180 C.3   208  TRP208      0.0590
    157  CG       -20.6330  -48.3940  -18.1490 C.ar  208  TRP208      0.0006
    158  CD1      -21.3760  -47.4480  -18.7920 C.ar  208  TRP208      0.0946
    159  CD2      -19.3310  -48.3720  -18.7780 C.ar  208  TRP208      0.0152
    160  NE1      -20.6250  -46.8330  -19.7720 N.ar  208  TRP208     -0.2442
    161  CE2      -19.3650  -47.3760  -19.7740 C.ar  208  TRP208      0.0810
    162  CE3      -18.1410  -49.0930  -18.5840 C.ar  208  TRP208      0.0012
    163  CZ2      -18.2530  -47.0780  -20.5810 C.ar  208  TRP208      0.0191
    164  CZ3      -17.0370  -48.7940  -19.3870 C.ar  208  TRP208      0.0001
    165  CH2      -17.1080  -47.8020  -20.3750 C.ar  208  TRP208      0.0015
    166  N        -18.7810  -49.2350  -15.0980 N.am  209  GLY209     -0.1954
    167  CA       -17.3460  -49.0200  -14.9780 C.3   209  GLY209      0.1869
    168  C        -16.6490  -50.3670  -15.0320 C.2   209  GLY209      0.2309
    169  O        -17.3090  -51.4140  -14.9450 O.2   209  GLY209     -0.2863
    170  N        -14.9380  -52.8830  -13.0980 N.3   211  GLY211     -0.1210
    171  CA       -14.7890  -53.1410  -11.6690 C.3   211  GLY211      0.1956
    172  C        -15.3060  -51.9540  -10.8560 C.2   211  GLY211      0.2612
    173  O        -16.0500  -51.1250  -11.3720 O.2   211  GLY211     -0.2717
    174  N        -14.9120  -51.8820   -9.5880 N.am  212  CYS212     -0.1970
    175  CA       -15.3500  -50.8120   -8.6900 C.3   212  CYS212      0.1712
    176  C        -14.1780  -50.1580   -7.9790 C.2   212  CYS212      0.2296
    177  O        -13.4590  -50.8210   -7.2350 O.2   212  CYS212     -0.2864
    178  CB       -16.3000  -51.3880   -7.6550 C.3   212  CYS212      0.0983
    179  SG       -17.7330  -52.2010   -8.4010 S.3   212  CYS212     -0.0798
    180  N        -15.6490  -44.0910  -12.7780 N.3   219  GLY219     -0.1210
    181  CA       -17.0380  -44.4780  -13.0050 C.3   219  GLY219      0.1956
    182  C        -17.5920  -43.7480  -14.2120 C.2   219  GLY219      0.2612
    183  O        -17.2570  -42.5800  -14.4550 O.2   219  GLY219     -0.2717
    184  N        -18.4390  -44.4300  -14.9780 N.am  220  VAL220     -0.1965
    185  CA       -19.0510  -43.8390  -16.1560 C.3   220  VAL220      0.1727
    186  C        -20.5370  -43.6030  -15.8910 C.2   220  VAL220      0.2616
    187  O        -21.2460  -44.5080  -15.4390 O.2   220  VAL220     -0.2715
    188  CB       -18.8470  -44.7090  -17.4130 C.3   220  VAL220      0.0290
    189  CG1      -19.3510  -43.9720  -18.6490 C.3   220  VAL220      0.0023
    190  CG2      -17.3700  -45.0620  -17.5750 C.3   220  VAL220      0.0023
    191  N        -20.9880  -42.3790  -16.1630 N.am  221  TYR221     -0.1974
    192  CA       -22.3770  -41.9690  -15.8970 C.3   221  TYR221      0.1639
    193  C        -23.0400  -41.4250  -17.1560 C.2   221  TYR221      0.2290
    194  O        -22.3750  -40.8680  -18.0430 O.2   221  TYR221     -0.2864
    195  CB       -22.4270  -40.8850  -14.8060 C.3   221  TYR221      0.0560
    196  CG       -21.7770  -41.2760  -13.4960 C.ar  221  TYR221     -0.0198
    197  CD1      -20.3840  -41.3250  -13.3620 C.ar  221  TYR221     -0.0009
    198  CD2      -22.5460  -41.5820  -12.3800 C.ar  221  TYR221     -0.0009
    199  CE1      -19.7920  -41.6990  -12.1680 C.ar  221  TYR221      0.0417
    200  CE2      -21.9560  -41.9510  -11.1820 C.ar  221  TYR221      0.0417
    201  CZ       -20.5870  -42.0060  -11.0780 C.ar  221  TYR221      0.1957
    202  OH       -20.0130  -42.3690   -9.8820 O.3   221  TYR221     -0.2866
@<TRIPOS>BOND
     1    60    58   ar
     2    60    62   ar
     3    63    62    1
     4   163   165   ar
     5   163   161   ar
     6   165   164   ar
     7    58    57   ar
     8    62    61   ar
     9   161   160   ar
    10   161   159   ar
    11   160   158   ar
    12   164   162   ar
    13    57    56    1
    14    57    59   ar
    15   158   157   ar
    16   159   162   ar
    17   159   157   ar
    18   189   188    1
    19    61    59   ar
    20    53    56    1
    21    53    54    1
    22    53    52    1
    23    36    37    1
    24   157   156    1
    25    37    40    1
    26    37    38    1
    27   194   193    2
    28    40    41    1
    29   151   150    1
    30    54    55    2
    31   190   188    1
    32   188   185    1
    33   193   192    1
    34   156   153    1
    35    38    39    2
    36    38    46   am
    37   150   147    1
    38    41    42   ar
    39    41    43   ar
    40    42    44   ar
    41   191   192    1
    42   191   186   am
    43   185   186    1
    44   185   184    1
    45    46    47    1
    46   192   195    1
    47   186   187    2
    48   153   152    1
    49   153   154    1
    50   152   148   am
    51   148   147    1
    52   148   149    2
    53   147   146    1
    54    43    45   ar
    55   154   155    2
    56   154   166   am
    57    44    45   ar
    58    48    47    1
    59    48    49    2
    60   166   167    1
    61   168   167    1
    62   168   169    2
    63   184   182   am
    64   195   196    1
    65    47    50    1
    66   183   182    2
    67   146   141   am
    68   182   181    1
    69    50    51    1
    70   196   197   ar
    71   196   198   ar
    72   142   141    2
    73   141   140    1
    74   197   199   ar
    75   170   171    1
    76    51    35    1
    77   181   180    1
    78   139   140    1
    79   198   200   ar
    80   140   143    1
    81   199   201   ar
    82   137   138    1
    83   137   134    1
    84   171   172    1
    85   173   172    2
    86    35    34    1
    87   200   201   ar
    88    29    27    1
    89   201   202    1
    90   143   145    1
    91   143   144    1
    92   135   134    1
    93   135   136    2
    94   134   133    1
    95   172   174   am
    96    28    27    1
    97    27    26    1
    98    34    31    1
    99   108   106   ar
   100    83    81    1
   101   174   175    1
   102   107   106   ar
   103    82    81    1
   104   125   126    1
   105   125   124    1
   106   106   105    1
   107   126   127    1
   108   127   128    1
   109    26    23    1
   110    25    24    2
   111    81    80    1
   112   175   176    1
   113   175   178    1
   114    31    30    1
   115    31    32    1
   116   113   110    1
   117   179   178    1
   118   179   119    1
   119    24    30   am
   120    24    23    1
   121   112   111    2
   122   121   124    1
   123   121   120    1
   124   121   122    1
   125   176   177    2
   126   117   116    2
   127    23    22    1
   128   120   116   am
   129   116   115    1
   130    32    33    2
   131   111   110    1
   132   111   114   am
   133   129   122   am
   134   129   130    1
   135   115   114    1
   136   115   118    1
   137   105   102    1
   138    80    77    1
   139   110   109    1
   140   109   103   am
   141   122   123    2
   142   130   131    1
   143   131   132    2
   144   119   118    1
   145   102   103    1
   146   102   101    1
   147    79    78    2
   148    22    14   am
   149   103   104    2
   150    77    78    1
   151    77    76    1
   152    10     9    1
   153     7     6    1
   154     7     8    1
   155    15    14    2
   156    75    74    1
   157    14    13    1
   158    73    74   ar
   159    73    71   ar
   160     6     5    1
   161     9     8    2
   162     9    11    1
   163    74    72   ar
   164    21    19   ar
   165    21    20   ar
   166    71    69   ar
   167     4     3    2
   168    19    17   ar
   169    20    18   ar
   170    72    70   ar
   171    69    70   ar
   172    69    68    1
   173    13    12    1
   174    13    16    1
   175    18    17   ar
   176    17    16    1
   177    68    65    1
   178     3    12   am
   179     3     2    1
   180     5     2    1
   181   100    98    1
   182    64    65    1
   183     1     2    1
   184    67    66    2
   185    65    66    1
   186    98    97    1
   187    97    99    1
   188    97    94    1
   189    84    85    1
   190    85    86    1
   191    85    88    1
   192    93    86   am
   193    93    94    1
   194    86    87    2
   195    94    95    1
   196    88    89    1
   197    95    96    2
   198    89    90    1
   199    90    91    1
   200    91    92    1
