@<TRIPOS>MOLECULE
tmp/4crbA00.pdb
 202 200 0 0 0
SMALL
GASTEIGER

@<TRIPOS>ATOM
      1  N         36.6240    3.4530   57.3340 N.3    26  ARG26      -0.1231
      2  CA        35.2370    3.3010   56.9390 C.3    26  ARG26       0.1694
      3  C         34.9740    4.0040   55.6110 C.2    26  ARG26       0.2592
      4  O         35.6500    4.9640   55.2540 O.2    26  ARG26      -0.2718
      5  CB        34.3080    3.8930   58.0120 C.3    26  ARG26       0.0321
      6  CG        34.5910    5.3520   58.3690 C.3    26  ARG26       0.0489
      7  CD        34.0290    5.7420   59.7360 C.3    26  ARG26       0.2205
      8  NE        34.7640    5.1300   60.8510 N.pl3  26  ARG26      -0.0865
      9  CZ        34.4480    5.2600   62.1420 C.cat  26  ARG26       0.5346
     10  NH1       33.3990    5.9900   62.5170 N.pl3  26  ARG26       0.1354
     11  NH2       35.1870    4.6580   63.0660 N.pl3  26  ARG26       0.1354
     12  N         33.9640    3.5160   54.8980 N.am   27  HIS27      -0.1962
     13  CA        33.4860    4.1560   53.6760 C.3    27  HIS27       0.1787
     14  C         32.9080    5.5310   53.9810 C.2    27  HIS27       0.2620
     15  O         32.1160    5.6840   54.9240 O.2    27  HIS27      -0.2715
     16  CB        32.4240    3.2750   53.0140 C.3    27  HIS27       0.0785
     17  CG        31.6230    3.9620   51.9510 C.ar   27  HIS27       0.0821
     18  ND1       32.0140    3.9880   50.6280 N.ar   27  HIS27      -0.2267
     19  CD2       30.4330    4.6070   52.0050 C.ar   27  HIS27       0.1154
     20  CE1       31.1120    4.6420   49.9190 C.ar   27  HIS27       0.1986
     21  NE2       30.1440    5.0350   50.7330 N.ar   27  HIS27      -0.2212
     22  N         33.3020    6.5210   53.1820 N.am   28  LEU28      -0.1963
     23  CA        32.8400    7.9000   53.3550 C.3    28  LEU28       0.1728
     24  C         31.8680    8.3300   52.2660 C.2    28  LEU28       0.2616
     25  O         30.7810    8.8430   52.5530 O.2    28  LEU28      -0.2715
     26  CB        34.0430    8.8330   53.3760 C.3    28  LEU28       0.0311
     27  CG        33.8150   10.3400   53.5440 C.3    28  LEU28       0.0022
     28  CD1       33.0350   10.6640   54.8050 C.3    28  LEU28       0.0001
     29  CD2       35.1490   11.0640   53.5650 C.3    28  LEU28       0.0001
     30  N         32.2610    8.1130   51.0100 N.am   29  CYS29      -0.1968
     31  CA        31.4850    8.5840   49.8750 C.3    29  CYS29       0.1712
     32  C         31.7860    7.7750   48.6290 C.2    29  CYS29       0.2296
     33  O         32.7810    7.0720   48.5610 O.2    29  CYS29      -0.2864
     34  CB        31.8050   10.0590   49.6040 C.3    29  CYS29       0.0983
     35  SG        30.8220   11.2320   50.5570 S.3    29  CYS29      -0.0798
     36  N         30.4340   18.1170   49.6990 N.3    44  HIS44      -0.1226
     37  CA        29.9840   17.9430   51.0870 C.3    44  HIS44       0.1752
     38  C         30.6270   16.7430   51.7620 C.2    44  HIS44       0.2596
     39  O         30.5720   16.6120   52.9810 O.2    44  HIS44      -0.2718
     40  CB        28.4660   17.8310   51.1700 C.3    44  HIS44       0.0759
     41  CG        27.9410   16.5190   50.6870 C.ar   44  HIS44       0.0818
     42  ND1       27.2780   16.3830   49.4880 N.ar   44  HIS44      -0.2268
     43  CD2       28.0120   15.2750   51.2230 C.ar   44  HIS44       0.1154
     44  CE1       26.9310   15.1190   49.3210 C.ar   44  HIS44       0.1986
     45  NE2       27.3780   14.4220   50.3520 N.ar   44  HIS44      -0.2212
     46  N         31.2250   15.8530   50.9760 N.am   45  CYS45      -0.1970
     47  CA        31.8870   14.6760   51.5340 C.3    45  CYS45       0.1712
     48  C         33.0500   15.0190   52.4580 C.2    45  CYS45       0.2296
     49  O         33.4670   14.1810   53.2570 O.2    45  CYS45      -0.2864
     50  CB        32.3880   13.7580   50.4210 C.3    45  CYS45       0.0983
     51  SG        31.0540   12.9580   49.5380 S.3    45  CYS45      -0.0798
     52  N         33.2770   17.5370   54.7360 N.3    47  TYR47      -0.1241
     53  CA        32.9580   18.2720   55.9410 C.3    47  TYR47       0.1605
     54  C         33.8610   17.7820   57.0710 C.2    47  TYR47       0.2264
     55  O         33.9520   16.5860   57.3090 O.2    47  TYR47      -0.2867
     56  CB        31.4950   18.0690   56.3280 C.3    47  TYR47       0.0534
     57  CG        31.2000   18.6890   57.6540 C.ar   47  TYR47      -0.0201
     58  CD1       31.0030   20.0640   57.7530 C.ar   47  TYR47      -0.0009
     59  CD2       31.1850   17.9290   58.8200 C.ar   47  TYR47      -0.0009
     60  CE1       30.7670   20.6600   58.9680 C.ar   47  TYR47       0.0417
     61  CE2       30.9500   18.5260   60.0460 C.ar   47  TYR47       0.0417
     62  CZ        30.7400   19.8940   60.0990 C.ar   47  TYR47       0.1957
     63  OH        30.5040   20.5290   61.2860 O.3    47  TYR47      -0.2866
     64  N         22.7770    3.2410   52.1860 N.3   134  TYR134     -0.1241
     65  CA        21.6440    2.6150   52.8660 C.3   134  TYR134      0.1605
     66  C         20.5680    2.1260   51.8940 C.2   134  TYR134      0.2264
     67  O         20.3550    2.7220   50.8310 O.2   134  TYR134     -0.2867
     68  CB        20.9680    3.6350   53.7810 C.3   134  TYR134      0.0534
     69  CG        21.7330    4.1340   54.9890 C.ar  134  TYR134     -0.0201
     70  CD1       23.1030    3.8850   55.1740 C.ar  134  TYR134     -0.0009
     71  CD2       21.0710    4.8950   55.9440 C.ar  134  TYR134     -0.0009
     72  CE1       23.7700    4.3720   56.2840 C.ar  134  TYR134      0.0417
     73  CE2       21.7270    5.3930   57.0560 C.ar  134  TYR134      0.0417
     74  CZ        23.0670    5.1350   57.2230 C.ar  134  TYR134      0.1957
     75  OH        23.6930    5.6520   58.3280 O.3   134  TYR134     -0.2866
     76  N         16.1960    4.9290   54.9210 N.3   137  LEU137     -0.1245
     77  CA        16.7150    6.1350   55.6010 C.3   137  LEU137      0.1561
     78  C         17.5270    5.8010   56.8530 C.2   137  LEU137      0.2260
     79  O         18.5890    6.3820   57.0800 O.2   137  LEU137     -0.2867
     80  CB        15.5880    7.1100   55.9780 C.3   137  LEU137      0.0270
     81  CG        15.8910    8.6170   55.9410 C.3   137  LEU137      0.0019
     82  CD1       14.9380    9.3520   56.8750 C.3   137  LEU137      0.0001
     83  CD2       17.3280    8.9950   56.2840 C.3   137  LEU137      0.0001
     84  N         22.3170    0.9490   57.1080 N.3   140  LYS140     -0.1231
     85  CA        23.7690    0.9050   57.2160 C.3   140  LYS140      0.1693
     86  C         24.4030    0.7280   55.8330 C.2   140  LYS140      0.2591
     87  O         23.7110    0.4220   54.8530 O.2   140  LYS140     -0.2718
     88  CB        24.1910   -0.2460   58.1250 C.3   140  LYS140      0.0285
     89  CG        24.1660   -1.6090   57.4410 C.3   140  LYS140      0.0035
     90  CD        24.4760   -2.7400   58.4050 C.3   140  LYS140      0.0206
     91  CE        23.2430   -3.1400   59.1990 C.3   140  LYS140      0.1093
     92  NZ        23.5350   -4.2400   60.1640 N.3   140  LYS140     -0.1314
     93  N         25.7210    0.9110   55.7740 N.am  141  ILE141     -0.1980
     94  CA        26.4860    0.7480   54.5240 C.3   141  ILE141      0.1595
     95  C         26.4190   -0.7040   54.0690 C.2   141  ILE141      0.2287
     96  O         26.6160   -1.6140   54.8600 O.2   141  ILE141     -0.2864
     97  CB        27.9650    1.1640   54.7160 C.3   141  ILE141      0.0276
     98  CG1       28.0660    2.6630   55.0290 C.3   141  ILE141      0.0022
     99  CG2       28.8180    0.7870   53.5040 C.3   141  ILE141      0.0022
    100  CD1       27.2430    3.5600   54.1290 C.3   141  ILE141      0.0001
    101  N         15.9500    5.2950   44.8160 N.3   182  ASP182     -0.1225
    102  CA        16.6680    6.5410   45.0820 C.3   182  ASP182      0.1805
    103  C         18.0620    6.2240   45.6190 C.2   182  ASP182      0.2598
    104  O         18.3380    5.1190   46.0790 O.2   182  ASP182     -0.2718
    105  CB        15.8680    7.3780   46.1240 C.3   182  ASP182      0.1424
    106  CG        16.2230    8.8760   46.1360 C.2   182  ASP182      0.3668
    107  OD1       17.0310    9.3420   45.2990 O.co2 182  ASP182     -0.2456
    108  OD2       15.6840    9.6070   47.0280 O.co2 182  ASP182     -0.2456
    109  N         18.9450    7.2080   45.5630 N.am  183  ALA183     -0.1966
    110  CA        20.1300    7.1820   46.4080 C.3   183  ALA183      0.1728
    111  C         19.7140    7.3620   47.8730 C.2   183  ALA183      0.2616
    112  O         18.6050    7.8320   48.1670 O.2   183  ALA183     -0.2715
    113  CB        21.0730    8.2900   45.9910 C.3   183  ALA183      0.0334
    114  N         20.6030    6.9920   48.7870 N.am  184  CYS184     -0.1954
    115  CA        20.4290    7.2680   50.2180 C.3   184  CYS184      0.1843
    116  C         21.7930    7.4720   50.8720 C.2   184  CYS184      0.2625
    117  O         22.7960    7.6210   50.1710 O.2   184  CYS184     -0.2714
    118  CB        19.6450    6.1450   50.9020 C.3   184  CYS184      0.0997
    119  SG        18.8440    6.6340   52.4610 S.3   184  CYS184     -0.0797
    120  N         21.8410    7.4640   52.2060 N.am  185  LYS185     -0.1963
    121  CA        23.0760    7.7720   52.9310 C.3   185  LYS185      0.1728
    122  C         24.2090    6.8130   52.5880 C.2   185  LYS185      0.2616
    123  O         24.0330    5.6030   52.6390 O.2   185  LYS185     -0.2715
    124  CB        22.8450    7.7600   54.4420 C.3   185  LYS185      0.0311
    125  CG        22.0360    8.9490   54.9240 C.3   185  LYS185      0.0038
    126  CD        21.9630    8.9860   56.4480 C.3   185  LYS185      0.0206
    127  CE        20.9320   10.0040   56.9260 C.3   185  LYS185      0.1093
    128  NZ        21.0790   11.3250   56.2550 N.3   185  LYS185     -0.1314
    129  N         25.3700    7.3690   52.2480 N.am  186  GLY186     -0.1955
    130  CA        26.5180    6.5730   51.8190 C.3   186  GLY186      0.1869
    131  C         26.6960    6.5600   50.3080 C.2   186  GLY186      0.2309
    132  O         27.7600    6.1710   49.8140 O.2   186  GLY186     -0.2863
    133  N         26.2950    9.3650   48.4130 N.3   188  SER188     -0.1217
    134  CA        26.6010   10.6980   47.9140 C.3   188  SER188      0.1889
    135  C         28.0060   10.7270   47.3450 C.2   188  SER188      0.2288
    136  O         28.8830    9.9730   47.7660 O.2   188  SER188     -0.2866
    137  CB        26.3920   11.7580   48.9870 C.3   188  SER188      0.2089
    138  OG        27.4330   11.7720   49.9310 O.3   188  SER188     -0.2183
    139  N         25.5440   12.4040   42.8870 N.3   206  THR206     -0.1203
    140  CA        24.6240   12.2370   44.0090 C.3   206  THR206      0.1994
    141  C         24.8670   13.2680   45.1040 C.2   206  THR206      0.2619
    142  O         25.9530   13.3480   45.6780 O.2   206  THR206     -0.2717
    143  CB        24.7110   10.8060   44.5570 C.3   206  THR206      0.1784
    144  OG1       24.4500    9.9020   43.4760 O.3   206  THR206     -0.2211
    145  CG2       23.6880   10.5670   45.6450 C.3   206  THR206      0.0376
    146  N         23.8620   14.1040   45.3590 N.am  207  SER207     -0.1937
    147  CA        24.0840   15.2830   46.1910 C.3   207  SER207      0.2055
    148  C         23.1700   15.3500   47.4190 C.2   207  SER207      0.2643
    149  O         23.6560   15.2970   48.5600 O.2   207  SER207     -0.2714
    150  CB        23.9660   16.5420   45.3410 C.3   207  SER207      0.2130
    151  OG        24.2580   17.7180   46.0910 O.3   207  SER207     -0.2179
    152  N         21.8630   15.4560   47.1970 N.am  208  TRP208     -0.1959
    153  CA        20.9130   15.5770   48.3180 C.3   208  TRP208      0.1771
    154  C         19.4820   15.2210   47.9300 C.2   208  TRP208      0.2620
    155  O         19.1390   15.1310   46.7560 O.2   208  TRP208     -0.2715
    156  CB        20.9560   17.0000   48.9250 C.3   208  TRP208      0.0590
    157  CG        20.4900   18.0870   47.9980 C.ar  208  TRP208      0.0006
    158  CD1       21.2270   18.7070   47.0290 C.ar  208  TRP208      0.0946
    159  CD2       19.1720   18.6660   47.9270 C.ar  208  TRP208      0.0152
    160  NE1       20.4620   19.6270   46.3760 N.ar  208  TRP208     -0.2442
    161  CE2       19.1980   19.6250   46.9020 C.ar  208  TRP208      0.0810
    162  CE3       17.9800   18.4750   48.6490 C.ar  208  TRP208      0.0012
    163  CZ2       18.0770   20.3980   46.5670 C.ar  208  TRP208      0.0191
    164  CZ3       16.8650   19.2380   48.3050 C.ar  208  TRP208      0.0001
    165  CH2       16.9250   20.1800   47.2810 C.ar  208  TRP208      0.0015
    166  N         18.6420   15.0670   48.9460 N.am  209  GLY209     -0.1954
    167  CA        17.2100   14.8840   48.7570 C.3   209  GLY209      0.1869
    168  C         16.5310   14.9250   50.1130 C.2   209  GLY209      0.2309
    169  O         17.2080   14.8680   51.1450 O.2   209  GLY209     -0.2863
    170  N         14.8400   12.9580   52.6690 N.3   211  GLY211     -0.1210
    171  CA        14.7230   11.5410   52.9360 C.3   211  GLY211      0.1956
    172  C         15.2440   10.7320   51.7580 C.2   211  GLY211      0.2612
    173  O         15.9800   11.2520   50.9150 O.2   211  GLY211     -0.2717
    174  N         14.8810    9.4610   51.7040 N.am  212  CYS212     -0.1970
    175  CA        15.3130    8.5830   50.6090 C.3   212  CYS212      0.1712
    176  C         14.1260    7.8710   49.9760 C.2   212  CYS212      0.2296
    177  O         13.3620    7.2240   50.6770 O.2   212  CYS212     -0.2864
    178  CB        16.2880    7.5290   51.1370 C.3   212  CYS212      0.0983
    179  SG        17.7300    8.2440   51.9590 S.3   212  CYS212     -0.0798
    180  N         15.5910   12.5720   43.8660 N.3   219  GLY219     -0.1210
    181  CA        16.9740   12.8450   44.2470 C.3   219  GLY219      0.1956
    182  C         17.5130   14.0270   43.4680 C.2   219  GLY219      0.2612
    183  O         17.1100   14.2650   42.3300 O.2   219  GLY219     -0.2717
    184  N         18.4110   14.7780   44.0860 N.am  220  VAL220     -0.1965
    185  CA        18.9650   15.9600   43.4760 C.3   220  VAL220      0.1727
    186  C         20.4480   15.7250   43.2740 C.2   220  VAL220      0.2616
    187  O         21.1510   15.3440   44.2140 O.2   220  VAL220     -0.2715
    188  CB        18.7190   17.2320   44.3200 C.3   220  VAL220      0.0290
    189  CG1       19.1580   18.4630   43.5430 C.3   220  VAL220      0.0023
    190  CG2       17.2520   17.3420   44.6950 C.3   220  VAL220      0.0023
    191  N         20.8920   15.9570   42.0380 N.am  221  TYR221     -0.1974
    192  CA        22.2530   15.6870   41.5900 C.3   221  TYR221      0.1639
    193  C         22.9200   16.9470   41.0440 C.2   221  TYR221      0.2290
    194  O         22.2640   17.8370   40.4790 O.2   221  TYR221     -0.2864
    195  CB        22.2590   14.5880   40.5100 C.3   221  TYR221      0.0560
    196  CG        21.6340   13.2880   40.9720 C.ar  221  TYR221     -0.0198
    197  CD1       20.2490   13.1590   41.1090 C.ar  221  TYR221     -0.0009
    198  CD2       22.4180   12.1790   41.2840 C.ar  221  TYR221     -0.0009
    199  CE1       19.6780   11.9830   41.5670 C.ar  221  TYR221      0.0417
    200  CE2       21.8470   10.9970   41.7250 C.ar  221  TYR221      0.0417
    201  CZ        20.4830   10.9010   41.8700 C.ar  221  TYR221      0.1957
    202  OH        19.9370    9.7170   42.3120 O.3   221  TYR221     -0.2866
@<TRIPOS>BOND
     1   194   193    2
     2   195   196    1
     3   195   192    1
     4   196   197   ar
     5   196   198   ar
     6   193   192    1
     7   197   199   ar
     8   198   200   ar
     9   199   201   ar
    10   192   191    1
    11   200   201   ar
    12   201   202    1
    13   191   186   am
    14   183   182    2
    15   139   140    1
    16   186   185    1
    17   186   187    2
    18   182   184   am
    19   182   181    1
    20   185   184    1
    21   185   188    1
    22   144   143    1
    23   189   188    1
    24   180   181    1
    25   140   143    1
    26   140   141    1
    27   188   190    1
    28   143   145    1
    29   101   102    1
    30   102   103    1
    31   102   105    1
    32   141   146   am
    33   141   142    2
    34   107   106   ar
    35   150   151    1
    36   150   147    1
    37   146   147    1
    38   109   103   am
    39   109   110    1
    40   103   104    2
    41   113   110    1
    42   105   106    1
    43   106   108   ar
    44   147   148    1
    45   160   161   ar
    46   160   158   ar
    47   110   111    1
    48   163   161   ar
    49   163   165   ar
    50   155   154    2
    51   161   159   ar
    52   158   157   ar
    53   152   148   am
    54   152   153    1
    55   165   164   ar
    56   135   136    2
    57   135   134    1
    58   148   149    2
    59   111   112    2
    60   111   114   am
    61   134   133    1
    62   134   137    1
    63   159   157   ar
    64   159   162   ar
    65   154   153    1
    66   154   166   am
    67   157   156    1
    68   164   162   ar
    69   153   156    1
    70    33    32    2
    71    32    31    1
    72   167   166    1
    73   167   168    1
    74   114   115    1
    75   137   138    1
    76    44    42   ar
    77    44    45   ar
    78    42    41   ar
    79    51    50    1
    80    51    35    1
    81    34    31    1
    82    34    35    1
    83    36    37    1
    84   132   131    2
    85    31    30    1
    86    20    18   ar
    87    20    21   ar
    88   176   175    1
    89   176   177    2
    90   168   169    2
    91   117   116    2
    92   115   116    1
    93   115   118    1
    94   131   130    1
    95    45    43   ar
    96    50    47    1
    97   175   178    1
    98   175   174    1
    99    18    17   ar
   100    41    40    1
   101    41    43   ar
   102    21    19   ar
   103    67    66    2
   104   116   120   am
   105   118   119    1
   106   173   172    2
   107    46    47    1
   108    46    38   am
   109    30    24   am
   110    37    40    1
   111    37    38    1
   112   178   179    1
   113    47    48    1
   114   174   172   am
   115   172   171    1
   116    38    39    2
   117   130   129    1
   118    66    65    1
   119    17    19   ar
   120    17    16    1
   121   179   119    1
   122    64    65    1
   123   120   121    1
   124   129   122   am
   125    24    25    2
   126    24    23    1
   127    48    49    2
   128   122   123    2
   129   122   121    1
   130   170   171    1
   131    65    68    1
   132   121   124    1
   133    16    13    1
   134    22    23    1
   135    22    14   am
   136    23    26    1
   137    26    27    1
   138    99    97    1
   139    27    29    1
   140    27    28    1
   141    13    14    1
   142    13    12    1
   143    68    69    1
   144    14    15    2
   145    95    94    1
   146    95    96    2
   147   100    98    1
   148   124   125    1
   149    94    97    1
   150    94    93    1
   151    97    98    1
   152    52    53    1
   153    87    86    2
   154    12     3   am
   155    76    77    1
   156   125   126    1
   157    69    70   ar
   158    69    71   ar
   159    70    72   ar
   160     4     3    2
   161    77    80    1
   162    77    78    1
   163     3     2    1
   164    93    86   am
   165    86    85    1
   166    53    56    1
   167    53    54    1
   168    81    80    1
   169    81    83    1
   170    81    82    1
   171    71    73   ar
   172   128   127    1
   173    72    74   ar
   174    56    57    1
   175   126   127    1
   176    78    79    2
   177     2     1    1
   178     2     5    1
   179    73    74   ar
   180    54    55    2
   181    84    85    1
   182    85    88    1
   183    74    75    1
   184    89    88    1
   185    89    90    1
   186    57    58   ar
   187    57    59   ar
   188    58    60   ar
   189     5     6    1
   190     6     7    1
   191    90    91    1
   192    59    61   ar
   193    60    62   ar
   194    91    92    1
   195     7     8    1
   196    61    62   ar
   197    62    63    1
   198     8     9    2
   199     9    10    1
   200     9    11    1
