@<TRIPOS>MOLECULE
tmp/4crcA00.pdb
 202 200 0 0 0
SMALL
GASTEIGER

@<TRIPOS>ATOM
      1  N        -56.1100   -4.5910  -36.0510 N.3    26  ARG26      -0.1231
      2  CA       -55.7410   -4.1290  -34.7240 C.3    26  ARG26       0.1694
      3  C        -54.3600   -4.6490  -34.3550 C.2    26  ARG26       0.2592
      4  O        -53.9120   -5.6710  -34.8720 O.2    26  ARG26      -0.2718
      5  CB       -56.7580   -4.6170  -33.6910 C.3    26  ARG26       0.0321
      6  CG       -56.9320   -6.1240  -33.6690 C.3    26  ARG26       0.0489
      7  CD       -57.7500   -6.6000  -32.4790 C.3    26  ARG26       0.2205
      8  NE       -57.7000   -8.0580  -32.3660 N.pl3  26  ARG26      -0.0865
      9  CZ       -56.7440   -8.7560  -31.7470 C.cat  26  ARG26       0.5346
     10  NH1      -55.7190   -8.1470  -31.1480 N.pl3  26  ARG26       0.1354
     11  NH2      -56.8140  -10.0850  -31.7270 N.pl3  26  ARG26       0.1354
     12  N        -53.7070   -3.9320  -33.4480 N.am   27  HIS27      -0.1962
     13  CA       -52.4710   -4.3980  -32.8220 C.3    27  HIS27       0.1787
     14  C        -52.6880   -5.7430  -32.1270 C.2    27  HIS27       0.2620
     15  O        -53.6230   -5.9090  -31.3430 O.2    27  HIS27      -0.2715
     16  CB       -51.9880   -3.3460  -31.8290 C.3    27  HIS27       0.0785
     17  CG       -50.8790   -3.8080  -30.9420 C.ar   27  HIS27       0.0821
     18  ND1      -49.5500   -3.7010  -31.2920 N.ar   27  HIS27      -0.2267
     19  CD2      -50.9040   -4.3790  -29.7160 C.ar   27  HIS27       0.1154
     20  CE1      -48.8040   -4.1930  -30.3190 C.ar   27  HIS27       0.1986
     21  NE2      -49.6000   -4.6110  -29.3520 N.ar   27  HIS27      -0.2212
     22  N        -51.8040   -6.6920  -32.4130 N.am   28  LEU28      -0.1963
     23  CA       -51.8770   -8.0340  -31.8580 C.3    28  LEU28       0.1728
     24  C        -50.7750   -8.2640  -30.8300 C.2    28  LEU28       0.2616
     25  O        -51.0400   -8.7330  -29.7220 O.2    28  LEU28      -0.2715
     26  CB       -51.7710   -9.0760  -32.9840 C.3    28  LEU28       0.0311
     27  CG       -51.7660  -10.5610  -32.6060 C.3    28  LEU28       0.0022
     28  CD1      -53.0700  -10.9790  -31.9410 C.3    28  LEU28       0.0001
     29  CD2      -51.4960  -11.4230  -33.8300 C.3    28  LEU28       0.0001
     30  N        -49.5410   -7.9540  -31.2160 N.am   29  CYS29      -0.1968
     31  CA       -48.3640   -8.2570  -30.4050 C.3    29  CYS29       0.1712
     32  C        -47.2180   -7.3390  -30.7770 C.2    29  CYS29       0.2296
     33  O        -47.2440   -6.6920  -31.8140 O.2    29  CYS29      -0.2864
     34  CB       -47.9170   -9.7040  -30.6250 C.3    29  CYS29       0.0983
     35  SG       -48.8230  -10.9400  -29.6690 S.3    29  CYS29      -0.0798
     36  N        -47.2240  -17.5480  -28.8020 N.3    44  HIS44      -0.1226
     37  CA       -48.6150  -17.5120  -28.3370 C.3    44  HIS44       0.1752
     38  C        -49.4410  -16.4720  -29.0790 C.2    44  HIS44       0.2596
     39  O        -50.6750  -16.5020  -29.0360 O.2    44  HIS44      -0.2718
     40  CB       -48.6810  -17.3160  -26.8240 C.3    44  HIS44       0.0759
     41  CG       -48.3920  -15.9230  -26.3690 C.ar   44  HIS44       0.0818
     42  ND1      -47.2820  -15.6050  -25.6210 N.ar   44  HIS44      -0.2268
     43  CD2      -49.0810  -14.7700  -26.5300 C.ar   44  HIS44       0.1154
     44  CE1      -47.2910  -14.3100  -25.3530 C.ar   44  HIS44       0.1986
     45  NE2      -48.3690  -13.7800  -25.8990 N.ar   44  HIS44      -0.2212
     46  N        -48.7690  -15.5570  -29.7690 N.am   45  CYS45      -0.1970
     47  CA       -49.4640  -14.5130  -30.5130 C.3    45  CYS45       0.1712
     48  C        -50.2950  -15.0490  -31.6620 C.2    45  CYS45       0.2296
     49  O        -51.1690  -14.3500  -32.1710 O.2    45  CYS45      -0.2864
     50  CB       -48.4640  -13.5140  -31.0780 C.3    45  CYS45       0.0983
     51  SG       -47.6390  -12.5600  -29.7990 S.3    45  CYS45      -0.0798
     52  N        -52.3670  -17.6960  -31.8630 N.3    47  TYR47      -0.1241
     53  CA       -53.5620  -18.4880  -31.6170 C.3    47  TYR47       0.1605
     54  C        -54.6160  -18.1470  -32.6740 C.2    47  TYR47       0.2264
     55  O        -54.9220  -16.9770  -32.8970 O.2    47  TYR47      -0.2867
     56  CB       -54.1710  -18.2370  -30.2340 C.3    47  TYR47       0.0534
     57  CG       -55.5880  -18.7510  -30.2090 C.ar   47  TYR47      -0.0201
     58  CD1      -55.8450  -20.1070  -30.0560 C.ar   47  TYR47      -0.0009
     59  CD2      -56.6610  -17.8960  -30.4360 C.ar   47  TYR47      -0.0009
     60  CE1      -57.1390  -20.5940  -30.0870 C.ar   47  TYR47       0.0417
     61  CE2      -57.9570  -18.3730  -30.4700 C.ar   47  TYR47       0.0417
     62  CZ       -58.1900  -19.7200  -30.2910 C.ar   47  TYR47       0.1957
     63  OH       -59.4800  -20.1920  -30.3190 O.3    47  TYR47      -0.2866
     64  N        -51.3770   -2.4310  -22.1850 N.3   134  TYR134     -0.1241
     65  CA       -52.1060   -1.7730  -21.1060 C.3   134  TYR134      0.1605
     66  C        -51.1570   -1.2090  -20.0440 C.2   134  TYR134      0.2264
     67  O        -50.0870   -1.7650  -19.7900 O.2   134  TYR134     -0.2867
     68  CB       -53.0070   -2.7890  -20.4180 C.3   134  TYR134      0.0534
     69  CG       -54.1840   -3.3480  -21.2080 C.ar  134  TYR134     -0.0201
     70  CD1      -54.2970   -3.2000  -22.5910 C.ar  134  TYR134     -0.0009
     71  CD2      -55.1660   -4.0830  -20.5510 C.ar  134  TYR134     -0.0009
     72  CE1      -55.3710   -3.7460  -23.2870 C.ar  134  TYR134      0.0417
     73  CE2      -56.2300   -4.6380  -21.2380 C.ar  134  TYR134      0.0417
     74  CZ       -56.3350   -4.4670  -22.6030 C.ar  134  TYR134      0.1957
     75  OH       -57.4010   -5.0310  -23.2760 O.3   134  TYR134     -0.2866
     76  N        -53.9160   -3.6500  -15.3900 N.3   137  LEU137     -0.1245
     77  CA       -54.5740   -4.8920  -15.8170 C.3   137  LEU137      0.1561
     78  C        -55.8270   -4.5880  -16.6430 C.2   137  LEU137      0.2260
     79  O        -56.0810   -5.2220  -17.6670 O.2   137  LEU137     -0.2867
     80  CB       -54.9480   -5.7670  -14.6100 C.3   137  LEU137      0.0270
     81  CG       -54.7000   -7.2700  -14.7720 C.3   137  LEU137      0.0019
     82  CD1      -55.6720   -8.0750  -13.9160 C.3   137  LEU137      0.0001
     83  CD2      -54.7820   -7.7170  -16.2220 C.3   137  LEU137      0.0001
     84  N        -56.2630   -0.0650  -21.7820 N.3   140  LYS140     -0.1231
     85  CA       -56.4110   -0.2990  -23.2030 C.3   140  LYS140      0.1693
     86  C        -55.0640   -0.1930  -23.8860 C.2   140  LYS140      0.2591
     87  O        -54.0670    0.1950  -23.2650 O.2   140  LYS140     -0.2718
     88  CB       -57.4230    0.6780  -23.7980 C.3   140  LYS140      0.0285
     89  CG       -56.8800    1.9580  -24.3670 C.3   140  LYS140      0.0035
     90  CD       -56.5540    2.9760  -23.3130 C.3   140  LYS140      0.0206
     91  CE       -56.9570    4.3500  -23.8090 C.3   140  LYS140      0.1093
     92  NZ       -56.6200    5.4110  -22.8360 N.3   140  LYS140     -0.1314
     93  N        -55.0490   -0.5410  -25.1630 N.am  141  ILE141     -0.1980
     94  CA       -53.8460   -0.4150  -25.9710 C.3   141  ILE141      0.1595
     95  C        -53.4700    1.0670  -26.0430 C.2   141  ILE141      0.2287
     96  O        -54.3320    1.9500  -26.2200 O.2   141  ILE141     -0.2864
     97  CB       -54.0480   -1.0480  -27.3710 C.3   141  ILE141      0.0276
     98  CG1      -54.3360   -2.5560  -27.2470 C.3   141  ILE141      0.0022
     99  CG2      -52.8490   -0.7920  -28.2750 C.3   141  ILE141      0.0022
    100  CD1      -53.2760   -3.3660  -26.5240 C.3   141  ILE141      0.0001
    101  N        -44.0780   -3.4700  -14.9800 N.3   182  ASP182     -0.1225
    102  CA       -44.2330   -4.7810  -15.6110 C.3   182  ASP182      0.1805
    103  C        -44.7170   -4.5840  -17.0320 C.2   182  ASP182      0.2598
    104  O        -45.2130   -3.5180  -17.3870 O.2   182  ASP182     -0.2718
    105  CB       -45.2840   -5.5870  -14.8320 C.3   182  ASP182      0.1424
    106  CG       -45.2420   -7.0900  -15.1060 C.2   182  ASP182      0.3668
    107  OD1      -44.4180   -7.5840  -15.9090 O.co2 182  ASP182     -0.2456
    108  OD2      -46.0810   -7.7880  -14.4940 O.co2 182  ASP182     -0.2456
    109  N        -44.5950   -5.6230  -17.8440 N.am  183  ALA183     -0.1966
    110  CA       -45.3550   -5.6910  -19.0820 C.3   183  ALA183      0.1728
    111  C        -46.8200   -6.0040  -18.7530 C.2   183  ALA183      0.2616
    112  O        -47.1500   -6.4180  -17.6370 O.2   183  ALA183     -0.2715
    113  CB       -44.7750   -6.7530  -19.9990 C.3   183  ALA183      0.0334
    114  N        -47.7080   -5.7910  -19.7140 N.am  184  CYS184     -0.1954
    115  CA       -49.1150   -6.1130  -19.5190 C.3   184  CYS184      0.1843
    116  C        -49.7400   -6.4170  -20.8690 C.2   184  CYS184      0.2625
    117  O        -49.0300   -6.5360  -21.8640 O.2   184  CYS184     -0.2714
    118  CB       -49.8460   -4.9730  -18.8040 C.3   184  CYS184      0.0997
    119  SG       -51.4030   -5.4490  -17.9920 S.3   184  CYS184     -0.0797
    120  N        -51.0610   -6.5490  -20.9010 N.am  185  LYS185     -0.1963
    121  CA       -51.7540   -7.0240  -22.0900 C.3   185  LYS185      0.1728
    122  C        -51.4320   -6.1610  -23.2980 C.2   185  LYS185      0.2616
    123  O        -51.6030   -4.9510  -23.2550 O.2   185  LYS185     -0.2715
    124  CB       -53.2640   -7.0420  -21.8490 C.3   185  LYS185      0.0311
    125  CG       -53.6910   -8.0270  -20.7780 C.3   185  LYS185      0.0038
    126  CD       -55.1950   -8.2500  -20.7540 C.3   185  LYS185      0.0206
    127  CE       -55.5600   -9.1950  -19.6190 C.3   185  LYS185      0.1093
    128  NZ       -57.0140   -9.4800  -19.5050 N.3   185  LYS185     -0.1314
    129  N        -50.9680   -6.7950  -24.3680 N.am  186  GLY186     -0.1955
    130  CA       -50.6130   -6.1060  -25.5970 C.3   186  GLY186      0.1869
    131  C        -49.1160   -5.9200  -25.7580 C.2   186  GLY186      0.2309
    132  O        -48.6700   -5.5120  -26.8160 O.2   186  GLY186     -0.2863
    133  N        -46.9320   -8.4920  -25.1470 N.3   188  SER188     -0.1217
    134  CA       -46.2800   -9.7640  -25.4430 C.3   188  SER188      0.1889
    135  C        -45.7240   -9.8380  -26.8610 C.2   188  SER188      0.2288
    136  O        -46.2260   -9.1880  -27.7870 O.2   188  SER188     -0.2866
    137  CB       -47.1870  -10.9550  -25.1740 C.3   188  SER188      0.2089
    138  OG       -48.2200  -11.0440  -26.1270 O.3   188  SER188     -0.2183
    139  N        -41.2120  -10.8170  -24.1400 N.3   206  THR206     -0.1203
    140  CA       -42.3460  -10.6940  -23.2250 C.3   206  THR206      0.1994
    141  C        -43.3390  -11.8230  -23.4620 C.2   206  THR206      0.2619
    142  O        -43.8330  -11.9790  -24.5700 O.2   206  THR206     -0.2717
    143  CB       -43.0090   -9.3240  -23.4260 C.3   206  THR206      0.1784
    144  OG1      -42.0050   -8.3030  -23.2630 O.3   206  THR206     -0.2211
    145  CG2      -44.1680   -9.1070  -22.4400 C.3   206  THR206      0.0376
    146  N        -43.6160  -12.5950  -22.4110 N.am  207  SER207     -0.1937
    147  CA       -44.3690  -13.8460  -22.5430 C.3   207  SER207      0.2055
    148  C        -45.6260  -13.9090  -21.6630 C.2   207  SER207      0.2643
    149  O        -46.7350  -13.9270  -22.1990 O.2   207  SER207     -0.2714
    150  CB       -43.4490  -15.0440  -22.2770 C.3   207  SER207      0.2130
    151  OG       -44.1180  -16.2690  -22.5420 O.3   207  SER207     -0.2179
    152  N        -45.4740  -13.9550  -20.3400 N.am  208  TRP208     -0.1959
    153  CA       -46.6310  -14.0770  -19.4440 C.3   208  TRP208      0.1771
    154  C        -46.3750  -13.6570  -18.0090 C.2   208  TRP208      0.2620
    155  O        -45.2380  -13.4450  -17.5970 O.2   208  TRP208     -0.2715
    156  CB       -47.1420  -15.5270  -19.4340 C.3   208  TRP208      0.0590
    157  CG       -46.1690  -16.5190  -18.8580 C.ar  208  TRP208      0.0006
    158  CD1      -45.1360  -17.1210  -19.5080 C.ar  208  TRP208      0.0946
    159  CD2      -46.1550  -17.0400  -17.5220 C.ar  208  TRP208      0.0152
    160  NE1      -44.4750  -17.9830  -18.6630 N.ar  208  TRP208     -0.2442
    161  CE2      -45.0790  -17.9490  -17.4370 C.ar  208  TRP208      0.0810
    162  CE3      -46.9510  -16.8310  -16.3940 C.ar  208  TRP208      0.0012
    163  CZ2      -44.7710  -18.6400  -16.2640 C.ar  208  TRP208      0.0191
    164  CZ3      -46.6430  -17.5230  -15.2270 C.ar  208  TRP208      0.0001
    165  CH2      -45.5660  -18.4130  -15.1760 C.ar  208  TRP208      0.0015
    166  N        -47.4610  -13.5480  -17.2470 N.am  209  GLY209     -0.1954
    167  CA       -47.3830  -13.3150  -15.8010 C.3   209  GLY209      0.1869
    168  C        -48.7620  -13.4420  -15.1900 C.2   209  GLY209      0.2309
    169  O        -49.7500  -13.5060  -15.9240 O.2   209  GLY209     -0.2863
    170  N        -51.4850  -11.5180  -13.6160 N.3   211  GLY211     -0.1210
    171  CA       -51.8270  -10.1040  -13.5370 C.3   211  GLY211      0.1956
    172  C        -50.6940   -9.2540  -14.0890 C.2   211  GLY211      0.2612
    173  O        -49.7780   -9.7690  -14.7440 O.2   211  GLY211     -0.2717
    174  N        -50.7500   -7.9590  -13.8050 N.am  212  CYS212     -0.1970
    175  CA       -49.7420   -7.0130  -14.2700 C.3   212  CYS212      0.1712
    176  C        -49.2070   -6.1640  -13.1270 C.2   212  CYS212      0.2296
    177  O        -49.9730   -5.4700  -12.4570 O.2   212  CYS212     -0.2864
    178  CB       -50.3460   -6.1010  -15.3270 C.3   212  CYS212      0.0983
    179  SG       -50.9350   -6.9940  -16.7690 S.3   212  CYS212     -0.0798
    180  N        -42.7330  -10.5280  -14.0880 N.3   219  GLY219     -0.1210
    181  CA       -43.0590  -10.8710  -15.4610 C.3   219  GLY219      0.1956
    182  C        -42.1320  -11.9690  -15.9420 C.2   219  GLY219      0.2612
    183  O        -40.9630  -12.0170  -15.5480 O.2   219  GLY219     -0.2717
    184  N        -42.6570  -12.8610  -16.7790 N.am  220  VAL220     -0.1965
    185  CA       -41.8860  -13.9880  -17.3130 C.3   220  VAL220      0.1727
    186  C        -41.6650  -13.8130  -18.8150 C.2   220  VAL220      0.2616
    187  O        -42.5820  -13.4500  -19.5720 O.2   220  VAL220     -0.2715
    188  CB       -42.5670  -15.3450  -17.0020 C.3   220  VAL220      0.0290
    189  CG1      -41.6470  -16.5130  -17.3620 C.3   220  VAL220      0.0023
    190  CG2      -42.9480  -15.4020  -15.5340 C.3   220  VAL220      0.0023
    191  N        -40.4220  -14.0660  -19.2190 N.am  221  TYR221     -0.1974
    192  CA       -39.9280  -13.7840  -20.5550 C.3   221  TYR221      0.1639
    193  C        -39.2300  -15.0150  -21.1030 C.2   221  TYR221      0.2290
    194  O        -38.6090  -15.7700  -20.3510 O.2   221  TYR221     -0.2864
    195  CB       -38.9310  -12.6130  -20.5110 C.3   221  TYR221      0.0560
    196  CG       -39.5300  -11.3240  -19.9990 C.ar  221  TYR221     -0.0198
    197  CD1      -39.7380  -11.1190  -18.6370 C.ar  221  TYR221     -0.0009
    198  CD2      -39.8880  -10.3080  -20.8830 C.ar  221  TYR221     -0.0009
    199  CE1      -40.2970   -9.9400  -18.1660 C.ar  221  TYR221      0.0417
    200  CE2      -40.4530   -9.1280  -20.4230 C.ar  221  TYR221      0.0417
    201  CZ       -40.6550   -8.9470  -19.0720 C.ar  221  TYR221      0.1957
    202  OH       -41.2080   -7.7700  -18.6180 O.3   221  TYR221     -0.2866
@<TRIPOS>BOND
     1     1     2    1
     2     4     3    2
     3     2     3    1
     4     2     5    1
     5     3    12   am
     6    29    27    1
     7     5     6    1
     8     6     7    1
     9    12    13    1
    10    26    27    1
    11    26    23    1
    12    55    54    2
    13    13    14    1
    14    13    16    1
    15    54    53    1
    16    27    28    1
    17     7     8    1
    18    22    14   am
    19    22    23    1
    20     8     9    2
    21    49    48    2
    22    14    15    2
    23    52    53    1
    24    23    24    1
    25    16    17    1
    26    33    32    2
    27     9    11    1
    28     9    10    1
    29    48    47    1
    30    53    56    1
    31    18    17   ar
    32    18    20   ar
    33    30    24   am
    34    30    31    1
    35    50    47    1
    36    50    51    1
    37    17    19   ar
    38    24    25    2
    39    32    31    1
    40    34    31    1
    41    34    35    1
    42    47    46    1
    43    61    59   ar
    44    61    62   ar
    45    59    57   ar
    46    20    21   ar
    47    63    62    1
    48    62    60   ar
    49    56    57    1
    50    57    58   ar
    51    60    58   ar
    52    51    35    1
    53    46    38   am
    54    19    21   ar
    55    38    39    2
    56    38    37    1
    57    36    37    1
    58    37    40    1
    59    99    97    1
    60   136   135    2
    61    97    98    1
    62    97    94    1
    63    98   100    1
    64   135   134    1
    65    40    41    1
    66   132   131    2
    67    43    41   ar
    68    43    45   ar
    69    41    42   ar
    70    96    95    2
    71   138   137    1
    72    95    94    1
    73    94    93    1
    74    45    44   ar
    75   131   130    1
    76    42    44   ar
    77   130   129    1
    78   134   137    1
    79   134   133    1
    80    93    86   am
    81   142   141    2
    82   129   122   am
    83    89    88    1
    84    89    90    1
    85   139   140    1
    86    86    87    2
    87    86    85    1
    88    91    90    1
    89    91    92    1
    90    88    85    1
    91   141   140    1
    92   141   146   am
    93   143   144    1
    94   143   140    1
    95   143   145    1
    96   122   123    2
    97   122   121    1
    98    72    74   ar
    99    72    70   ar
   100    75    74    1
   101    85    84    1
   102    74    73   ar
   103    70    69   ar
   104   147   146    1
   105   147   150    1
   106   147   148    1
   107   151   150    1
   108   149   148    2
   109    64    65    1
   110   121   124    1
   111   121   120    1
   112   117   116    2
   113   124   125    1
   114   148   152   am
   115    73    71   ar
   116    69    71   ar
   117    69    68    1
   118    65    68    1
   119    65    66    1
   120   193   192    1
   121   193   194    2
   122   120   116   am
   123   198   200   ar
   124   198   196   ar
   125   116   115    1
   126   125   126    1
   127   126   127    1
   128   192   195    1
   129   192   191    1
   130   195   196    1
   131   200   201   ar
   132   152   153    1
   133    66    67    2
   134   113   110    1
   135   196   197   ar
   136   114   115    1
   137   114   111   am
   138   127   128    1
   139   187   186    2
   140   115   118    1
   141   158   157   ar
   142   158   160   ar
   143   153   156    1
   144   153   154    1
   145   156   157    1
   146   191   186   am
   147   110   111    1
   148   110   109    1
   149   201   202    1
   150   201   199   ar
   151   157   159   ar
   152   186   185    1
   153   118   119    1
   154   111   112    2
   155   160   161   ar
   156   197   199   ar
   157   154   155    2
   158   154   166   am
   159   119   179    1
   160   109   103   am
   161    79    78    2
   162   159   161   ar
   163   159   162   ar
   164   161   163   ar
   165   104   103    2
   166   189   188    1
   167   185   188    1
   168   185   184    1
   169   166   167    1
   170   103   102    1
   171   188   190    1
   172   184   182   am
   173   179   178    1
   174    78    77    1
   175   162   164   ar
   176   163   165   ar
   177    83    81    1
   178   182   183    2
   179   182   181    1
   180   169   168    2
   181   107   106   ar
   182    77    76    1
   183    77    80    1
   184   167   168    1
   185   102   101    1
   186   102   105    1
   187   181   180    1
   188   178   175    1
   189   164   165   ar
   190   106   105    1
   191   106   108   ar
   192    81    80    1
   193    81    82    1
   194   173   172    2
   195   175   174    1
   196   175   176    1
   197   172   174   am
   198   172   171    1
   199   170   171    1
   200   176   177    2
