@<TRIPOS>MOLECULE
tmp/4crdA00.pdb
 175 172 0 0 0
SMALL
GASTEIGER

@<TRIPOS>ATOM
      1  N        -37.1100  -57.1890   -3.5850 N.3    26  ARG26      -0.1231
      2  CA       -35.7450  -56.7340   -3.2600 C.3    26  ARG26       0.1694
      3  C        -35.4000  -55.3730   -3.8790 C.2    26  ARG26       0.2592
      4  O        -35.9550  -54.9930   -4.9110 O.2    26  ARG26      -0.2718
      5  CB       -34.7140  -57.7630   -3.7590 C.3    26  ARG26       0.0321
      6  CG       -34.9010  -58.1220   -5.2300 C.3    26  ARG26       0.0489
      7  CD       -33.6520  -58.6980   -5.8940 C.3    26  ARG26       0.2205
      8  NE       -33.7880  -58.7100   -7.3600 N.pl3  26  ARG26      -0.0865
      9  CZ       -33.1870  -57.8680   -8.2240 C.cat  26  ARG26       0.5346
     10  NH1      -32.3540  -56.9050   -7.8070 N.pl3  26  ARG26       0.1354
     11  NH2      -33.4220  -57.9950   -9.5390 N.pl3  26  ARG26       0.1354
     12  N        -34.4360  -54.6800   -3.2700 N.am   27  HIS27      -0.1962
     13  CA       -33.8290  -53.4910   -3.8710 C.3    27  HIS27       0.1787
     14  C        -33.2860  -53.8290   -5.2650 C.2    27  HIS27       0.2620
     15  O        -32.6450  -54.8650   -5.4490 O.2    27  HIS27      -0.2715
     16  CB       -32.7040  -52.9370   -2.9780 C.3    27  HIS27       0.0785
     17  CG       -31.8890  -51.8530   -3.6190 C.ar   27  HIS27       0.0821
     18  ND1      -32.2040  -50.5130   -3.5070 N.ar   27  HIS27      -0.2267
     19  CD2      -30.7580  -51.9120   -4.3700 C.ar   27  HIS27       0.1154
     20  CE1      -31.3100  -49.7950   -4.1650 C.ar   27  HIS27       0.1986
     21  NE2      -30.4160  -50.6170   -4.6930 N.ar   27  HIS27      -0.2212
     22  N        -33.5610  -52.9330   -6.2230 N.am   28  LEU28      -0.1963
     23  CA       -33.1100  -53.0460   -7.6090 C.3    28  LEU28       0.1728
     24  C        -32.0880  -51.9830   -8.0010 C.2    28  LEU28       0.2616
     25  O        -31.0340  -52.3080   -8.5660 O.2    28  LEU28      -0.2715
     26  CB       -34.2970  -52.9200   -8.5590 C.3    28  LEU28       0.0311
     27  CG       -33.9950  -53.0380  -10.0570 C.3    28  LEU28       0.0022
     28  CD1      -33.3580  -54.3700  -10.4040 C.3    28  LEU28       0.0001
     29  CD2      -35.2680  -52.8650  -10.8620 C.3    28  LEU28       0.0001
     30  N        -32.3900  -50.7280   -7.6710 N.am   29  CYS29      -0.1968
     31  CA       -31.5990  -49.5920   -8.1160 C.3    29  CYS29       0.1712
     32  C        -31.8530  -48.3380   -7.2720 C.2    29  CYS29       0.2296
     33  O        -32.8100  -48.2890   -6.4950 O.2    29  CYS29      -0.2864
     34  CB       -31.9440  -49.2910   -9.5680 C.3    29  CYS29       0.0983
     35  SG       -31.0100  -50.2570  -10.7880 S.3    29  CYS29      -0.0798
     36  N        -30.3930  -49.0290  -17.6010 N.3    44  HIS44      -0.1241
     37  CA       -29.9560  -50.4110  -17.5030 C.3    44  HIS44       0.1621
     38  C        -30.6470  -51.1250  -16.3640 C.2    44  HIS44       0.2264
     39  O        -30.7610  -52.3400  -16.3820 O.2    44  HIS44      -0.2867
     40  CB       -28.4330  -50.5120  -17.4120 C.3    44  HIS44       0.0745
     41  CG       -27.8700  -50.1650  -16.0720 C.ar   44  HIS44       0.0817
     42  ND1      -27.1410  -49.0190  -15.8480 N.ar   44  HIS44      -0.2268
     43  CD2      -27.9220  -50.8160  -14.8880 C.ar   44  HIS44       0.1154
     44  CE1      -26.7610  -48.9820  -14.5830 C.ar   44  HIS44       0.1986
     45  NE2      -27.2320  -50.0540  -13.9740 N.ar   44  HIS44      -0.2212
     46  N        -23.1650  -52.4010   -2.7040 N.3   134  TYR134     -0.1241
     47  CA       -22.1060  -53.1500   -2.0420 C.3   134  TYR134      0.1605
     48  C        -20.9760  -52.2280   -1.5550 C.2   134  TYR134      0.2264
     49  O        -20.7360  -51.1680   -2.1230 O.2   134  TYR134     -0.2867
     50  CB       -21.4870  -54.1720   -2.9970 C.3   134  TYR134      0.0534
     51  CG       -22.3510  -55.3140   -3.4780 C.ar  134  TYR134     -0.0201
     52  CD1      -23.7230  -55.3580   -3.2260 C.ar  134  TYR134     -0.0009
     53  CD2      -21.7950  -56.3360   -4.2450 C.ar  134  TYR134     -0.0009
     54  CE1      -24.4990  -56.3980   -3.6960 C.ar  134  TYR134      0.0417
     55  CE2      -22.5700  -57.3930   -4.7080 C.ar  134  TYR134      0.0417
     56  CZ       -23.9210  -57.4090   -4.4440 C.ar  134  TYR134      0.1957
     57  OH       -24.6940  -58.4430   -4.9040 O.3   134  TYR134     -0.2866
     58  N        -16.7730  -55.3110   -4.2610 N.3   137  LEU137     -0.1245
     59  CA       -17.2900  -56.0290   -5.4320 C.3   137  LEU137      0.1561
     60  C        -18.0770  -57.2880   -5.0750 C.2   137  LEU137      0.2260
     61  O        -19.0090  -57.6720   -5.7760 O.2   137  LEU137     -0.2867
     62  CB       -16.1560  -56.4110   -6.3980 C.3   137  LEU137      0.0270
     63  CG       -16.3270  -56.0210   -7.8680 C.3   137  LEU137      0.0019
     64  CD1      -15.2510  -56.6890   -8.7140 C.3   137  LEU137      0.0001
     65  CD2      -17.6970  -56.3770   -8.4050 C.3   137  LEU137      0.0001
     66  N        -26.2350  -55.8500   -0.3840 N.3   141  ILE141     -0.1245
     67  CA       -26.9520  -54.5820   -0.2640 C.3   141  ILE141      0.1561
     68  C        -26.8790  -54.1080    1.1810 C.2   141  ILE141      0.2260
     69  O        -27.0460  -54.9040    2.0930 O.2   141  ILE141     -0.2867
     70  CB       -28.4210  -54.7630   -0.7050 C.3   141  ILE141      0.0252
     71  CG1      -28.4710  -54.9830   -2.2020 C.3   141  ILE141      0.0019
     72  CG2      -29.3050  -53.5750   -0.3240 C.3   141  ILE141      0.0019
     73  CD1      -27.8120  -53.8980   -3.0140 C.3   141  ILE141      0.0001
     74  N        -16.0910  -45.1250   -4.1510 N.3   182  ASP182     -0.1225
     75  CA       -16.8060  -45.2930   -5.4240 C.3   182  ASP182      0.1805
     76  C        -18.1790  -45.8900   -5.1900 C.2   182  ASP182      0.2598
     77  O        -18.4370  -46.5080   -4.1570 O.2   182  ASP182     -0.2718
     78  CB       -16.0220  -46.2850   -6.3040 C.3   182  ASP182      0.1424
     79  CG       -16.3050  -46.1570   -7.8280 C.2   182  ASP182      0.3668
     80  OD1      -16.9640  -45.1890   -8.3170 O.co2 182  ASP182     -0.2456
     81  OD2      -15.7890  -47.0590   -8.5520 O.co2 182  ASP182     -0.2456
     82  N        -19.0500  -45.7100   -6.1670 N.am  183  ALA183     -0.1966
     83  CA       -20.2300  -46.5480   -6.3010 C.3   183  ALA183      0.1728
     84  C        -19.8460  -47.9980   -6.4260 C.2   183  ALA183      0.2616
     85  O        -18.6860  -48.3280   -6.7530 O.2   183  ALA183     -0.2715
     86  CB       -21.0280  -46.1380   -7.5260 C.3   183  ALA183      0.0334
     87  N        -20.8220  -48.8750   -6.1920 N.am  184  CYS184     -0.1954
     88  CA       -20.6490  -50.2900   -6.5030 C.3   184  CYS184      0.1843
     89  C        -22.0130  -50.9390   -6.7470 C.2   184  CYS184      0.2625
     90  O        -23.0250  -50.2450   -6.8270 O.2   184  CYS184     -0.2714
     91  CB       -19.8610  -51.0200   -5.3820 C.3   184  CYS184      0.0997
     92  SG       -19.0890  -52.5960   -5.8630 S.3   184  CYS184     -0.0797
     93  N        -22.0410  -52.2640   -6.8960 N.am  185  LYS185     -0.1963
     94  CA       -23.2940  -52.9620   -7.2800 C.3   185  LYS185      0.1728
     95  C        -24.4680  -52.6210   -6.3530 C.2   185  LYS185      0.2616
     96  O        -24.3760  -52.8130   -5.1490 O.2   185  LYS185     -0.2715
     97  CB       -23.1020  -54.4770   -7.2790 C.3   185  LYS185      0.0311
     98  CG       -22.1920  -54.9590   -8.3910 C.3   185  LYS185      0.0038
     99  CD       -21.7660  -56.4080   -8.2300 C.3   185  LYS185      0.0206
    100  CE       -20.9790  -56.8330   -9.4750 C.3   185  LYS185      0.1093
    101  NZ       -20.5560  -58.2430   -9.3620 N.3   185  LYS185     -0.1314
    102  N        -25.5620  -52.1540   -6.9260 N.am  186  GLY186     -0.1955
    103  CA       -26.7370  -51.7210   -6.1480 C.3   186  GLY186      0.1869
    104  C        -26.8800  -50.2020   -6.0860 C.2   186  GLY186      0.2309
    105  O        -27.9610  -49.7060   -5.7780 O.2   186  GLY186     -0.2863
    106  N        -26.3980  -48.1420   -8.7790 N.3   188  SER188     -0.1217
    107  CA       -26.6780  -47.4790  -10.0830 C.3   188  SER188      0.1889
    108  C        -28.0760  -46.8960  -10.1460 C.2   188  SER188      0.2288
    109  O        -28.9630  -47.3240   -9.4220 O.2   188  SER188     -0.2866
    110  CB       -26.4570  -48.3790  -11.2710 C.3   188  SER188      0.2089
    111  OG       -27.4310  -49.4090  -11.3190 O.3   188  SER188     -0.2183
    112  N        -25.4810  -42.4880  -11.5480 N.3   206  THR206     -0.1203
    113  CA       -24.5420  -43.5750  -11.3860 C.3   206  THR206      0.1994
    114  C        -24.7860  -44.6620  -12.4200 C.2   206  THR206      0.2619
    115  O        -25.8930  -45.1660  -12.5510 O.2   206  THR206     -0.2717
    116  CB       -24.6170  -44.1680   -9.9670 C.3   206  THR206      0.1784
    117  OG1      -24.2120  -43.1740   -9.0320 O.3   206  THR206     -0.2211
    118  CG2      -23.6950  -45.3260   -9.8160 C.3   206  THR206      0.0376
    119  N        -23.7400  -45.0070  -13.1740 N.am  207  SER207     -0.1937
    120  CA       -23.9420  -45.7900  -14.3980 C.3   207  SER207      0.2055
    121  C        -23.0370  -47.0200  -14.5240 C.2   207  SER207      0.2643
    122  O        -23.5240  -48.1260  -14.4780 O.2   207  SER207     -0.2714
    123  CB       -23.8660  -44.8790  -15.6150 C.3   207  SER207      0.2130
    124  OG       -23.8220  -45.6470  -16.8030 O.3   207  SER207     -0.2179
    125  N        -21.7300  -46.8380  -14.6500 N.am  208  TRP208     -0.1959
    126  CA       -20.8260  -47.9810  -14.7420 C.3   208  TRP208      0.1771
    127  C        -19.3840  -47.6650  -14.3540 C.2   208  TRP208      0.2620
    128  O        -18.9760  -46.5090  -14.2760 O.2   208  TRP208     -0.2715
    129  CB       -20.8590  -48.5720  -16.1690 C.3   208  TRP208      0.0590
    130  CG       -20.3470  -47.6560  -17.2590 C.ar  208  TRP208      0.0006
    131  CD1      -21.0390  -46.6450  -17.8660 C.ar  208  TRP208      0.0946
    132  CD2      -19.0380  -47.6700  -17.8800 C.ar  208  TRP208      0.0152
    133  NE1      -20.2470  -46.0170  -18.8020 N.ar  208  TRP208     -0.2442
    134  CE2      -19.0180  -46.6270  -18.8370 C.ar  208  TRP208      0.0810
    135  CE3      -17.8840  -48.4450  -17.7040 C.ar  208  TRP208      0.0012
    136  CZ2      -17.8940  -46.3540  -19.6300 C.ar  208  TRP208      0.0191
    137  CZ3      -16.7670  -48.1770  -18.4900 C.ar  208  TRP208      0.0001
    138  CH2      -16.7840  -47.1510  -19.4570 C.ar  208  TRP208      0.0015
    139  N        -18.6210  -48.7160  -14.1110 N.am  209  GLY209     -0.1954
    140  CA       -17.1690  -48.6130  -13.9520 C.3   209  GLY209      0.1869
    141  C        -16.5260  -49.9850  -14.1260 C.2   209  GLY209      0.2309
    142  O        -17.2340  -51.0030  -14.1470 O.2   209  GLY209     -0.2863
    143  N        -14.9200  -52.6850  -12.2510 N.3   211  GLY211     -0.1210
    144  CA       -14.9070  -53.0040  -10.8390 C.3   211  GLY211      0.1956
    145  C        -15.3640  -51.7820  -10.0420 C.2   211  GLY211      0.2612
    146  O        -15.9040  -50.8180  -10.6200 O.2   211  GLY211     -0.2717
    147  N        -15.0900  -51.8030   -8.7440 N.am  212  CYS212     -0.1970
    148  CA       -15.5180  -50.7340   -7.8100 C.3   212  CYS212      0.1712
    149  C        -14.3390  -50.1050   -7.0630 C.2   212  CYS212      0.2296
    150  O        -13.6110  -50.8010   -6.4140 O.2   212  CYS212     -0.2864
    151  CB       -16.4670  -51.3430   -6.7790 C.3   212  CYS212      0.0983
    152  SG       -17.9100  -52.1320   -7.5000 S.3   212  CYS212     -0.0798
    153  N        -15.3590  -43.8290  -11.5080 N.3   219  GLY219     -0.1210
    154  CA       -16.7480  -44.1500  -11.7850 C.3   219  GLY219      0.1956
    155  C        -17.2040  -43.3480  -12.9970 C.2   219  GLY219      0.2612
    156  O        -16.7650  -42.2100  -13.1690 O.2   219  GLY219     -0.2717
    157  N        -18.0880  -43.9280  -13.8190 N.am  220  VAL220     -0.1965
    158  CA       -18.6800  -43.2100  -14.9590 C.3   220  VAL220      0.1727
    159  C        -20.1750  -42.9650  -14.7530 C.2   220  VAL220      0.2616
    160  O        -20.9310  -43.8720  -14.3980 O.2   220  VAL220     -0.2715
    161  CB       -18.4680  -43.9630  -16.2950 C.3   220  VAL220      0.0290
    162  CG1      -18.9700  -43.1220  -17.4700 C.3   220  VAL220      0.0023
    163  CG2      -17.0000  -44.3280  -16.4820 C.3   220  VAL220      0.0023
    164  N        -20.5930  -41.7340  -15.0240 N.am  221  TYR221     -0.1974
    165  CA       -21.9490  -41.2620  -14.7150 C.3   221  TYR221      0.1639
    166  C        -22.5460  -40.6260  -15.9450 C.2   221  TYR221      0.2290
    167  O        -21.8350  -40.0060  -16.7210 O.2   221  TYR221     -0.2864
    168  CB       -21.9210  -40.2020  -13.5850 C.3   221  TYR221      0.0560
    169  CG       -21.3580  -40.7080  -12.2770 C.ar  221  TYR221     -0.0198
    170  CD1      -19.9870  -40.8380  -12.0770 C.ar  221  TYR221     -0.0009
    171  CD2      -22.2040  -41.0790  -11.2420 C.ar  221  TYR221     -0.0009
    172  CE1      -19.4860  -41.3160  -10.8810 C.ar  221  TYR221      0.0417
    173  CE2      -21.7020  -41.5640  -10.0590 C.ar  221  TYR221      0.0417
    174  CZ       -20.3590  -41.6720   -9.8840 C.ar  221  TYR221      0.1957
    175  OH       -19.9270  -42.1620   -8.6990 O.3   221  TYR221     -0.2866
@<TRIPOS>BOND
     1   136   138   ar
     2   136   134   ar
     3   138   137   ar
     4   134   133   ar
     5   134   132   ar
     6   133   131   ar
     7   137   135   ar
     8   132   135   ar
     9   132   130   ar
    10   131   130   ar
    11    36    37    1
    12    37    40    1
    13    37    38    1
    14   162   161    1
    15    40    41    1
    16   130   129    1
    17   124   123    1
    18   167   166    2
    19   163   161    1
    20    39    38    2
    21   161   158    1
    22   129   126    1
    23    41    42   ar
    24    41    43   ar
    25   166   165    1
    26    42    44   ar
    27   123   120    1
    28   164   159   am
    29   164   165    1
    30   158   159    1
    31   158   157    1
    32    43    45   ar
    33   159   160    2
    34   126   125    1
    35   126   127    1
    36   165   168    1
    37   125   121   am
    38    44    45   ar
    39   121   122    2
    40   121   120    1
    41   120   119    1
    42   127   128    2
    43   127   139   am
    44   142   141    2
    45   141   140    1
    46   139   140    1
    47   157   155   am
    48   168   169    1
    49   119   114   am
    50   156   155    2
    51   155   154    1
    52   115   114    2
    53   114   113    1
    54   169   170   ar
    55   169   171   ar
    56   143   144    1
    57   170   172   ar
    58   154   153    1
    59   112   113    1
    60   113   116    1
    61   111   110    1
    62   110   107    1
    63   171   173   ar
    64   172   174   ar
    65    29    27    1
    66   144   145    1
    67    35    34    1
    68   146   145    2
    69    28    27    1
    70   108   107    1
    71   108   109    2
    72   107   106    1
    73   173   174   ar
    74    27    26    1
    75   145   147   am
    76   116   118    1
    77   116   117    1
    78   174   175    1
    79    34    31    1
    80    11     9    1
    81   100   101    1
    82   100    99    1
    83   147   148    1
    84    64    63    1
    85    25    24    2
    86    26    23    1
    87    81    79   ar
    88    65    63    1
    89    98    99    1
    90    98    97    1
    91    80    79   ar
    92     9    10    1
    93     9     8    2
    94    31    30    1
    95    31    32    1
    96    24    30   am
    97    24    23    1
    98    63    62    1
    99    79    78    1
   100   148   149    1
   101   148   151    1
   102    23    22    1
   103    86    83    1
   104   152   151    1
   105   152    92    1
   106     8     7    1
   107    94    97    1
   108    94    93    1
   109    94    95    1
   110    32    33    2
   111   149   150    2
   112   102    95   am
   113   102   103    1
   114    93    89   am
   115    90    89    2
   116    85    84    2
   117    89    88    1
   118    88    87    1
   119    88    91    1
   120    84    83    1
   121    84    87   am
   122    62    59    1
   123    95    96    2
   124    78    75    1
   125    83    82    1
   126    22    14   am
   127    82    76   am
   128   103   104    1
   129   104   105    2
   130     7     6    1
   131    92    91    1
   132    61    60    2
   133    15    14    2
   134    59    60    1
   135    59    58    1
   136    75    76    1
   137    75    74    1
   138    14    13    1
   139     6     5    1
   140    76    77    2
   141     4     3    2
   142    57    56    1
   143    55    56   ar
   144    55    53   ar
   145    21    19   ar
   146    21    20   ar
   147    56    54   ar
   148    19    17   ar
   149    53    51   ar
   150    20    18   ar
   151     3    12   am
   152     3     2    1
   153    13    12    1
   154    13    16    1
   155     5     2    1
   156    54    52   ar
   157    17    18   ar
   158    17    16    1
   159     1     2    1
   160    51    52   ar
   161    51    50    1
   162    73    71    1
   163    50    47    1
   164    46    47    1
   165    71    70    1
   166    49    48    2
   167    47    48    1
   168    70    72    1
   169    70    67    1
   170    66    67    1
   171    67    68    1
   172    68    69    2
