@<TRIPOS>MOLECULE
tmp/4creA00.pdb
 116 114 0 0 0
SMALL
GASTEIGER

@<TRIPOS>ATOM
      1  N         30.5420   18.1620   49.9150 N.3    44  HIS44      -0.1241
      2  CA        29.9870   17.9730   51.2600 C.3    44  HIS44       0.1621
      3  C         30.5700   16.7570   51.9620 C.2    44  HIS44       0.2264
      4  O         30.5040   16.6500   53.1820 O.2    44  HIS44      -0.2867
      5  CB        28.4490   17.9710   51.2570 C.3    44  HIS44       0.0745
      6  CG        27.8190   16.6570   50.9150 C.ar   44  HIS44       0.0817
      7  ND1       27.2110   16.4210   49.7030 N.ar   44  HIS44      -0.2268
      8  CD2       27.6490   15.5300   51.6440 C.ar   44  HIS44       0.1154
      9  CE1       26.7070   15.1990   49.6910 C.ar   44  HIS44       0.1986
     10  NE2       26.9610   14.6370   50.8590 N.ar   44  HIS44      -0.2212
     11  N         16.5220    5.5050   55.1460 N.3   137  LEU137     -0.1245
     12  CA        17.0720    6.7170   55.7900 C.3   137  LEU137      0.1561
     13  C         17.9630    6.4160   57.0040 C.2   137  LEU137      0.2260
     14  O         19.0330    7.0170   57.1620 O.2   137  LEU137     -0.2867
     15  CB        15.9520    7.6880   56.2050 C.3   137  LEU137      0.0270
     16  CG        16.1570    9.2010   55.9860 C.3   137  LEU137      0.0019
     17  CD1       15.4310    9.9850   57.0760 C.3   137  LEU137      0.0001
     18  CD2       17.6160    9.6420   55.9280 C.3   137  LEU137      0.0001
     19  N         16.2010    5.7000   44.7330 N.3   182  ASP182     -0.1225
     20  CA        16.9080    6.9500   45.0310 C.3   182  ASP182      0.1805
     21  C         18.2740    6.6350   45.6120 C.2   182  ASP182      0.2598
     22  O         18.5270    5.5120   46.0330 O.2   182  ASP182     -0.2718
     23  CB        16.0820    7.7540   46.0540 C.3   182  ASP182      0.1424
     24  CG        16.4650    9.2340   46.1470 C.2   182  ASP182      0.3668
     25  OD1       17.2390    9.7640   45.3220 O.co2 182  ASP182     -0.2456
     26  OD2       15.9540    9.8850   47.0870 O.co2 182  ASP182     -0.2456
     27  N         19.1460    7.6360   45.6310 N.am  183  ALA183     -0.1966
     28  CA        20.3330    7.6100   46.4730 C.3   183  ALA183      0.1728
     29  C         19.9460    7.8060   47.9380 C.2   183  ALA183      0.2616
     30  O         18.8290    8.2190   48.2610 O.2   183  ALA183     -0.2715
     31  CB        21.3110    8.6970   46.0490 C.3   183  ALA183      0.0334
     32  N         20.8840    7.5130   48.8240 N.am  184  CYS184     -0.1954
     33  CA        20.6930    7.7570   50.2530 C.3   184  CYS184      0.1843
     34  C         22.0400    8.0330   50.9090 C.2   184  CYS184      0.2625
     35  O         23.0520    8.1660   50.2240 O.2   184  CYS184     -0.2714
     36  CB        19.9940    6.5610   50.9070 C.3   184  CYS184      0.0997
     37  SG        19.0850    6.9530   52.4320 S.3   184  CYS184     -0.0797
     38  N         22.0500    8.1320   52.2330 N.am  185  LYS185     -0.1977
     39  CA        23.2780    8.4090   52.9730 C.3   185  LYS185      0.1596
     40  C         24.3580    7.3990   52.5900 C.2   185  LYS185      0.2287
     41  O         24.0950    6.1990   52.5260 O.2   185  LYS185     -0.2864
     42  CB        23.0140    8.3900   54.4820 C.3   185  LYS185      0.0298
     43  CG        24.2540    8.5980   55.3280 C.3   185  LYS185      0.0038
     44  CD        23.9290    9.1180   56.7200 C.3   185  LYS185      0.0206
     45  CE        25.1980    9.2870   57.5370 C.3   185  LYS185      0.1093
     46  NZ        24.9320    9.8860   58.8750 N.3   185  LYS185     -0.1314
     47  N         26.5510    9.7090   48.5280 N.3   188  SER188     -0.1217
     48  CA        27.0930   11.0370   48.2170 C.3   188  SER188      0.1889
     49  C         28.3980   10.9860   47.4500 C.2   188  SER188      0.2288
     50  O         29.2920   10.2250   47.7960 O.2   188  SER188     -0.2866
     51  CB        27.3700   11.8040   49.5130 C.3   188  SER188      0.2089
     52  OG        26.1740   12.0830   50.2200 O.3   188  SER188     -0.2183
     53  N         25.9050   12.6820   42.9930 N.3   206  THR206     -0.1203
     54  CA        24.9260   12.4870   44.0690 C.3   206  THR206      0.1994
     55  C         25.1610   13.5060   45.1840 C.2   206  THR206      0.2619
     56  O         26.2500   13.5800   45.7360 O.2   206  THR206     -0.2717
     57  CB        25.0210   11.0380   44.5980 C.3   206  THR206      0.1784
     58  OG1       24.7220   10.1350   43.5260 O.3   206  THR206     -0.2211
     59  CG2       24.0690   10.7770   45.7560 C.3   206  THR206      0.0376
     60  N         24.1390   14.3100   45.4800 N.am  207  SER207     -0.1937
     61  CA        24.3070   15.4780   46.3360 C.3   207  SER207      0.2055
     62  C         23.3740   15.4690   47.5550 C.2   207  SER207      0.2643
     63  O         23.8420   15.3620   48.6890 O.2   207  SER207     -0.2714
     64  CB        24.1310   16.7680   45.5240 C.3   207  SER207      0.2130
     65  OG        24.4600   17.8990   46.3120 O.3   207  SER207     -0.2179
     66  N         22.0700   15.5820   47.3310 N.am  208  TRP208     -0.1959
     67  CA        21.1160   15.6230   48.4400 C.3   208  TRP208      0.1771
     68  C         19.6830   15.3510   48.0170 C.2   208  TRP208      0.2620
     69  O         19.3510   15.3290   46.8350 O.2   208  TRP208     -0.2715
     70  CB        21.1860   16.9910   49.1490 C.3   208  TRP208      0.0590
     71  CG        20.7260   18.1370   48.3100 C.ar  208  TRP208      0.0006
     72  CD1       21.4560   18.8230   47.3840 C.ar  208  TRP208      0.0946
     73  CD2       19.4240   18.7430   48.3200 C.ar  208  TRP208      0.0152
     74  NE1       20.6940   19.8130   46.8140 N.ar  208  TRP208     -0.2442
     75  CE2       19.4390   19.7790   47.3650 C.ar  208  TRP208      0.0810
     76  CE3       18.2440   18.4990   49.0330 C.ar  208  TRP208      0.0012
     77  CZ2       18.3210   20.5850   47.1140 C.ar  208  TRP208      0.0191
     78  CZ3       17.1320   19.3020   48.7800 C.ar  208  TRP208      0.0001
     79  CH2       17.1790   20.3220   47.8260 C.ar  208  TRP208      0.0015
     80  N         18.8400   15.1500   49.0200 N.am  209  GLY209     -0.1954
     81  CA        17.3930   15.1040   48.8400 C.3   209  GLY209      0.1869
     82  C         16.7510   15.1360   50.2140 C.2   209  GLY209      0.2309
     83  O         17.4420   14.9850   51.2200 O.2   209  GLY209     -0.2863
     84  N         15.0480   13.1990   52.7660 N.3   211  GLY211     -0.1210
     85  CA        14.8890   11.7650   53.0140 C.3   211  GLY211      0.1956
     86  C         15.4810   10.9730   51.8590 C.2   211  GLY211      0.2612
     87  O         16.3650   11.4610   51.1560 O.2   211  GLY211     -0.2717
     88  N         15.0110    9.7460   51.6810 N.am  212  CYS212     -0.1970
     89  CA        15.4780    8.8760   50.6050 C.3   212  CYS212      0.1712
     90  C         14.2930    8.1760   49.9640 C.2   212  CYS212      0.2296
     91  O         13.5250    7.5070   50.6520 O.2   212  CYS212     -0.2864
     92  CB        16.4470    7.8290   51.1560 C.3   212  CYS212      0.0983
     93  SG        17.9040    8.5380   51.9520 S.3   212  CYS212     -0.0798
     94  N         15.8020   13.0370   43.8190 N.3   219  GLY219     -0.1210
     95  CA        17.1800   13.2390   44.2450 C.3   219  GLY219      0.1956
     96  C         17.7520   14.4240   43.4920 C.2   219  GLY219      0.2612
     97  O         17.4160   14.6360   42.3250 O.2   219  GLY219     -0.2717
     98  N         18.6030   15.1950   44.1610 N.am  220  VAL220     -0.1965
     99  CA        19.2340   16.3630   43.5650 C.3   220  VAL220      0.1727
    100  C         20.7170   16.0740   43.3730 C.2   220  VAL220      0.2616
    101  O         21.4080   15.6320   44.2980 O.2   220  VAL220     -0.2715
    102  CB        19.0330   17.6310   44.4250 C.3   220  VAL220      0.0290
    103  CG1       19.5440   18.8650   43.6890 C.3   220  VAL220      0.0023
    104  CG2       17.5650   17.8010   44.7730 C.3   220  VAL220      0.0023
    105  N         21.1940   16.3330   42.1620 N.am  221  TYR221     -0.1974
    106  CA        22.5520   16.0170   41.7650 C.3   221  TYR221      0.1639
    107  C         23.2350   17.2570   41.2270 C.2   221  TYR221      0.2290
    108  O         22.5820   18.1340   40.6540 O.2   221  TYR221     -0.2864
    109  CB        22.5350   14.9430   40.6770 C.3   221  TYR221      0.0560
    110  CG        21.8970   13.6420   41.1040 C.ar  221  TYR221     -0.0198
    111  CD1       20.5130   13.5090   41.1760 C.ar  221  TYR221     -0.0009
    112  CD2       22.6750   12.5400   41.4210 C.ar  221  TYR221     -0.0009
    113  CE1       19.9300   12.3210   41.5650 C.ar  221  TYR221      0.0417
    114  CE2       22.0990   11.3460   41.8110 C.ar  221  TYR221      0.0417
    115  CZ        20.7320   11.2330   41.8810 C.ar  221  TYR221      0.1957
    116  OH        20.1450   10.0420   42.2690 O.3   221  TYR221     -0.2866
@<TRIPOS>BOND
     1   108   107    2
     2   109   110    1
     3   109   106    1
     4   110   111   ar
     5   110   112   ar
     6   111   113   ar
     7   107   106    1
     8   112   114   ar
     9   113   115   ar
    10   106   105    1
    11   114   115   ar
    12   115   116    1
    13   105   100   am
    14    97    96    2
    15    53    54    1
    16   100    99    1
    17   100   101    2
    18    96    98   am
    19    96    95    1
    20    58    57    1
    21    99    98    1
    22    99   102    1
    23   103   102    1
    24    94    95    1
    25    54    57    1
    26    54    55    1
    27   102   104    1
    28    57    59    1
    29    19    20    1
    30    20    21    1
    31    20    23    1
    32    55    60   am
    33    55    56    2
    34    25    24   ar
    35    60    61    1
    36    64    65    1
    37    64    61    1
    38    21    27   am
    39    21    22    2
    40    27    28    1
    41    31    28    1
    42    23    24    1
    43    24    26   ar
    44    61    62    1
    45    28    29    1
    46    74    75   ar
    47    74    72   ar
    48    69    68    2
    49    77    75   ar
    50    77    79   ar
    51    66    62   am
    52    66    67    1
    53    75    73   ar
    54    72    71   ar
    55    49    50    2
    56    49    48    1
    57    62    63    2
    58    79    78   ar
    59    29    30    2
    60    29    32   am
    61    68    67    1
    62    68    80   am
    63    48    47    1
    64    48    51    1
    65    71    73   ar
    66    71    70    1
    67    73    76   ar
    68    67    70    1
    69    78    76   ar
    70    32    33    1
    71    81    80    1
    72    81    82    1
    73    51    52    1
    74     9     7   ar
    75     9    10   ar
    76     7     6   ar
    77     1     2    1
    78    90    89    1
    79    90    91    2
    80    82    83    2
    81    35    34    2
    82    33    36    1
    83    33    34    1
    84    89    92    1
    85    89    88    1
    86    10     8   ar
    87    36    37    1
    88    34    38   am
    89     6     5    1
    90     6     8   ar
    91    87    86    2
    92    92    93    1
    93     5     2    1
    94     2     3    1
    95    88    86   am
    96    86    85    1
    97    93    37    1
    98     3     4    2
    99    38    39    1
   100    41    40    2
   101    40    39    1
   102    84    85    1
   103    39    42    1
   104    42    43    1
   105    11    12    1
   106    43    44    1
   107    12    15    1
   108    12    13    1
   109    18    16    1
   110    16    15    1
   111    16    17    1
   112    44    45    1
   113    13    14    2
   114    45    46    1
