@<TRIPOS>MOLECULE
tmp/4crfA00.pdb
 202 200 0 0 0
SMALL
GASTEIGER

@<TRIPOS>ATOM
      1  N         57.6400   36.5810    3.6630 N.3    26  ARG26      -0.1231
      2  CA        57.1400   35.2410    3.4010 C.3    26  ARG26       0.1694
      3  C         55.8400   34.9850    4.1190 C.2    26  ARG26       0.2592
      4  O         55.5190   35.6320    5.0950 O.2    26  ARG26      -0.2718
      5  CB        58.1500   34.2020    3.8400 C.3    26  ARG26       0.0321
      6  CG        58.4070   34.2330    5.3350 C.3    26  ARG26       0.0489
      7  CD        59.6280   33.4090    5.6750 C.3    26  ARG26       0.2205
      8  NE        60.8320   34.2270    5.8770 N.pl3  26  ARG26      -0.0865
      9  CZ        61.8620   34.3310    5.0270 C.cat  26  ARG26       0.5346
     10  NH1       61.8700   33.6910    3.8590 N.pl3  26  ARG26       0.1354
     11  NH2       62.8970   35.0950    5.3300 N.pl3  26  ARG26       0.1354
     12  N         55.1120   34.0060    3.6090 N.am   27  HIS27      -0.1962
     13  CA        53.9150   33.5050    4.2450 C.3    27  HIS27       0.1787
     14  C         54.2250   32.9350    5.6250 C.2    27  HIS27       0.2620
     15  O         55.1840   32.1690    5.7910 O.2    27  HIS27      -0.2715
     16  CB        53.2700   32.4360    3.3490 C.3    27  HIS27       0.0785
     17  CG        52.1890   31.6510    4.0230 C.ar   27  HIS27       0.0821
     18  ND1       50.8640   32.0330    4.0050 N.ar   27  HIS27      -0.2267
     19  CD2       52.2440   30.5040    4.7410 C.ar   27  HIS27       0.1154
     20  CE1       50.1470   31.1470    4.6730 C.ar   27  HIS27       0.1986
     21  NE2       50.9620   30.2160    5.1420 N.ar   27  HIS27      -0.2212
     22  N         53.3870   33.2820    6.5950 N.am   28  LEU28      -0.1963
     23  CA        53.5590   32.8470    7.9750 C.3    28  LEU28       0.1728
     24  C         52.4620   31.8940    8.4100 C.2    28  LEU28       0.2616
     25  O         52.7120   30.7950    8.9210 O.2    28  LEU28      -0.2715
     26  CB        53.5340   34.0730    8.8720 C.3    28  LEU28       0.0311
     27  CG        53.6070   33.8950   10.3800 C.3    28  LEU28       0.0022
     28  CD1       54.9010   33.2100   10.7620 C.3    28  LEU28       0.0001
     29  CD2       53.4960   35.2680   11.0220 C.3    28  LEU28       0.0001
     30  N         51.2270   32.3100    8.1820 N.am   29  CYS29      -0.1968
     31  CA        50.0950   31.5500    8.6490 C.3    29  CYS29       0.1712
     32  C         48.8570   31.8500    7.8730 C.2    29  CYS29       0.2296
     33  O         48.7590   32.8700    7.2290 O.2    29  CYS29      -0.2864
     34  CB        49.8160   31.9360   10.0880 C.3    29  CYS29       0.0983
     35  SG        50.7270   30.9880   11.2910 S.3    29  CYS29      -0.0798
     36  N         49.9640   30.6350   18.2040 N.3    44  HIS44      -0.1226
     37  CA        51.3350   30.1710   17.9860 C.3    44  HIS44       0.1752
     38  C         52.0000   30.7740   16.7630 C.2    44  HIS44       0.2596
     39  O         53.2080   30.6640   16.5990 O.2    44  HIS44      -0.2718
     40  CB        51.3690   28.6450   17.8670 C.3    44  HIS44       0.0759
     41  CG        50.8440   28.1150   16.5630 C.ar   44  HIS44       0.0818
     42  ND1       49.6610   27.4120   16.4640 N.ar   44  HIS44      -0.2268
     43  CD2       51.3420   28.1820   15.3100 C.ar   44  HIS44       0.1154
     44  CE1       49.4740   27.0400   15.2110 C.ar   44  HIS44       0.1986
     45  NE2       50.4690   27.5120   14.4860 N.ar   44  HIS44      -0.2212
     46  N         51.2230   31.3920   15.8850 N.am   45  CYS45      -0.1970
     47  CA        51.7840   32.0490   14.7050 C.3    45  CYS45       0.1712
     48  C         52.6930   33.2240   15.0370 C.2    45  CYS45       0.2296
     49  O         53.4920   33.6530   14.1990 O.2    45  CYS45      -0.2864
     50  CB        50.6620   32.5830   13.8120 C.3    45  CYS45       0.0983
     51  SG        49.7320   31.3030   13.0110 S.3    45  CYS45      -0.0798
     52  N         54.9360   33.4050   17.5840 N.3    47  TYR47      -0.1241
     53  CA        56.1850   33.1050   18.2860 C.3    47  TYR47       0.1605
     54  C         57.3130   33.9910   17.7790 C.2    47  TYR47       0.2264
     55  O         57.6440   33.9650   16.6020 O.2    47  TYR47      -0.2867
     56  CB        56.5970   31.6370   18.1300 C.3    47  TYR47       0.0534
     57  CG        57.9020   31.3520   18.8410 C.ar   47  TYR47      -0.0201
     58  CD1       57.9400   31.1670   20.2360 C.ar   47  TYR47      -0.0009
     59  CD2       59.0940   31.3000   18.1430 C.ar   47  TYR47      -0.0009
     60  CE1       59.1340   30.9330   20.8820 C.ar   47  TYR47       0.0417
     61  CE2       60.2880   31.0780   18.7880 C.ar   47  TYR47       0.0417
     62  CZ        60.2940   30.9020   20.1530 C.ar   47  TYR47       0.1957
     63  OH        61.4840   30.6830   20.7900 O.3    47  TYR47      -0.2866
     64  N         52.4560   22.9110    3.3340 N.3   133  TYR133     -0.1241
     65  CA        53.1670   21.7790    2.7350 C.3   133  TYR133      0.1605
     66  C         52.2290   20.6910    2.2250 C.2   133  TYR133      0.2264
     67  O         51.2120   20.4440    2.8130 O.2   133  TYR133     -0.2867
     68  CB        54.0570   21.1410    3.7950 C.3   133  TYR133      0.0534
     69  CG        55.3010   21.8870    4.2480 C.ar  133  TYR133     -0.0201
     70  CD1       55.4280   23.2670    4.1590 C.ar  133  TYR133     -0.0009
     71  CD2       56.3290   21.1760    4.8720 C.ar  133  TYR133     -0.0009
     72  CE1       56.5790   23.9030    4.6210 C.ar  133  TYR133      0.0417
     73  CE2       57.4710   21.8010    5.3460 C.ar  133  TYR133      0.0417
     74  CZ        57.6000   23.1430    5.2120 C.ar  133  TYR133      0.1957
     75  OH        58.7430   23.7130    5.6930 O.3   133  TYR133     -0.2866
     76  N         55.2180   16.3080    5.0530 N.3   136  LEU136     -0.1245
     77  CA        55.9570   16.8650    6.2470 C.3   136  LEU136      0.1561
     78  C         57.2480   17.6660    5.9460 C.2   136  LEU136      0.2260
     79  O         57.5070   18.6980    6.5940 O.2   136  LEU136     -0.2867
     80  CB        56.2800   15.7640    7.2820 C.3   136  LEU136      0.0270
     81  CG        56.1580   16.1200    8.7820 C.3   136  LEU136      0.0019
     82  CD1       56.6520   14.9420    9.6320 C.3   136  LEU136      0.0001
     83  CD2       56.8930   17.3990    9.1640 C.3   136  LEU136      0.0001
     84  N         57.3700   22.4360    1.0250 N.3   139  LYS139     -0.1231
     85  CA        57.4420   23.8870    1.0380 C.3   139  LYS139      0.1693
     86  C         56.0590   24.4800    0.8520 C.2   139  LYS139      0.2591
     87  O         55.0710   23.7550    0.6600 O.2   139  LYS139     -0.2718
     88  CB        58.3530   24.3590   -0.0910 C.3   139  LYS139      0.0285
     89  CG        57.7510   24.1020   -1.4640 C.3   139  LYS139      0.0035
     90  CD        58.7080   23.3540   -2.3770 C.3   139  LYS139      0.0206
     91  CE        59.4120   24.2540   -3.3790 C.3   139  LYS139      0.1093
     92  NZ        59.9500   23.4310   -4.5030 N.3   139  LYS139     -0.1314
     93  N         56.0120   25.8080    0.9020 N.am  140  ILE140     -0.1980
     94  CA        54.7720   26.5590    0.7940 C.3   140  ILE140      0.1595
     95  C         54.3160   26.4760   -0.6550 C.2   140  ILE140      0.2287
     96  O         55.1160   26.6650   -1.5740 O.2   140  ILE140     -0.2864
     97  CB        55.0090   28.0190    1.2130 C.3   140  ILE140      0.0276
     98  CG1       55.3560   28.0920    2.7160 C.3   140  ILE140      0.0022
     99  CG2       53.8200   28.9060    0.8690 C.3   140  ILE140      0.0022
    100  CD1       54.3570   27.4520    3.6540 C.3   140  ILE140      0.0001
    101  N         45.1250   15.9910    5.2740 N.3   181  ASP181     -0.1225
    102  CA        45.3650   16.7130    6.5170 C.3   181  ASP181      0.1805
    103  C         45.8920   18.1060    6.1740 C.2   181  ASP181      0.2598
    104  O         46.2600   18.3900    5.0210 O.2   181  ASP181     -0.2718
    105  CB        46.4150   15.9390    7.3460 C.3   181  ASP181      0.1424
    106  CG        46.4580   16.3290    8.8450 C.2   181  ASP181      0.3668
    107  OD1       45.6110   17.1380    9.3390 O.co2 181  ASP181     -0.2456
    108  OD2       47.3760   15.7930    9.5320 O.co2 181  ASP181     -0.2456
    109  N         45.9090   18.9650    7.1820 N.am  182  ALA182     -0.1966
    110  CA        46.7070   20.1710    7.1850 C.3   182  ALA182      0.1728
    111  C         48.1500   19.7690    7.4170 C.2   182  ALA182      0.2616
    112  O         48.4470   18.6610    7.8520 O.2   182  ALA182     -0.2715
    113  CB        46.2450   21.0770    8.3200 C.3   182  ALA182      0.0334
    114  N         49.0510   20.6900    7.1470 N.am  183  CYS183     -0.1954
    115  CA        50.4710   20.4680    7.3500 C.3   183  CYS183      0.1843
    116  C         51.0830   21.8400    7.5540 C.2   183  CYS183      0.2625
    117  O         50.3520   22.7990    7.6790 O.2   183  CYS183     -0.2714
    118  CB        51.1010   19.7470    6.1770 C.3   183  CYS183      0.0997
    119  SG        52.7130   19.0050    6.5580 S.3   183  CYS183     -0.0797
    120  N         52.4090   21.9150    7.6140 N.am  184  LYS184     -0.1963
    121  CA        53.0960   23.1510    7.9360 C.3   184  LYS184      0.1728
    122  C         52.7480   24.2500    6.9540 C.2   184  LYS184      0.2616
    123  O         52.8890   24.0700    5.7380 O.2   184  LYS184     -0.2715
    124  CB        54.5970   22.9470    7.9020 C.3   184  LYS184      0.0311
    125  CG        55.2090   22.3820    9.1590 C.3   184  LYS184      0.0038
    126  CD        56.3720   21.4790    8.7700 C.3   184  LYS184      0.0206
    127  CE        57.5660   21.6430    9.6750 C.3   184  LYS184      0.1093
    128  NZ        58.5370   22.6370    9.1050 N.3   184  LYS184     -0.1314
    129  N         52.3220   25.3980    7.4950 N.am  185  GLY185     -0.1955
    130  CA        51.9770   26.5630    6.6940 C.3   185  GLY185      0.1869
    131  C         50.4900   26.7910    6.7250 C.2   185  GLY185      0.2309
    132  O         50.0170   27.8960    6.4620 O.2   185  GLY185     -0.2863
    133  N         48.5370   26.4040    9.4960 N.3   187  SER187     -0.1217
    134  CA        48.0010   26.7650   10.8200 C.3   187  SER187      0.1889
    135  C         47.4890   28.1980   10.8740 C.2   187  SER187      0.2288
    136  O         47.9280   29.0510   10.0960 O.2   187  SER187     -0.2866
    137  CB        49.0520   26.5690   11.8900 C.3   187  SER187      0.2089
    138  OG        50.1850   27.3970   11.6460 O.3   187  SER187     -0.2183
    139  N         43.1440   25.6930   12.4620 N.3   205  THR205     -0.1203
    140  CA        44.2430   24.7850   12.3260 C.3   205  THR205      0.1994
    141  C         45.3270   25.0980   13.3700 C.2   205  THR205      0.2619
    142  O         45.8460   26.1960   13.4410 O.2   205  THR205     -0.2717
    143  CB        44.7640   24.8440   10.8700 C.3   205  THR205      0.1784
    144  OG1       43.6640   24.6420    9.9840 O.3   205  THR205     -0.2211
    145  CG2       45.8400   23.7860   10.5930 C.3   205  THR205      0.0376
    146  N         45.6120   24.1120   14.2190 N.am  206  SER206     -0.1937
    147  CA        46.4880   24.2910   15.3700 C.3   206  SER206      0.2055
    148  C         47.7060   23.3690   15.2940 C.2   206  SER206      0.2643
    149  O         48.8150   23.8530   15.1050 O.2   206  SER206     -0.2714
    150  CB        45.7030   24.0930   16.6660 C.3   206  SER206      0.2130
    151  OG        46.5060   24.3960   17.8060 O.3   206  SER206     -0.2179
    152  N         47.5150   22.0510   15.3750 N.am  207  TRP207     -0.1959
    153  CA        48.6550   21.1120   15.3810 C.3   207  TRP207      0.1771
    154  C         48.2610   19.6540   15.1380 C.2   207  TRP207      0.2620
    155  O         47.0890   19.2730   15.1570 O.2   207  TRP207     -0.2715
    156  CB        49.3990   21.1800   16.7340 C.3   207  TRP207      0.0590
    157  CG        48.5490   20.6970   17.9130 C.ar  207  TRP207      0.0006
    158  CD1       47.6240   21.4080   18.5760 C.ar  207  TRP207      0.0946
    159  CD2       48.5280   19.3820   18.4920 C.ar  207  TRP207      0.0152
    160  NE1       47.0540   20.6600   19.5590 N.ar  207  TRP207     -0.2442
    161  CE2       47.5690   19.4010   19.5220 C.ar  207  TRP207      0.0810
    162  CE3       49.2330   18.2010   18.2500 C.ar  207  TRP207      0.0012
    163  CZ2       47.2920   18.3010   20.3120 C.ar  207  TRP207      0.0191
    164  CZ3       48.9570   17.0820   19.0640 C.ar  207  TRP207      0.0001
    165  CH2       47.9890   17.1440   20.0650 C.ar  207  TRP207      0.0015
    166  N         49.2800   18.8380   14.9350 N.am  208  GLY208     -0.1954
    167  CA        49.1380   17.3890   14.8030 C.3   208  GLY208      0.1869
    168  C         50.5230   16.7610   14.8520 C.2   208  GLY208      0.2309
    169  O         51.5220   17.4880   14.7840 O.2   208  GLY208     -0.2863
    170  N         53.0640   14.9020   12.8670 N.3   210  GLY210     -0.1210
    171  CA        53.3810   14.5870   11.4660 C.3   210  GLY210      0.1956
    172  C         52.3510   15.2970   10.5920 C.2   210  GLY210      0.2612
    173  O         51.6250   16.1720   11.0800 O.2   210  GLY210     -0.2717
    174  N         52.2590   14.9490    9.3130 N.am  211  CYS211     -0.1970
    175  CA        51.0980   15.3890    8.5360 C.3   211  CYS211      0.1712
    176  C         50.4250   14.2270    7.8530 C.2   211  CYS211      0.2296
    177  O         51.0750   13.4780    7.1710 O.2   211  CYS211     -0.2864
    178  CB        51.4880   16.4300    7.4830 C.3   211  CYS211      0.0983
    179  SG        52.2830   17.8800    8.1890 S.3   211  CYS211     -0.0798
    180  N         44.0760   15.7270   12.7500 N.3   218  GLY218     -0.1210
    181  CA        44.5210   17.1020   12.9550 C.3   218  GLY218      0.1956
    182  C         43.7920   17.6480   14.1400 C.2   218  GLY218      0.2612
    183  O         42.6500   17.2530   14.4120 O.2   218  GLY218     -0.2717
    184  N         44.4400   18.5460   14.8610 N.am  219  VAL219     -0.1965
    185  CA        43.8200   19.1440   16.0060 C.3   219  VAL219      0.1727
    186  C         43.6080   20.6260   15.7000 C.2   219  VAL219      0.2616
    187  O         44.5180   21.3210   15.2420 O.2   219  VAL219     -0.2715
    188  CB        44.6480   18.9450   17.3160 C.3   219  VAL219      0.0290
    189  CG1       43.8210   19.3630   18.5170 C.3   219  VAL219      0.0023
    190  CG2       45.0830   17.5050   17.4910 C.3   219  VAL219      0.0023
    191  N         42.3810   21.0700   15.9860 N.am  220  TYR220     -0.1974
    192  CA        41.9210   22.4130   15.7150 C.3   220  TYR220      0.1639
    193  C         41.3630   23.0540   16.9840 C.2   220  TYR220      0.2290
    194  O         40.8010   22.3740   17.8550 O.2   220  TYR220     -0.2864
    195  CB        40.8300   22.3820   14.6500 C.3   220  TYR220      0.0560
    196  CG        41.2660   21.7340   13.3580 C.ar  220  TYR220     -0.0198
    197  CD1       41.3830   20.3380   13.2380 C.ar  220  TYR220     -0.0009
    198  CD2       41.5530   22.5000   12.2530 C.ar  220  TYR220     -0.0009
    199  CE1       41.7950   19.7500   12.0400 C.ar  220  TYR220      0.0417
    200  CE2       41.9580   21.9230   11.0520 C.ar  220  TYR220      0.0417
    201  CZ        42.0870   20.5550   10.9470 C.ar  220  TYR220      0.1957
    202  OH        42.5090   20.0250    9.7590 O.3   220  TYR220     -0.2866
@<TRIPOS>BOND
     1    92    91    1
     2    91    90    1
     3    90    89    1
     4    96    95    2
     5    89    88    1
     6    95    94    1
     7    88    85    1
     8    87    86    2
     9    94    93    1
    10    94    97    1
    11    86    93   am
    12    86    85    1
    13    99    97    1
    14    84    85    1
    15    97    98    1
    16    66    65    1
    17    66    67    2
    18    98   100    1
    19    65    64    1
    20    65    68    1
    21    16    17    1
    22    16    13    1
    23     2     1    1
    24     2     5    1
    25     2     3    1
    26    12     3   am
    27    12    13    1
    28    68    69    1
    29     5     6    1
    30    10     9    1
    31    18    17   ar
    32    18    20   ar
    33    17    19   ar
    34     3     4    2
    35    70    69   ar
    36    70    72   ar
    37    13    14    1
    38    69    71   ar
    39    72    74   ar
    40    20    21   ar
    41    19    21   ar
    42    71    73   ar
    43   104   103    2
    44     9    11    1
    45     9     8    2
    46    76    77    1
    47    74    73   ar
    48    74    75    1
    49   101   102    1
    50     6     7    1
    51    14    15    2
    52    14    22   am
    53     7     8    1
    54   123   122    2
    55    78    77    1
    56    78    79    2
    57   103   102    1
    58   103   109   am
    59   118   119    1
    60   118   115    1
    61    77    80    1
    62   132   131    2
    63   102   105    1
    64   119   179    1
    65    22    23    1
    66   130   131    1
    67   130   129    1
    68   122   129   am
    69   122   121    1
    70   114   115    1
    71   114   111   am
    72   177   176    2
    73   109   110    1
    74   110   111    1
    75   110   113    1
    76    33    32    2
    77    80    81    1
    78   105   106    1
    79   115   116    1
    80   111   112    2
    81   178   179    1
    82   178   175    1
    83   116   120   am
    84   116   117    2
    85   120   121    1
    86   176   175    1
    87    32    31    1
    88   124   121    1
    89   124   125    1
    90    23    24    1
    91    23    26    1
    92    30    24   am
    93    30    31    1
    94    24    25    2
    95   175   174    1
    96    31    34    1
    97   126   125    1
    98   126   127    1
    99    81    83    1
   100    81    82    1
   101   106   107   ar
   102   106   108   ar
   103    26    27    1
   104   128   127    1
   105   174   172   am
   106   133   134    1
   107   202   201    1
   108   144   143    1
   109    34    35    1
   110   136   135    2
   111    27    28    1
   112    27    29    1
   113   172   173    2
   114   172   171    1
   115   145   143    1
   116   134   135    1
   117   134   137    1
   118   143   140    1
   119   201   200   ar
   120   201   199   ar
   121   200   198   ar
   122    35    51    1
   123   171   170    1
   124   138   137    1
   125   199   197   ar
   126   198   196   ar
   127   140   139    1
   128   140   141    1
   129   180   181    1
   130   181   182    1
   131    51    50    1
   132   197   196   ar
   133   196   195    1
   134   141   142    2
   135   141   146   am
   136    50    47    1
   137   182   183    2
   138   182   184   am
   139    49    48    2
   140   146   147    1
   141    45    44   ar
   142    45    43   ar
   143   195   192    1
   144    47    48    1
   145    47    46    1
   146   169   168    2
   147   167   168    1
   148   167   166    1
   149   184   185    1
   150   166   154   am
   151   149   148    2
   152   154   155    2
   153   154   153    1
   154    44    42   ar
   155   187   186    2
   156   148   147    1
   157   148   152   am
   158    43    41   ar
   159   147   150    1
   160   152   153    1
   161   153   156    1
   162   186   191   am
   163   186   185    1
   164   192   191    1
   165   192   193    1
   166    46    38   am
   167   185   188    1
   168    42    41   ar
   169    41    40    1
   170    39    38    2
   171    55    54    2
   172   150   151    1
   173   156   157    1
   174    38    37    1
   175   193   194    2
   176   188   190    1
   177   188   189    1
   178    52    53    1
   179    54    53    1
   180    40    37    1
   181   157   159   ar
   182   157   158   ar
   183    37    36    1
   184    56    53    1
   185    56    57    1
   186    59    61   ar
   187    59    57   ar
   188   162   159   ar
   189   162   164   ar
   190   159   161   ar
   191   158   160   ar
   192    61    62   ar
   193    57    58   ar
   194   164   165   ar
   195   161   160   ar
   196   161   163   ar
   197   165   163   ar
   198    62    63    1
   199    62    60   ar
   200    58    60   ar
