@<TRIPOS>MOLECULE
tmp/4crgA00.pdb
 166 166 0 0 0
SMALL
GASTEIGER

@<TRIPOS>ATOM
      1  N        -30.2750  -49.8290  -18.1390 N.3    44  HIS44      -0.1241
      2  CA       -29.7370  -51.1950  -17.9340 C.3    44  HIS44       0.1621
      3  C        -30.3570  -51.8910  -16.7360 C.2    44  HIS44       0.2264
      4  O        -30.2860  -53.1250  -16.6480 O.2    44  HIS44      -0.2867
      5  CB       -28.1910  -51.1870  -17.8800 C.3    44  HIS44       0.0745
      6  CG       -27.6070  -50.7320  -16.5910 C.ar   44  HIS44       0.0817
      7  ND1      -27.1220  -49.4460  -16.4310 N.ar   44  HIS44      -0.2268
      8  CD2      -27.4340  -51.3980  -15.4180 C.ar   44  HIS44       0.1154
      9  CE1      -26.6560  -49.3740  -15.1860 C.ar   44  HIS44       0.1986
     10  NE2      -26.8070  -50.5350  -14.5430 N.ar   44  HIS44      -0.2212
     11  N        -33.0080  -54.9600  -17.5580 N.3    47  TYR47      -0.1241
     12  CA       -32.7130  -56.2100  -18.2420 C.3    47  TYR47       0.1605
     13  C        -33.6330  -57.3110  -17.6640 C.2    47  TYR47       0.2264
     14  O        -33.6730  -57.5010  -16.4560 O.2    47  TYR47      -0.2867
     15  CB       -31.2360  -56.5980  -18.0360 C.3    47  TYR47       0.0534
     16  CG       -30.9550  -57.9670  -18.6060 C.ar   47  TYR47      -0.0201
     17  CD1      -30.8500  -58.1570  -19.9810 C.ar   47  TYR47      -0.0009
     18  CD2      -30.9590  -59.0940  -17.7930 C.ar   47  TYR47      -0.0009
     19  CE1      -30.7130  -59.4280  -20.5290 C.ar   47  TYR47       0.0417
     20  CE2      -30.8250  -60.3750  -18.3290 C.ar   47  TYR47       0.0417
     21  CZ       -30.6960  -60.5330  -19.6980 C.ar   47  TYR47       0.1957
     22  OH       -30.5280  -61.7930  -20.2410 O.3    47  TYR47      -0.2866
     23  N        -16.4900  -55.1180   -5.7270 N.3   134  LEU134     -0.1231
     24  CA       -17.0920  -55.8250   -6.8200 C.3   134  LEU134      0.1693
     25  C        -17.9330  -56.9950   -6.4310 C.2   134  LEU134      0.2591
     26  O        -19.0420  -57.1090   -6.9640 O.2   134  LEU134     -0.2718
     27  CB       -16.0490  -56.2330   -7.8530 C.3   134  LEU134      0.0284
     28  CG       -16.5570  -56.5730   -9.2210 C.3   134  LEU134      0.0019
     29  CD1      -17.4270  -55.4770   -9.7990 C.3   134  LEU134      0.0001
     30  CD2      -15.3990  -56.8790  -10.1320 C.3   134  LEU134      0.0001
     31  N        -17.4550  -57.8550   -5.5340 N.am  135  ARG135     -0.1980
     32  CA       -18.2710  -59.0040   -5.1420 C.3   135  ARG135      0.1597
     33  C        -18.6700  -58.7520   -3.7050 C.2   135  ARG135      0.2287
     34  O        -17.8470  -58.8390   -2.7910 O.2   135  ARG135     -0.2864
     35  CB       -17.5280  -60.3490   -5.3520 C.3   135  ARG135      0.0334
     36  CG       -16.8600  -60.5040   -6.7300 C.3   135  ARG135      0.0492
     37  CD       -17.8370  -60.4620   -7.9070 C.3   135  ARG135      0.2205
     38  NE       -17.1130  -60.3800   -9.1790 N.pl3 135  ARG135     -0.0865
     39  CZ       -17.6650  -60.1130  -10.3590 C.cat 135  ARG135      0.5346
     40  NH1      -18.9680  -59.8910  -10.4550 N.pl3 135  ARG135      0.1354
     41  NH2      -16.9160  -60.0670  -11.4520 N.pl3 135  ARG135      0.1354
     42  N        -16.0300  -44.7130   -5.5670 N.3   179  ASP179     -0.1225
     43  CA       -16.7410  -44.9010   -6.8270 C.3   179  ASP179      0.1805
     44  C        -18.0940  -45.4830   -6.5620 C.2   179  ASP179      0.2598
     45  O        -18.3710  -45.9330   -5.4410 O.2   179  ASP179     -0.2718
     46  CB       -15.9590  -45.9230   -7.6740 C.3   179  ASP179      0.1424
     47  CG       -16.2310  -46.0290   -9.1580 C.2   179  ASP179      0.3668
     48  OD1      -17.0880  -45.2390   -9.6830 O.co2 179  ASP179     -0.2456
     49  OD2      -15.6070  -46.9180   -9.8170 O.co2 179  ASP179     -0.2456
     50  N        -18.9400  -45.5190   -7.5830 N.am  180  ALA180     -0.1966
     51  CA       -20.1660  -46.2860   -7.5370 C.3   180  ALA180      0.1728
     52  C        -19.7960  -47.7630   -7.8450 C.2   180  ALA180      0.2616
     53  O        -18.6800  -48.0970   -8.2610 O.2   180  ALA180     -0.2715
     54  CB       -21.1290  -45.7630   -8.5860 C.3   180  ALA180      0.0334
     55  N        -20.7720  -48.6570   -7.6310 N.am  181  CYS181     -0.1954
     56  CA       -20.5800  -50.0810   -7.9130 C.3   181  CYS181      0.1843
     57  C        -21.9450  -50.7100   -8.2250 C.2   181  CYS181      0.2625
     58  O        -22.9550  -50.0140   -8.3060 O.2   181  CYS181     -0.2714
     59  CB       -19.8790  -50.7570   -6.7280 C.3   181  CYS181      0.0997
     60  SG       -19.0210  -52.3170   -7.1180 S.3   181  CYS181     -0.0797
     61  N        -21.9720  -52.0320   -8.4120 N.am  182  LYS182     -0.1977
     62  CA       -23.2040  -52.7730   -8.6800 C.3   182  LYS182      0.1596
     63  C        -24.2380  -52.4000   -7.6180 C.2   182  LYS182      0.2287
     64  O        -23.8990  -52.2880   -6.4340 O.2   182  LYS182     -0.2864
     65  CB       -22.9210  -54.2810   -8.6200 C.3   182  LYS182      0.0298
     66  CG       -24.1170  -55.1210   -9.0310 C.3   182  LYS182      0.0038
     67  CD       -23.7800  -56.5820   -9.2580 C.3   182  LYS182      0.0206
     68  CE       -24.9960  -57.3640   -9.7150 C.3   182  LYS182      0.1093
     69  NZ       -24.6410  -58.7280  -10.2190 N.3   182  LYS182     -0.1314
     70  N        -26.3690  -48.4300   -9.7150 N.3   185  SER185     -0.1217
     71  CA       -26.9160  -48.1850  -11.0330 C.3   185  SER185      0.1889
     72  C        -28.1990  -47.4080  -10.9680 C.2   185  SER185      0.2288
     73  O        -29.1000  -47.7480  -10.1870 O.2   185  SER185     -0.2866
     74  CB       -27.2740  -49.5340  -11.6440 C.3   185  SER185      0.2089
     75  OG       -26.1370  -50.2880  -12.0100 O.3   185  SER185     -0.2183
     76  N        -25.6930  -43.0220  -12.5820 N.3   203  THR203     -0.1203
     77  CA       -24.7280  -44.1310  -12.4650 C.3   203  THR203      0.1994
     78  C        -24.9810  -45.1810  -13.5380 C.2   203  THR203      0.2619
     79  O        -26.0750  -45.7490  -13.6130 O.2   203  THR203     -0.2717
     80  CB       -24.7970  -44.7130  -11.0540 C.3   203  THR203      0.1784
     81  OG1      -24.4490  -43.6530  -10.1650 O.3   203  THR203     -0.2211
     82  CG2      -23.8540  -45.9130  -10.8800 C.3   203  THR203      0.0376
     83  N        -23.9390  -45.4530  -14.3530 N.am  204  SER204     -0.1937
     84  CA       -24.1170  -46.2990  -15.5360 C.3   204  SER204      0.2055
     85  C        -23.1680  -47.4980  -15.5800 C.2   204  SER204      0.2643
     86  O        -23.6590  -48.6260  -15.5830 O.2   204  SER204     -0.2714
     87  CB       -24.0300  -45.4280  -16.8020 C.3   204  SER204      0.2130
     88  OG       -24.2510  -46.1720  -17.9970 O.3   204  SER204     -0.2179
     89  N        -21.8390  -47.2870  -15.6320 N.am  205  TRP205     -0.1959
     90  CA       -20.9290  -48.4420  -15.7490 C.3   205  TRP205      0.1771
     91  C        -19.5270  -48.0270  -15.3620 C.2   205  TRP205      0.2620
     92  O        -19.2660  -46.8700  -15.0740 O.2   205  TRP205     -0.2715
     93  CB       -20.9620  -49.0300  -17.1920 C.3   205  TRP205      0.0590
     94  CG       -20.5090  -48.0890  -18.2690 C.ar  205  TRP205      0.0006
     95  CD1      -21.2650  -47.1320  -18.8890 C.ar  205  TRP205      0.0946
     96  CD2      -19.2170  -48.0610  -18.9160 C.ar  205  TRP205      0.0152
     97  NE1      -20.5340  -46.5090  -19.8870 N.ar  205  TRP205     -0.2442
     98  CE2      -19.2720  -47.0610  -19.9160 C.ar  205  TRP205      0.0810
     99  CE3      -18.0130  -48.7730  -18.7260 C.ar  205  TRP205      0.0012
    100  CZ2      -18.1670  -46.7430  -20.7140 C.ar  205  TRP205      0.0191
    101  CZ3      -16.9300  -48.4790  -19.5570 C.ar  205  TRP205      0.0001
    102  CH2      -17.0100  -47.4660  -20.5170 C.ar  205  TRP205      0.0015
    103  N        -18.6370  -49.0050  -15.3120 N.am  206  GLY206     -0.1940
    104  CA       -17.2150  -48.7840  -15.0490 C.3   206  GLY206      0.2014
    105  C        -16.5630  -50.1450  -14.9920 C.2   206  GLY206      0.2639
    106  O        -17.2470  -51.1590  -14.7730 O.2   206  GLY206     -0.2714
    107  N        -15.2430  -50.1900  -15.1880 N.am  207  GLU207     -0.1963
    108  CA       -14.5450  -51.4840  -15.1360 C.3   207  GLU207      0.1733
    109  C        -14.1310  -51.7560  -13.7180 C.2   207  GLU207      0.2617
    110  O        -13.2220  -51.0980  -13.1830 O.2   207  GLU207     -0.2715
    111  CB       -13.3680  -51.5680  -16.1040 C.3   207  GLU207      0.0429
    112  CG       -12.7190  -52.9680  -16.0780 C.3   207  GLU207      0.1163
    113  CD       -13.6470  -54.1580  -16.3560 C.2   207  GLU207      0.3649
    114  OE1      -14.5080  -54.0320  -17.2550 O.co2 207  GLU207     -0.2457
    115  OE2      -13.5890  -55.1680  -15.6120 O.co2 207  GLU207     -0.2457
    116  N        -14.8160  -52.7110  -13.0810 N.am  208  GLY208     -0.1940
    117  CA       -14.6130  -52.9480  -11.6590 C.3   208  GLY208      0.2014
    118  C        -15.2460  -51.8170  -10.8650 C.2   208  GLY208      0.2639
    119  O        -16.1640  -51.1380  -11.3510 O.2   208  GLY208     -0.2714
    120  N        -14.7980  -51.6180   -9.6320 N.am  209  CYS209     -0.1967
    121  CA       -15.3060  -50.5060   -8.8230 C.3   209  CYS209      0.1712
    122  C        -14.1670  -49.8850   -8.0680 C.2   209  CYS209      0.2296
    123  O        -13.4630  -50.5810   -7.3450 O.2   209  CYS209     -0.2864
    124  CB       -16.4350  -50.9180   -7.8780 C.3   209  CYS209      0.0983
    125  SG       -17.7850  -51.8300   -8.6780 S.3   209  CYS209     -0.0798
    126  N         -9.5710  -45.9570  -13.4620 N.3   214  ARG214     -0.1231
    127  CA       -10.8020  -46.4540  -14.0480 C.3   214  ARG214      0.1679
    128  C        -11.9420  -45.6320  -13.4900 C.2   214  ARG214      0.2434
    129  O        -12.6320  -46.0680  -12.5680 O.2   214  ARG214     -0.2733
    130  CB       -11.0400  -47.9340  -13.7570 C.3   214  ARG214      0.0321
    131  CG       -10.0930  -48.8970  -14.4840 C.3   214  ARG214      0.0489
    132  CD       -10.2280  -48.8690  -15.9930 C.3   214  ARG214      0.2205
    133  NE        -9.5950  -50.0590  -16.5580 N.pl3 214  ARG214     -0.0865
    134  CZ        -9.8720  -50.5610  -17.7590 C.cat 214  ARG214      0.5346
    135  NH1      -10.6780  -49.9130  -18.5880 N.pl3 214  ARG214      0.1354
    136  NH2       -9.3280  -51.7080  -18.1480 N.pl3 214  ARG214      0.1354
    137  N        -12.1720  -44.4340  -14.0240 N.am  215  PRO215     -0.2718
    138  CA       -13.2730  -43.6270  -13.5020 C.3   215  PRO215      0.1535
    139  C        -14.6290  -44.2810  -13.7170 C.2   215  PRO215      0.2599
    140  O        -14.8220  -45.0630  -14.6500 O.2   215  PRO215     -0.2715
    141  CB       -13.2300  -42.3560  -14.3610 C.3   215  PRO215      0.0310
    142  CG       -11.9280  -42.3530  -15.0710 C.3   215  PRO215      0.0237
    143  CD       -11.4320  -43.7510  -15.1030 C.3   215  PRO215      0.0939
    144  N        -15.5860  -43.8780  -12.8980 N.am  216  GLY216     -0.1941
    145  CA       -16.9720  -44.2730  -13.1100 C.3   216  GLY216      0.2014
    146  C        -17.5320  -43.5260  -14.3070 C.2   216  GLY216      0.2639
    147  O        -17.1780  -42.3530  -14.5200 O.2   216  GLY216     -0.2714
    148  N        -18.4210  -44.1770  -15.0590 N.am  217  VAL217     -0.1963
    149  CA       -19.0350  -43.5700  -16.2220 C.3   217  VAL217      0.1727
    150  C        -20.5200  -43.3820  -15.9320 C.2   217  VAL217      0.2616
    151  O        -21.2050  -44.2940  -15.4080 O.2   217  VAL217     -0.2715
    152  CB       -18.7680  -44.3830  -17.5040 C.3   217  VAL217      0.0290
    153  CG1      -19.2360  -43.5730  -18.7050 C.3   217  VAL217      0.0023
    154  CG2      -17.2750  -44.6970  -17.6410 C.3   217  VAL217      0.0023
    155  N        -21.0250  -42.1910  -16.2820 N.am  218  TYR218     -0.1974
    156  CA       -22.3890  -41.7960  -15.9650 C.3   218  TYR218      0.1639
    157  C        -23.0580  -41.2540  -17.2030 C.2   218  TYR218      0.2290
    158  O        -22.3910  -40.6710  -18.0790 O.2   218  TYR218     -0.2864
    159  CB       -22.3380  -40.6700  -14.9030 C.3   218  TYR218      0.0560
    160  CG       -21.6950  -41.0720  -13.5860 C.ar  218  TYR218     -0.0198
    161  CD1      -20.3140  -41.1100  -13.4450 C.ar  218  TYR218     -0.0009
    162  CD2      -22.4760  -41.4350  -12.4920 C.ar  218  TYR218     -0.0009
    163  CE1      -19.7200  -41.5210  -12.2560 C.ar  218  TYR218      0.0417
    164  CE2      -21.8950  -41.8550  -11.2970 C.ar  218  TYR218      0.0417
    165  CZ       -20.5180  -41.8910  -11.1840 C.ar  218  TYR218      0.1957
    166  OH       -19.9770  -42.2990   -9.9890 O.3   218  TYR218     -0.2866
@<TRIPOS>BOND
     1   100   102   ar
     2   100    98   ar
     3    19    17   ar
     4    19    21   ar
     5   102   101   ar
     6    22    21    1
     7    17    16   ar
     8    98    97   ar
     9    98    96   ar
    10    97    95   ar
    11    21    20   ar
    12   101    99   ar
    13    96    99   ar
    14    96    94   ar
    15    95    94   ar
    16   153   152    1
    17    16    15    1
    18    16    18   ar
    19   135   134    1
    20    20    18   ar
    21    94    93    1
    22    12    15    1
    23    12    13    1
    24    12    11    1
    25   136   134    1
    26     1     2    1
    27   158   157    2
    28    88    87    1
    29     2     5    1
    30     2     3    1
    31     5     6    1
    32   134   133    2
    33    13    14    2
    34   154   152    1
    35   152   149    1
    36   114   113   ar
    37   157   156    1
    38    93    90    1
    39    87    84    1
    40     3     4    2
    41     6     7   ar
    42     6     8   ar
    43   133   132    1
    44     7     9   ar
    45   113   112    1
    46   113   115   ar
    47   155   156    1
    48   155   150   am
    49   149   150    1
    50   149   148    1
    51   111   112    1
    52   111   108    1
    53   132   131    1
    54   156   159    1
    55   150   151    2
    56    90    89    1
    57    90    91    1
    58    89    85   am
    59    86    85    2
    60    85    84    1
    61    84    83    1
    62     8    10   ar
    63    91   103   am
    64    91    92    2
    65   103   104    1
    66   107   108    1
    67   107   105   am
    68     9    10   ar
    69   108   109    1
    70   143   142    1
    71   143   137    1
    72   142   141    1
    73   148   146   am
    74   104   105    1
    75   105   106    2
    76   159   160    1
    77   140   139    2
    78   147   146    2
    79   131   130    1
    80   141   138    1
    81    83    78   am
    82   146   145    1
    83   127   130    1
    84   127   128    1
    85   127   126    1
    86   137   138    1
    87   137   128   am
    88   109   110    2
    89   109   116   am
    90   139   138    1
    91   139   144   am
    92    79    78    2
    93   160   161   ar
    94   160   162   ar
    95    78    77    1
    96   128   129    2
    97   161   163   ar
    98   145   144    1
    99   116   117    1
   100    76    77    1
   101   162   164   ar
   102    77    80    1
   103   163   165   ar
   104    75    74    1
   105   117   118    1
   106    74    71    1
   107    41    39    1
   108   119   118    2
   109   164   165   ar
   110   165   166    1
   111    80    82    1
   112    80    81    1
   113    71    72    1
   114    71    70    1
   115    72    73    2
   116   118   120   am
   117    40    39    1
   118    39    38    2
   119    69    68    1
   120    30    28    1
   121    49    47   ar
   122    29    28    1
   123    68    67    1
   124    48    47   ar
   125   120   121    1
   126    67    66    1
   127    28    27    1
   128    38    37    1
   129    47    46    1
   130    66    65    1
   131   121   122    1
   132   121   124    1
   133    62    65    1
   134    62    61    1
   135    62    63    1
   136   125   124    1
   137   125    60    1
   138    54    51    1
   139    61    57   am
   140    58    57    2
   141    53    52    2
   142    57    56    1
   143   122   123    2
   144    56    55    1
   145    56    59    1
   146    37    36    1
   147    27    24    1
   148    52    55   am
   149    52    51    1
   150    46    43    1
   151    63    64    2
   152    50    51    1
   153    50    44   am
   154    60    59    1
   155    26    25    2
   156    43    44    1
   157    43    42    1
   158    24    25    1
   159    24    23    1
   160    36    35    1
   161    44    45    2
   162    25    31   am
   163    31    32    1
   164    35    32    1
   165    32    33    1
   166    33    34    2
