@<TRIPOS>MOLECULE
tmp/4criB00.pdb
 171 168 0 0 0
SMALL
GASTEIGER

@<TRIPOS>ATOM
      1  N        -34.1180   41.8440   27.8710 N.3    11  TRP11      -0.1241
      2  CA       -34.6640   40.4840   27.9670 C.3    11  TRP11       0.1605
      3  C        -35.8740   40.4620   27.0850 C.2    11  TRP11       0.2264
      4  O        -36.8980   41.0760   27.4140 O.2    11  TRP11      -0.2867
      5  CB       -35.0390   40.1230   29.3970 C.3    11  TRP11       0.0550
      6  CG       -35.3110   38.6940   29.5900 C.ar   11  TRP11       0.0003
      7  CD1      -36.5310   38.1120   29.8390 C.ar   11  TRP11       0.0946
      8  CD2      -34.3550   37.6320   29.5680 C.ar   11  TRP11       0.0152
      9  NE1      -36.3830   36.7570   29.9670 N.ar   11  TRP11      -0.2442
     10  CE2      -35.0630   36.4310   29.7990 C.ar   11  TRP11       0.0810
     11  CE3      -32.9730   37.5740   29.3660 C.ar   11  TRP11       0.0012
     12  CZ2      -34.4310   35.1900   29.8400 C.ar   11  TRP11       0.0191
     13  CZ3      -32.3480   36.3400   29.4100 C.ar   11  TRP11       0.0001
     14  CH2      -33.0760   35.1630   29.6430 C.ar   11  TRP11       0.0015
     15  N        -38.2270   38.5400   26.2660 N.3    13  SER13      -0.1202
     16  CA       -39.5340   37.9960   26.6770 C.3    13  SER13       0.2020
     17  C        -40.4230   38.9930   27.4230 C.2    13  SER13       0.2618
     18  O        -41.6300   38.8260   27.4500 O.2    13  SER13      -0.2717
     19  CB       -39.3620   36.7600   27.5600 C.3    13  SER13       0.2103
     20  OG       -38.8560   35.6760   26.8200 O.3    13  SER13      -0.2182
     21  N        -39.8310   39.9730   28.0990 N.am   14  ASN14      -0.1974
     22  CA       -40.6480   40.9320   28.8300 C.3    14  ASN14       0.1688
     23  C        -40.3470   42.4060   28.4800 C.2    14  ASN14       0.2292
     24  O        -40.9050   43.3160   29.0810 O.2    14  ASN14      -0.2864
     25  CB       -40.5240   40.6550   30.3470 C.3    14  ASN14       0.1181
     26  CG       -39.1070   40.8720   30.9030 C.2    14  ASN14       0.2629
     27  OD1      -38.2740   41.5770   30.3140 O.2    14  ASN14      -0.2716
     28  ND2      -38.8370   40.2560   32.0550 N.am   14  ASN14      -0.0877
     29  N        -37.8800   44.3130   29.2100 N.3    16  TYR16      -0.1241
     30  CA       -37.0640   45.0980   30.1310 C.3    16  TYR16       0.1605
     31  C        -35.5810   44.8950   29.8560 C.2    16  TYR16       0.2264
     32  O        -35.1630   43.8580   29.3170 O.2    16  TYR16      -0.2867
     33  CB       -37.3790   44.7460   31.5910 C.3    16  TYR16       0.0534
     34  CG       -38.6760   45.3230   32.0910 C.ar   16  TYR16      -0.0201
     35  CD1      -39.8920   44.6930   31.8290 C.ar   16  TYR16      -0.0009
     36  CD2      -38.6880   46.4850   32.8490 C.ar   16  TYR16      -0.0009
     37  CE1      -41.0800   45.2250   32.2900 C.ar   16  TYR16       0.0417
     38  CE2      -39.8760   47.0320   33.3050 C.ar   16  TYR16       0.0417
     39  CZ       -41.0660   46.3940   33.0290 C.ar   16  TYR16       0.1957
     40  OH       -42.2420   46.9320   33.4880 O.3    16  TYR16      -0.2866
     41  N        -31.7190   44.7330   31.5280 N.3    18  TYR18      -0.1241
     42  CA       -31.1180   44.2830   32.7760 C.3    18  TYR18       0.1605
     43  C        -29.6130   44.3870   32.7000 C.2    18  TYR18       0.2264
     44  O        -29.0520   44.3060   31.6120 O.2    18  TYR18      -0.2867
     45  CB       -31.5090   42.8380   33.0760 C.3    18  TYR18       0.0534
     46  CG       -32.9920   42.5980   33.2670 C.ar   18  TYR18      -0.0201
     47  CD1      -33.8500   42.4450   32.1750 C.ar   18  TYR18      -0.0009
     48  CD2      -33.5290   42.4740   34.5470 C.ar   18  TYR18      -0.0009
     49  CE1      -35.2060   42.1900   32.3660 C.ar   18  TYR18       0.0417
     50  CE2      -34.8600   42.2320   34.7460 C.ar   18  TYR18       0.0417
     51  CZ       -35.7040   42.0810   33.6580 C.ar   18  TYR18       0.1957
     52  OH       -37.0400   41.8370   33.8870 O.3    18  TYR18      -0.2866
     53  N        -26.1290   37.9330   32.2920 N.3    35  PHE35      -0.1241
     54  CA       -26.8240   38.9020   33.1180 C.3    35  PHE35       0.1605
     55  C        -26.4240   38.7430   34.5710 C.2    35  PHE35       0.2264
     56  O        -26.0040   37.6650   35.0040 O.2    35  PHE35      -0.2867
     57  CB       -28.3350   38.7430   32.9760 C.3    35  PHE35       0.0534
     58  CG       -28.8640   39.2870   31.6990 C.ar   35  PHE35      -0.0203
     59  CD1      -29.2500   40.6200   31.6090 C.ar   35  PHE35      -0.0042
     60  CD2      -28.9680   38.4770   30.5680 C.ar   35  PHE35      -0.0042
     61  CE1      -29.7460   41.1440   30.4030 C.ar   35  PHE35      -0.0003
     62  CE2      -29.4560   39.0000   29.3490 C.ar   35  PHE35      -0.0003
     63  CZ       -29.8450   40.3330   29.2750 C.ar   35  PHE35      -0.0000
     64  N        -28.1190   38.4450   37.0900 N.3    37  ASP37      -0.1239
     65  CA       -28.9020   37.5290   37.8980 C.3    37  ASP37       0.1674
     66  C        -28.6310   36.0680   37.5430 C.2    37  ASP37       0.2266
     67  O        -29.3010   35.1670   38.0470 O.2    37  ASP37      -0.2867
     68  CB       -30.4050   37.8650   37.8190 C.3    37  ASP37       0.1410
     69  CG       -31.0110   37.6940   36.4260 C.2    37  ASP37       0.3668
     70  OD1      -30.4040   37.0840   35.5140 O.co2  37  ASP37      -0.2456
     71  OD2      -32.1460   38.1890   36.2640 O.co2  37  ASP37      -0.2456
     72  N        -28.5470   34.3390   34.4890 N.3    39  TYR39      -0.1241
     73  CA       -29.0040   33.7210   33.2550 C.3    39  TYR39       0.1605
     74  C        -28.3070   34.3010   32.0350 C.2    39  TYR39       0.2264
     75  O        -27.7890   35.4220   32.0790 O.2    39  TYR39      -0.2867
     76  CB       -30.5190   33.8300   33.1660 C.3    39  TYR39       0.0534
     77  CG       -31.0890   33.1220   34.3600 C.ar   39  TYR39      -0.0201
     78  CD1      -31.0340   31.7380   34.4460 C.ar   39  TYR39      -0.0009
     79  CD2      -31.6050   33.8290   35.4370 C.ar   39  TYR39      -0.0009
     80  CE1      -31.5050   31.0740   35.5520 C.ar   39  TYR39       0.0417
     81  CE2      -32.0870   33.1660   36.5550 C.ar   39  TYR39       0.0417
     82  CZ       -32.0310   31.7880   36.6040 C.ar   39  TYR39       0.1957
     83  OH       -32.5000   31.1130   37.7060 O.3    39  TYR39      -0.2866
     84  N        -36.1800   47.4380   41.6840 N.3    63  LEU63      -0.1231
     85  CA       -36.6000   46.1550   42.2690 C.3    63  LEU63       0.1693
     86  C        -36.2670   45.9650   43.7590 C.2    63  LEU63       0.2593
     87  O        -35.5580   46.7600   44.3670 O.2    63  LEU63      -0.2718
     88  CB       -35.9950   44.9790   41.4980 C.3    63  LEU63       0.0284
     89  CG       -36.1240   44.9360   39.9760 C.3    63  LEU63       0.0019
     90  CD1      -35.6220   43.5940   39.4250 C.3    63  LEU63       0.0001
     91  CD2      -37.5430   45.2250   39.5530 C.3    63  LEU63       0.0001
     92  N        -36.8140   44.8970   44.3320 N.am   64  SER64      -0.1938
     93  CA       -36.6470   44.5880   45.7450 C.3    64  SER64       0.2055
     94  C        -36.8390   43.0840   46.0230 C.2    64  SER64       0.2643
     95  O        -37.6130   42.3940   45.3390 O.2    64  SER64      -0.2714
     96  CB       -37.6260   45.4340   46.5740 C.3    64  SER64       0.2130
     97  OG       -37.8640   44.8840   47.8570 O.3    64  SER64      -0.2179
     98  N        -36.1110   42.5800   47.0200 N.am   65  GLU65      -0.1963
     99  CA       -36.2200   41.1830   47.4340 C.3    65  GLU65       0.1733
    100  C        -37.5340   40.9650   48.1640 C.2    65  GLU65       0.2616
    101  O        -38.0780   39.8590   48.1540 O.2    65  GLU65      -0.2715
    102  CB       -35.0620   40.7870   48.3560 C.3    65  GLU65       0.0429
    103  CG       -33.7270   41.4150   48.0000 C.3    65  GLU65       0.1163
    104  CD       -32.5510   40.7230   48.6630 C.2    65  GLU65       0.3649
    105  OE1      -32.7800   39.8280   49.5090 O.co2  65  GLU65      -0.2457
    106  OE2      -31.3980   41.1130   48.3720 O.co2  65  GLU65      -0.2457
    107  N        -38.0370   42.0350   48.7850 N.am   66  ASP66      -0.1957
    108  CA       -39.1770   41.9400   49.6960 C.3    66  ASP66       0.1840
    109  C        -40.4380   42.7180   49.2700 C.2    66  ASP66       0.2622
    110  O        -41.5280   42.4180   49.7530 O.2    66  ASP66      -0.2715
    111  CB       -38.7570   42.4170   51.0960 C.3    66  ASP66       0.1450
    112  CG       -37.7680   41.4700   51.7810 C.2    66  ASP66       0.3671
    113  OD1      -38.1130   40.2850   51.9900 O.co2  66  ASP66      -0.2456
    114  OD2      -36.6500   41.9200   52.1260 O.co2  66  ASP66      -0.2456
    115  N        -40.3090   43.6930   48.3680 N.am   67  GLU67      -0.1963
    116  CA       -41.4700   44.4710   47.9080 C.3    67  GLU67       0.1733
    117  C        -41.5130   44.7110   46.3990 C.2    67  GLU67       0.2616
    118  O        -40.4810   44.7380   45.7440 O.2    67  GLU67      -0.2715
    119  CB       -41.5210   45.8260   48.6040 C.3    67  GLU67       0.0429
    120  CG       -40.8510   45.8770   49.9460 C.3    67  GLU67       0.1163
    121  CD       -41.5390   46.8500   50.8550 C.2    67  GLU67       0.3649
    122  OE1      -42.6530   47.2890   50.4820 O.co2  67  GLU67      -0.2457
    123  OE2      -40.9660   47.1860   51.9160 O.co2  67  GLU67      -0.2457
    124  N        -42.7170   44.9360   45.8780 N.am   68  TYR68      -0.1960
    125  CA       -42.9740   45.1620   44.4480 C.3    68  TYR68       0.1771
    126  C        -42.3170   46.4410   43.8750 C.2    68  TYR68       0.2619
    127  O        -42.0300   47.3830   44.6110 O.2    68  TYR68      -0.2715
    128  CB       -44.4970   45.1840   44.2500 C.3    68  TYR68       0.0574
    129  CG       -45.0390   45.3890   42.8470 C.ar   68  TYR68      -0.0198
    130  CD1      -45.0790   44.3450   41.9230 C.ar   68  TYR68      -0.0009
    131  CD2      -45.5820   46.6150   42.4710 C.ar   68  TYR68      -0.0009
    132  CE1      -45.6100   44.5320   40.6410 C.ar   68  TYR68       0.0417
    133  CE2      -46.1120   46.8120   41.1980 C.ar   68  TYR68       0.0417
    134  CZ       -46.1240   45.7680   40.2860 C.ar   68  TYR68       0.1957
    135  OH       -46.6500   45.9620   39.0240 O.3    68  TYR68      -0.2866
    136  N        -42.0840   46.4420   42.5580 N.am   69  PHE69      -0.1974
    137  CA       -41.3120   47.4730   41.8420 C.3    69  PHE69       0.1639
    138  C        -42.0630   48.7100   41.2960 C.2    69  PHE69       0.2290
    139  O        -43.2750   48.6640   41.0780 O.2    69  PHE69      -0.2864
    140  CB       -40.5710   46.8160   40.6740 C.3    69  PHE69       0.0560
    141  CG       -41.4460   45.9970   39.7610 C.ar   69  PHE69      -0.0200
    142  CD1      -42.1880   46.6030   38.7550 C.ar   69  PHE69      -0.0042
    143  CD2      -41.4960   44.6110   39.8850 C.ar   69  PHE69      -0.0042
    144  CE1      -42.9800   45.8470   37.9020 C.ar   69  PHE69      -0.0003
    145  CE2      -42.2840   43.8480   39.0350 C.ar   69  PHE69      -0.0003
    146  CZ       -43.0290   44.4670   38.0420 C.ar   69  PHE69      -0.0000
    147  N        -29.1530   48.0380   45.0290 N.3    98  LYS98      -0.1245
    148  CA       -28.0220   47.3410   44.4160 C.3    98  LYS98       0.1561
    149  C        -28.1280   47.4280   42.8820 C.2    98  LYS98       0.2260
    150  O        -29.1820   47.7980   42.3400 O.2    98  LYS98      -0.2867
    151  CB       -27.9750   45.8740   44.8720 C.3    98  LYS98       0.0271
    152  CG       -29.2070   45.0170   44.5250 C.3    98  LYS98       0.0035
    153  CD       -28.9190   43.5360   44.7910 C.3    98  LYS98       0.0206
    154  CE       -29.0460   43.0700   46.2300 C.3    98  LYS98       0.1093
    155  NZ       -30.4900   43.1010   46.6260 N.3    98  LYS98      -0.1314
    156  N        -28.3060   45.1260   40.6080 N.3   100  MET100     -0.1245
    157  CA       -29.3140   44.2160   40.0640 C.3   100  MET100      0.1570
    158  C        -30.7380   44.6540   40.3130 C.2   100  MET100      0.2261
    159  O        -31.6460   44.2050   39.6330 O.2   100  MET100     -0.2867
    160  CB       -29.1790   42.8270   40.6770 C.3   100  MET100      0.0387
    161  CG       -28.1620   41.9310   40.0540 C.3   100  MET100      0.0595
    162  SD       -28.2250   40.3280   40.8560 S.3   100  MET100     -0.1393
    163  CE       -29.1510   40.7170   42.3450 C.3   100  MET100      0.0692
    164  N        -33.5080   48.3510   36.7870 N.3   103  ILE103     -0.1245
    165  CA       -33.7090   47.8980   35.4150 C.3   103  ILE103      0.1561
    166  C        -34.4340   48.9720   34.6310 C.2   103  ILE103      0.2260
    167  O        -34.8730   49.9760   35.2050 O.2   103  ILE103     -0.2867
    168  CB       -34.4880   46.5700   35.3390 C.3   103  ILE103      0.0252
    169  CG1      -35.9620   46.7470   35.7230 C.3   103  ILE103      0.0019
    170  CG2      -33.7880   45.4790   36.1760 C.3   103  ILE103      0.0019
    171  CD1      -36.6940   45.4260   35.7910 C.3   103  ILE103      0.0001
@<TRIPOS>BOND
     1    15    16    1
     2    16    17    1
     3    16    19    1
     4    20    19    1
     5     3     4    2
     6     3     2    1
     7    17    18    2
     8    17    21   am
     9     1     2    1
    10     2     5    1
    11    21    22    1
    12    23    22    1
    13    23    24    2
    14    22    25    1
    15    29    30    1
    16    63    62   ar
    17    63    61   ar
    18    32    31    2
    19    62    60   ar
    20    11    13   ar
    21    11     8   ar
    22     5     6    1
    23    13    14   ar
    24     8     6   ar
    25     8    10   ar
    26     6     7   ar
    27    14    12   ar
    28    10    12   ar
    29    10     9   ar
    30     7     9   ar
    31    31    30    1
    32    30    33    1
    33    27    26    2
    34    25    26    1
    35    61    59   ar
    36    60    58   ar
    37    26    28   am
    38    41    42    1
    39    33    34    1
    40    59    58   ar
    41    44    43    2
    42    58    57    1
    43    35    34   ar
    44    35    37   ar
    45    74    75    2
    46    74    73    1
    47    34    36   ar
    48    47    49   ar
    49    47    46   ar
    50    37    39   ar
    51    53    54    1
    52    49    51   ar
    53    43    42    1
    54    42    45    1
    55    36    38   ar
    56    57    54    1
    57    39    38   ar
    58    39    40    1
    59    45    46    1
    60    54    55    1
    61    76    73    1
    62    76    77    1
    63    73    72    1
    64    46    48   ar
    65    51    52    1
    66    51    50   ar
    67    77    78   ar
    68    77    79   ar
    69    78    80   ar
    70    48    50   ar
    71    55    56    2
    72   166   167    2
    73   166   165    1
    74   168   165    1
    75   168   169    1
    76   168   170    1
    77   165   164    1
    78    79    81   ar
    79    70    69   ar
    80    80    82   ar
    81   169   171    1
    82    71    69   ar
    83    69    68    1
    84    81    82   ar
    85    82    83    1
    86    64    65    1
    87    66    65    1
    88    66    67    2
    89    68    65    1
    90   144   146   ar
    91   144   142   ar
    92   146   145   ar
    93   142   141   ar
    94   135   134    1
    95   145   143   ar
    96    90    89    1
    97    91    89    1
    98   159   158    2
    99   141   143   ar
   100   141   140    1
   101    89    88    1
   102   161   160    1
   103   161   162    1
   104   157   158    1
   105   157   156    1
   106   157   160    1
   107   134   132   ar
   108   134   133   ar
   109   132   130   ar
   110   140   137    1
   111   162   163    1
   112   139   138    2
   113   133   131   ar
   114   138   137    1
   115    88    85    1
   116    84    85    1
   117   137   136    1
   118   130   129   ar
   119    85    86    1
   120   150   149    2
   121   131   129   ar
   122   136   126   am
   123   129   128    1
   124   149   148    1
   125    86    92   am
   126    86    87    2
   127   126   125    1
   128   126   127    2
   129   128   125    1
   130    92    93    1
   131   148   151    1
   132   148   147    1
   133   125   124    1
   134   152   153    1
   135   152   151    1
   136   153   154    1
   137    95    94    2
   138   118   117    2
   139    93    94    1
   140    93    96    1
   141   124   117   am
   142    94    98   am
   143   154   155    1
   144   117   116    1
   145    96    97    1
   146    98    99    1
   147    99   100    1
   148    99   102    1
   149   116   115    1
   150   116   119    1
   151   103   102    1
   152   103   104    1
   153   101   100    2
   154   100   107   am
   155   115   109   am
   156   106   104   ar
   157   119   120    1
   158   104   105   ar
   159   107   108    1
   160   109   108    1
   161   109   110    2
   162   108   111    1
   163   120   121    1
   164   122   121   ar
   165   121   123   ar
   166   111   112    1
   167   112   113   ar
   168   112   114   ar
