@<TRIPOS>MOLECULE
tmp/4crlA00.pdb
 183 174 0 0 0
SMALL
GASTEIGER

@<TRIPOS>ATOM
      1  N         -9.3780   15.1860   -3.4570 N.3    30  VAL30      -0.1231
      2  CA        -8.1830   14.3550   -3.2740 C.3    30  VAL30       0.1692
      3  C         -6.9100   14.9670   -3.8640 C.2    30  VAL30       0.2592
      4  O         -5.8150   14.6680   -3.3900 O.2    30  VAL30      -0.2718
      5  CB        -8.3960   12.9100   -3.7760 C.3    30  VAL30       0.0266
      6  CG1       -9.4900   12.2380   -2.9620 C.3    30  VAL30       0.0020
      7  CG2       -8.7540   12.8520   -5.2480 C.3    30  VAL30       0.0020
      8  N         -7.0490   15.8160   -4.8860 N.am   31  GLY31      -0.1957
      9  CA        -5.9110   16.5160   -5.4790 C.3    31  GLY31       0.1869
     10  C         -6.2010   17.9820   -5.7740 C.2    31  GLY31       0.2309
     11  O         -7.3270   18.3600   -6.0860 O.2    31  GLY31      -0.2863
     12  N         -2.9800   20.8540  -12.6950 N.3    35  TYR35      -0.1241
     13  CA        -4.1210   20.1800  -13.3420 C.3    35  TYR35       0.1605
     14  C         -5.4980   20.7740  -12.9840 C.2    35  TYR35       0.2264
     15  O         -6.3660   20.9060  -13.8470 O.2    35  TYR35      -0.2867
     16  CB        -4.1190   18.6620  -13.0530 C.3    35  TYR35       0.0534
     17  CG        -3.9950   18.2700  -11.5930 C.ar   35  TYR35      -0.0201
     18  CD1       -5.1180   18.1970  -10.7780 C.ar   35  TYR35      -0.0009
     19  CD2       -2.7450   17.9640  -11.0260 C.ar   35  TYR35      -0.0009
     20  CE1       -5.0150   17.8500   -9.4390 C.ar   35  TYR35       0.0417
     21  CE2       -2.6340   17.6090   -9.6860 C.ar   35  TYR35       0.0417
     22  CZ        -3.7770   17.5510   -8.8960 C.ar   35  TYR35       0.1957
     23  OH        -3.6980   17.2160   -7.5600 O.3    35  TYR35      -0.2866
     24  N         -9.3090   17.6960   -8.2260 N.3    38  VAL38      -0.1245
     25  CA        -9.7330   16.3240   -8.4450 C.3    38  VAL38       0.1561
     26  C        -10.4350   15.8410   -7.1950 C.2    38  VAL38       0.2260
     27  O         -9.8770   15.9300   -6.0970 O.2    38  VAL38      -0.2867
     28  CB        -8.5500   15.4300   -8.8430 C.3    38  VAL38       0.0252
     29  CG1       -8.9470   13.9570   -8.8910 C.3    38  VAL38       0.0019
     30  CG2       -8.0530   15.8600  -10.2120 C.3    38  VAL38       0.0019
     31  N        -13.5050    9.5990  -10.4050 N.3    53  ALA53      -0.1245
     32  CA       -12.6790   10.7760  -10.2210 C.3    53  ALA53       0.1562
     33  C        -13.2720   11.8870  -11.0810 C.2    53  ALA53       0.2260
     34  O        -13.5080   11.6890  -12.2880 O.2    53  ALA53      -0.2867
     35  CB       -11.2480   10.4960  -10.6410 C.3    53  ALA53       0.0290
     36  N        -12.4170   15.6460  -12.2620 N.3    55  LYS55      -0.1245
     37  CA       -11.4400   16.7140  -12.3600 C.3    55  LYS55       0.1561
     38  C        -12.0940   17.9770  -12.8970 C.2    55  LYS55       0.2260
     39  O        -12.6500   17.9580  -14.0010 O.2    55  LYS55      -0.2867
     40  CB       -10.3010   16.3310  -13.2980 C.3    55  LYS55       0.0271
     41  CG        -9.2910   17.4580  -13.4500 C.3    55  LYS55       0.0035
     42  CD        -7.9420   16.9880  -13.9240 C.3    55  LYS55       0.0206
     43  CE        -7.8410   17.0470  -15.4240 C.3    55  LYS55       0.1093
     44  NZ        -6.5960   16.3520  -15.8190 N.3    55  LYS55      -0.1314
     45  N         -5.5590    6.2820  -18.6840 N.3    82  ILE82      -0.1245
     46  CA        -6.8100    6.6890  -18.0240 C.3    82  ILE82       0.1561
     47  C         -7.8580    7.0490  -19.0740 C.2    82  ILE82       0.2260
     48  O         -7.5280    7.7020  -20.0630 O.2    82  ILE82      -0.2867
     49  CB        -6.5640    7.8300  -17.0030 C.3    82  ILE82       0.0252
     50  CG1       -7.7480    7.9740  -16.0460 C.3    82  ILE82       0.0019
     51  CG2       -6.2460    9.1560  -17.6870 C.3    82  ILE82       0.0019
     52  CD1       -7.4840    8.9320  -14.8870 C.3    82  ILE82       0.0001
     53  N        -13.5210   10.3980  -14.7240 N.3   100  PHE100     -0.1227
     54  CA       -12.7190    9.1670  -14.9010 C.3   100  PHE100      0.1736
     55  C        -13.0990    8.1200  -13.8670 C.2   100  PHE100      0.2595
     56  O        -13.7180    8.4370  -12.8450 O.2   100  PHE100     -0.2718
     57  CB       -11.2150    9.4610  -14.7380 C.3   100  PHE100      0.0547
     58  CG       -10.7340   10.6910  -15.4670 C.ar  100  PHE100     -0.0202
     59  CD1      -10.3530   10.6220  -16.7810 C.ar  100  PHE100     -0.0042
     60  CD2      -10.6290   11.9120  -14.8120 C.ar  100  PHE100     -0.0042
     61  CE1       -9.8790   11.7400  -17.4480 C.ar  100  PHE100     -0.0003
     62  CE2      -10.1640   13.0500  -15.4720 C.ar  100  PHE100     -0.0003
     63  CZ        -9.7830   12.9570  -16.8000 C.ar  100  PHE100     -0.0000
     64  N        -12.7200    6.8740  -14.1240 N.am  101  ASP101     -0.1960
     65  CA       -12.7170    5.8460  -13.0840 C.3   101  ASP101      0.1840
     66  C        -11.6560    6.2170  -12.0230 C.2   101  ASP101      0.2622
     67  O        -10.6000    6.7440  -12.3390 O.2   101  ASP101     -0.2715
     68  CB       -12.4420    4.4490  -13.6650 C.3   101  ASP101      0.1450
     69  CG       -13.6640    3.8210  -14.3510 C.2   101  ASP101      0.3671
     70  OD1      -14.7770    4.3800  -14.3010 O.co2 101  ASP101     -0.2456
     71  OD2      -13.5000    2.7390  -14.9460 O.co2 101  ASP101     -0.2456
     72  N        -11.9820    5.9720  -10.7670 N.am  102  TYR102     -0.1960
     73  CA       -11.1700    6.4040   -9.6420 C.3   102  TYR102      0.1771
     74  C        -10.0610    5.3830   -9.3960 C.2   102  TYR102      0.2619
     75  O        -10.3380    4.2030   -9.2380 O.2   102  TYR102     -0.2715
     76  CB       -12.0470    6.5190   -8.4030 C.3   102  TYR102      0.0574
     77  CG       -11.3020    6.8690   -7.1490 C.ar  102  TYR102     -0.0198
     78  CD1      -10.7410    8.1380   -6.9700 C.ar  102  TYR102     -0.0009
     79  CD2      -11.1630    5.9380   -6.1260 C.ar  102  TYR102     -0.0009
     80  CE1      -10.0610    8.4660   -5.8130 C.ar  102  TYR102      0.0417
     81  CE2      -10.4920    6.2560   -4.9570 C.ar  102  TYR102      0.0417
     82  CZ        -9.9350    7.5140   -4.8050 C.ar  102  TYR102      0.1957
     83  OH        -9.2800    7.8070   -3.6300 O.3   102  TYR102     -0.2866
     84  N         -8.8160    5.8540   -9.3920 N.am  103  ALA103     -0.1977
     85  CA        -7.6350    5.0520   -9.0600 C.3   103  ALA103      0.1597
     86  C         -7.2530    5.2970   -7.6100 C.2   103  ALA103      0.2287
     87  O         -6.7540    6.3740   -7.2590 O.2   103  ALA103     -0.2864
     88  CB        -6.4950    5.4210   -9.9650 C.3   103  ALA103      0.0319
     89  N         -1.2890    5.4900   -6.4560 N.3   106  ASP106     -0.1239
     90  CA        -0.3580    6.0040   -7.4470 C.3   106  ASP106      0.1674
     91  C          1.0480    5.7640   -6.9820 C.2   106  ASP106      0.2266
     92  O          1.2790    5.4740   -5.8110 O.2   106  ASP106     -0.2867
     93  CB        -0.5800    7.4900   -7.6540 C.3   106  ASP106      0.1410
     94  CG        -0.3910    8.2800   -6.3860 C.2   106  ASP106      0.3668
     95  OD1        0.7890    8.4510   -5.9730 O.co2 106  ASP106     -0.2456
     96  OD2       -1.4130    8.7290   -5.8060 O.co2 106  ASP106     -0.2456
     97  N          3.6310    7.8580   -6.5800 N.3   108  TRP108     -0.1227
     98  CA         4.1630    8.8030   -5.5950 C.3   108  TRP108      0.1737
     99  C          3.8880    8.2940   -4.1680 C.2   108  TRP108      0.2595
    100  O          4.8050    8.2090   -3.3490 O.2   108  TRP108     -0.2718
    101  CB         3.5670   10.1910   -5.7870 C.3   108  TRP108      0.0564
    102  CG         4.2600   11.2030   -5.0200 C.ar  108  TRP108      0.0003
    103  CD1        5.3400   11.9020   -5.4160 C.ar  108  TRP108      0.0946
    104  CD2        3.9450   11.6470   -3.6930 C.ar  108  TRP108      0.0152
    105  NE1        5.7260   12.7680   -4.4350 N.ar  108  TRP108     -0.2442
    106  CE2        4.8810   12.6340   -3.3600 C.ar  108  TRP108      0.0810
    107  CE3        2.9620   11.3040   -2.7600 C.ar  108  TRP108      0.0012
    108  CZ2        4.8830   13.2800   -2.1210 C.ar  108  TRP108      0.0191
    109  CZ3        2.9470   11.9520   -1.5320 C.ar  108  TRP108      0.0001
    110  CH2        3.9010   12.9310   -1.2250 C.ar  108  TRP108      0.0015
    111  N          2.6300    7.9420   -3.9040 N.am  109  HIS109     -0.1975
    112  CA         2.2200    7.4050   -2.6050 C.3   109  HIS109      0.1656
    113  C          2.7500    6.0050   -2.3130 C.2   109  HIS109      0.2291
    114  O          3.1200    5.7350   -1.1850 O.2   109  HIS109     -0.2864
    115  CB         0.6970    7.4320   -2.4550 C.3   109  HIS109      0.0771
    116  CG         0.1530    8.7980   -2.1730 C.ar  109  HIS109      0.0820
    117  ND1       -0.5630    9.5250   -3.0970 N.ar  109  HIS109     -0.2267
    118  CD2        0.2510    9.5820   -1.0760 C.ar  109  HIS109      0.1154
    119  CE1       -0.8910   10.6920   -2.5760 C.ar  109  HIS109      0.1986
    120  NE2       -0.4110   10.7500   -1.3500 N.ar  109  HIS109     -0.2212
    121  N          6.6170    6.3660   -1.6740 N.3   112  LYS112     -0.1245
    122  CA         6.8020    7.0800   -0.4080 C.3   112  LYS112      0.1561
    123  C          6.4260    6.2170    0.8110 C.2   112  LYS112      0.2260
    124  O          6.9910    6.3960    1.8920 O.2   112  LYS112     -0.2867
    125  CB         6.0280    8.4120   -0.4100 C.3   112  LYS112      0.0271
    126  CG         6.3200    9.3270    0.7800 C.3   112  LYS112      0.0035
    127  CD         5.8160   10.7120    0.6100 C.3   112  LYS112      0.0206
    128  CE         6.1470   11.5710    1.8210 C.3   112  LYS112      0.1093
    129  NZ         5.6980   12.9810    1.6640 N.3   112  LYS112     -0.1314
    130  N          6.2220   10.9230  -14.4210 N.3   150  LYS150     -0.1245
    131  CA         6.7450   10.8740  -13.0600 C.3   150  LYS150      0.1561
    132  C          5.8380    9.9980  -12.2020 C.2   150  LYS150      0.2260
    133  O          4.7100    9.7040  -12.5990 O.2   150  LYS150     -0.2867
    134  CB         6.8760   12.2850  -12.4610 C.3   150  LYS150      0.0271
    135  CG         5.6210   13.1200  -12.5330 C.3   150  LYS150      0.0035
    136  CD         5.8440   14.4970  -11.9740 C.3   150  LYS150      0.0206
    137  CE         4.6040   15.3300  -12.2050 C.3   150  LYS150      0.1093
    138  NZ         4.7430   16.6600  -11.5710 N.3   150  LYS150     -0.1314
    139  N          3.8590   10.4350   -9.7090 N.3   152  ALA152     -0.1231
    140  CA         2.5180   10.9570   -9.3920 C.3   152  ALA152      0.1694
    141  C          1.5100   10.8930  -10.5500 C.2   152  ALA152      0.2592
    142  O          0.2980   10.9820  -10.3240 O.2   152  ALA152     -0.2718
    143  CB         2.6240   12.3740   -8.8870 C.3   152  ALA152      0.0304
    144  N          2.0200   10.7590  -11.7720 N.am  153  ASN153     -0.1974
    145  CA         1.2090   10.5530  -12.9650 C.3   153  ASN153      0.1688
    146  C          1.0280    9.0850  -13.3810 C.2   153  ASN153      0.2292
    147  O          0.3730    8.8060  -14.3810 O.2   153  ASN153     -0.2864
    148  CB         1.8010   11.3910  -14.1010 C.3   153  ASN153      0.1181
    149  CG         1.6190   12.8950  -13.8660 C.2   153  ASN153      0.2629
    150  OD1        0.6960   13.3140  -13.1690 O.2   153  ASN153     -0.2716
    151  ND2        2.4920   13.7040  -14.4450 N.am  153  ASN153     -0.0877
    152  N         -0.9250    6.2460  -12.0390 N.3   155  LEU155     -0.1245
    153  CA        -1.9760    5.8090  -11.1310 C.3   155  LEU155      0.1561
    154  C         -2.0440    4.2900  -11.1290 C.2   155  LEU155      0.2260
    155  O         -1.6860    3.6440  -12.1050 O.2   155  LEU155     -0.2867
    156  CB        -3.3410    6.3690  -11.5540 C.3   155  LEU155      0.0270
    157  CG        -3.4420    7.8650  -11.8610 C.3   155  LEU155      0.0019
    158  CD1       -4.8900    8.2580  -12.1480 C.3   155  LEU155      0.0001
    159  CD2       -2.9060    8.6780  -10.6960 C.3   155  LEU155      0.0001
    160  N         -1.7470    8.9800  -16.3640 N.3   169  ALA169     -0.1231
    161  CA        -2.6230   10.1360  -16.1950 C.3   169  ALA169      0.1694
    162  C         -1.8930   11.4270  -16.5000 C.2   169  ALA169      0.2592
    163  O         -0.6640   11.4440  -16.5910 O.2   169  ALA169     -0.2718
    164  CB        -3.1460   10.1760  -14.7600 C.3   169  ALA169      0.0304
    165  N         -2.6880   12.4830  -16.6280 N.am  170  ASP170     -0.1974
    166  CA        -2.2780   13.8800  -16.8160 C.3   170  ASP170      0.1709
    167  C         -1.1170   14.1260  -17.7690 C.2   170  ASP170      0.2293
    168  O         -0.0740   14.6660  -17.3810 O.2   170  ASP170     -0.2864
    169  CB        -2.0280   14.5730  -15.4640 C.3   170  ASP170      0.1436
    170  CG        -2.1430   16.1100  -15.5510 C.2   170  ASP170      0.3671
    171  OD1       -2.8360   16.6400  -16.4640 O.co2 170  ASP170     -0.2456
    172  OD2       -1.5390   16.7890  -14.6920 O.co2 170  ASP170     -0.2456
    173  N         -6.5790    7.2050   -0.1540 N.3   336  ARG336     -0.1245
    174  CA        -6.3180    8.6510   -0.2630 C.3   336  ARG336      0.1563
    175  C         -7.0080    9.4000    0.8670 C.2   336  ARG336      0.2260
    176  O         -8.1910    9.1690    1.1380 O.2   336  ARG336     -0.2867
    177  CB        -6.8200    9.2260   -1.5970 C.3   336  ARG336      0.0307
    178  CG        -6.3110    8.5030   -2.8300 C.3   336  ARG336      0.0489
    179  CD        -6.6480    9.2470   -4.1180 C.3   336  ARG336      0.2205
    180  NE        -6.1020    8.5310   -5.2680 N.pl3 336  ARG336     -0.0865
    181  CZ        -4.8170    8.5130   -5.5940 C.cat 336  ARG336      0.5346
    182  NH1       -3.9220    9.2050   -4.8900 N.pl3 336  ARG336      0.1354
    183  NH2       -4.4150    7.8180   -6.6520 N.pl3 336  ARG336      0.1354
@<TRIPOS>BOND
     1    48    47    2
     2    47    46    1
     3    45    46    1
     4    46    49    1
     5   167   168    2
     6   167   166    1
     7    51    49    1
     8    61    63   ar
     9    61    59   ar
    10    49    50    1
    11   166   165    1
    12   166   169    1
    13    63    62   ar
    14    59    58   ar
    15   165   162   am
    16   163   162    2
    17   162   161    1
    18   171   170   ar
    19   160   161    1
    20   161   164    1
    21    50    52    1
    22    44    43    1
    23   170   169    1
    24   170   172   ar
    25    62    60   ar
    26    58    60   ar
    27    58    57    1
    28    43    42    1
    29    71    69   ar
    30    54    57    1
    31    54    53    1
    32    54    55    1
    33   151   149   am
    34   130   131    1
    35   147   146    2
    36    69    70   ar
    37    69    68    1
    38    64    55   am
    39    64    65    1
    40   148   149    1
    41   148   145    1
    42    39    38    2
    43    42    41    1
    44    55    56    2
    45   149   150    2
    46    15    14    2
    47    68    65    1
    48    41    40    1
    49   146   145    1
    50    13    16    1
    51    13    14    1
    52    13    12    1
    53    40    37    1
    54    65    66    1
    55   131   134    1
    56   131   132    1
    57    16    17    1
    58   145   144    1
    59    38    37    1
    60   133   132    2
    61   135   134    1
    62   135   136    1
    63    37    36    1
    64    67    66    2
    65    34    33    2
    66   137   136    1
    67   137   138    1
    68   158   157    1
    69   155   154    2
    70   152   153    1
    71    66    72   am
    72   157   156    1
    73   157   159    1
    74   144   141   am
    75    17    19   ar
    76    17    18   ar
    77   156   153    1
    78   153   154    1
    79    33    32    1
    80    19    21   ar
    81    18    20   ar
    82    72    73    1
    83    35    32    1
    84   141   142    2
    85   141   140    1
    86    31    32    1
    87    30    28    1
    88    88    85    1
    89   139   140    1
    90    21    22   ar
    91    73    74    1
    92    73    76    1
    93    20    22   ar
    94    74    84   am
    95    74    75    2
    96    84    85    1
    97   140   143    1
    98    85    86    1
    99    22    23    1
   100    29    28    1
   101    28    25    1
   102    25    24    1
   103    25    26    1
   104    76    77    1
   105    93    90    1
   106    93    94    1
   107    86    87    2
   108    90    91    1
   109    90    89    1
   110    26    27    2
   111    77    78   ar
   112    77    79   ar
   113    91    92    2
   114    78    80   ar
   115   183   181    1
   116    97    98    1
   117    94    95   ar
   118    94    96   ar
   119    79    81   ar
   120    11    10    2
   121    80    82   ar
   122   101    98    1
   123   101   102    1
   124    10     9    1
   125    98    99    1
   126   181   180    2
   127   181   182    1
   128     9     8    1
   129   103   102   ar
   130   103   105   ar
   131   180   179    1
   132     7     5    1
   133   102   104   ar
   134    81    82   ar
   135     8     3   am
   136    82    83    1
   137   105   106   ar
   138    99   111   am
   139    99   100    2
   140   179   178    1
   141   111   112    1
   142     3     4    2
   143     3     2    1
   144     5     2    1
   145     5     6    1
   146   104   106   ar
   147   104   107   ar
   148     1     2    1
   149   106   108   ar
   150   117   119   ar
   151   117   116   ar
   152   178   177    1
   153   107   109   ar
   154   112   115    1
   155   112   113    1
   156   119   120   ar
   157   115   116    1
   158   113   114    2
   159   116   118   ar
   160   108   110   ar
   161   121   122    1
   162   177   174    1
   163   109   110   ar
   164   120   118   ar
   165   125   122    1
   166   125   126    1
   167   122   123    1
   168   174   173    1
   169   174   175    1
   170   127   126    1
   171   127   128    1
   172   123   124    2
   173   175   176    2
   174   129   128    1
