@<TRIPOS>MOLECULE
tmp/4crmA01.pdb
 127 120 0 0 0
SMALL
GASTEIGER

@<TRIPOS>ATOM
      1  N         -5.8290   88.1770  -76.4460 N.3   217  ARG217     -0.1245
      2  CA        -6.6810   87.1200  -76.9260 C.3   217  ARG217      0.1563
      3  C         -7.9750   87.1500  -76.1810 C.2   217  ARG217      0.2260
      4  O         -8.0590   87.6770  -75.0730 O.2   217  ARG217     -0.2867
      5  CB        -6.1560   85.6990  -76.6700 C.3   217  ARG217      0.0307
      6  CG        -4.8520   85.3400  -77.3650 C.3   217  ARG217      0.0489
      7  CD        -4.5110   83.8590  -77.2040 C.3   217  ARG217      0.2205
      8  NE        -3.0700   83.6810  -77.5340 N.pl3 217  ARG217     -0.0865
      9  CZ        -2.5100   82.4390  -77.4500 C.cat 217  ARG217      0.5346
     10  NH1       -3.2910   81.3580  -77.1600 N.pl3 217  ARG217      0.1354
     11  NH2       -1.1710   82.2780  -77.6510 N.pl3 217  ARG217      0.1354
     12  N         10.5540   73.7420  -86.2000 N.3   361  LYS361     -0.1245
     13  CA         9.2470   74.0420  -86.6910 C.3   361  LYS361      0.1561
     14  C          9.0640   75.4520  -86.2520 C.2   361  LYS361      0.2260
     15  O          9.2160   75.7460  -85.0650 O.2   361  LYS361     -0.2867
     16  CB         8.1360   73.1960  -86.0480 C.3   361  LYS361      0.0271
     17  CG         6.8090   73.1960  -86.8150 C.3   361  LYS361      0.0035
     18  CD         6.1550   74.5690  -86.9610 C.3   361  LYS361      0.0206
     19  CE         4.8340   74.5280  -87.7300 C.3   361  LYS361      0.1093
     20  NZ         3.7680   73.9740  -86.8690 N.3   361  LYS361     -0.1314
     21  N          6.4600   78.7370  -86.4480 N.3   363  GLN363     -0.1245
     22  CA         5.1840   79.3220  -86.7440 C.3   363  GLN363      0.1566
     23  C          5.3660   80.6930  -87.3220 C.2   363  GLN363      0.2260
     24  O          4.5760   81.1380  -88.1510 O.2   363  GLN363     -0.2867
     25  CB         4.2600   79.4480  -85.5150 C.3   363  GLN363      0.0367
     26  CG         3.6740   78.1200  -85.0220 C.3   363  GLN363      0.0905
     27  CD         4.6740   77.4200  -84.1100 C.2   363  GLN363      0.2608
     28  OE1        5.8090   77.1280  -84.4880 O.2   363  GLN363     -0.2717
     29  NE2        4.2370   77.1330  -82.8550 N.am  363  GLN363     -0.0878
     30  N          5.8030   82.9530  -85.0300 N.3   365  ASP365     -0.1225
     31  CA         5.4980   83.6200  -83.7980 C.3   365  ASP365      0.1805
     32  C          6.2160   82.8670  -82.7200 C.2   365  ASP365      0.2597
     33  O          6.6300   83.4330  -81.7080 O.2   365  ASP365     -0.2718
     34  CB         3.9960   83.5610  -83.4650 C.3   365  ASP365      0.1424
     35  CG         3.7270   84.4370  -82.2480 C.2   365  ASP365      0.3668
     36  OD1        4.6910   85.0730  -81.7460 O.co2 365  ASP365     -0.2456
     37  OD2        2.5460   84.4870  -81.8110 O.co2 365  ASP365     -0.2456
     38  N          6.3830   81.5460  -82.9270 N.am  366  PHE366     -0.1976
     39  CA         7.0530   80.7180  -81.9660 C.3   366  PHE366      0.1639
     40  C          8.0050   79.8650  -82.7430 C.2   366  PHE366      0.2290
     41  O          7.7410   79.5360  -83.8990 O.2   366  PHE366     -0.2864
     42  CB         6.0720   79.7960  -81.2120 C.3   366  PHE366      0.0560
     43  CG         6.8100   78.9970  -80.1920 C.ar  366  PHE366     -0.0200
     44  CD1        7.1540   79.5520  -78.9820 C.ar  366  PHE366     -0.0042
     45  CD2        7.1410   77.6840  -80.4380 C.ar  366  PHE366     -0.0042
     46  CE1        7.8270   78.8150  -78.0360 C.ar  366  PHE366     -0.0003
     47  CE2        7.8150   76.9410  -79.4960 C.ar  366  PHE366     -0.0003
     48  CZ         8.1620   77.5060  -78.2940 C.ar  366  PHE366     -0.0000
     49  N          7.2000   73.0820  -69.7310 N.3   386  GLU386     -0.1231
     50  CA         6.0310   73.9170  -69.6590 C.3   386  GLU386      0.1699
     51  C          5.3560   73.9100  -70.9960 C.2   386  GLU386      0.2592
     52  O          5.9850   73.6270  -72.0140 O.2   386  GLU386     -0.2718
     53  CB         6.3810   75.3750  -69.3110 C.3   386  GLU386      0.0402
     54  CG         7.3660   75.9970  -70.3050 C.3   386  GLU386      0.1161
     55  CD         7.8340   77.3360  -69.7550 C.2   386  GLU386      0.3649
     56  OE1        6.9820   78.0870  -69.2080 O.co2 386  GLU386     -0.2457
     57  OE2        9.0530   77.6270  -69.8780 O.co2 386  GLU386     -0.2457
     58  N          4.0380   74.2150  -71.0130 N.am  387  ASN387     -0.1960
     59  CA         3.2810   74.2760  -72.2330 C.3   387  ASN387      0.1819
     60  C          3.7510   75.4830  -72.9930 C.2   387  ASN387      0.2622
     61  O          4.3480   76.3970  -72.4250 O.2   387  ASN387     -0.2715
     62  CB         1.7610   74.4150  -72.0250 C.3   387  ASN387      0.1195
     63  CG         1.2160   73.0990  -71.4810 C.2   387  ASN387      0.2630
     64  OD1        1.6200   72.0150  -71.9010 O.2   387  ASN387     -0.2716
     65  ND2        0.2620   73.1990  -70.5190 N.am  387  ASN387     -0.0877
     66  N          3.5390   75.4900  -74.3250 N.am  388  GLY388     -0.1940
     67  CA         3.9070   76.6180  -75.1390 C.3   388  GLY388      0.2014
     68  C          5.3450   76.4900  -75.5480 C.2   388  GLY388      0.2640
     69  O          5.8870   77.3610  -76.2290 O.2   388  GLY388     -0.2714
     70  N          6.0060   75.4310  -75.0480 N.am  389  THR389     -0.1936
     71  CA         7.3580   75.0200  -75.3150 C.3   389  THR389      0.2028
     72  C          7.4220   74.2050  -76.5780 C.2   389  THR389      0.2643
     73  O          8.5040   73.8600  -77.0410 O.2   389  THR389     -0.2714
     74  CB         7.9430   74.1700  -74.2280 C.3   389  THR389      0.1808
     75  OG1        9.3450   74.0370  -74.4130 O.3   389  THR389     -0.2208
     76  CG2        7.2740   72.7860  -74.2860 C.3   389  THR389      0.0379
     77  N          6.2840   73.7440  -77.1260 N.am  390  GLY390     -0.1939
     78  CA         6.4160   72.9680  -78.3280 C.3   390  GLY390      0.2014
     79  C          6.5840   71.5220  -77.9750 C.2   390  GLY390      0.2639
     80  O          7.2790   70.7840  -78.6710 O.2   390  GLY390     -0.2714
     81  N          6.0250   71.1100  -76.8210 N.am  391  LYS391     -0.1963
     82  CA         5.9800   69.7270  -76.4420 C.3   391  LYS391      0.1728
     83  C          5.0080   69.0360  -77.3620 C.2   391  LYS391      0.2617
     84  O          5.2500   67.9180  -77.8180 O.2   391  LYS391     -0.2715
     85  CB         5.4870   69.5770  -74.9960 C.3   391  LYS391      0.0311
     86  CG         5.8490   68.2520  -74.3340 C.3   391  LYS391      0.0038
     87  CD         5.6380   68.2830  -72.8180 C.3   391  LYS391      0.0206
     88  CE         4.2240   68.7010  -72.4130 C.3   391  LYS391      0.1093
     89  NZ         4.1550   68.9140  -70.9520 N.3   391  LYS391     -0.1314
     90  N          3.8600   69.7060  -77.6250 N.am  392  THR392     -0.1937
     91  CA         2.7910   69.2550  -78.4750 C.3   392  THR392      0.2028
     92  C          3.2390   69.2460  -79.9050 C.2   392  THR392      0.2642
     93  O          2.9340   68.3190  -80.6500 O.2   392  THR392     -0.2714
     94  CB         1.5800   70.1380  -78.3840 C.3   392  THR392      0.1808
     95  OG1        1.1200   70.2010  -77.0420 O.3   392  THR392     -0.2208
     96  CG2        0.4770   69.5610  -79.2860 C.3   392  THR392      0.0379
     97  N          3.9860   70.2820  -80.3290 N.am  393  THR393     -0.1950
     98  CA         4.4150   70.4240  -81.6910 C.3   393  THR393      0.1897
     99  C          5.3050   69.2780  -82.0680 C.2   393  THR393      0.2313
    100  O          5.1710   68.7160  -83.1530 O.2   393  THR393     -0.2863
    101  CB         5.1790   71.6930  -81.9260 C.3   393  THR393      0.1794
    102  OG1        4.3760   72.8130  -81.5780 O.3   393  THR393     -0.2208
    103  CG2        5.5740   71.7670  -83.4110 C.3   393  THR393      0.0378
    104  N         -3.7370   65.7910  -77.3380 N.3   420  GLN420     -0.1245
    105  CA        -3.7080   66.4090  -76.0350 C.3   420  GLN420      0.1566
    106  C         -5.0690   66.7550  -75.5040 C.2   420  GLN420      0.2260
    107  O         -5.5560   66.1180  -74.5720 O.2   420  GLN420     -0.2867
    108  CB        -2.9020   67.7220  -76.0450 C.3   420  GLN420      0.0367
    109  CG        -2.8320   68.4300  -74.6900 C.3   420  GLN420      0.0905
    110  CD        -2.0140   69.7010  -74.8730 C.2   420  GLN420      0.2608
    111  OE1       -1.6860   70.0860  -75.9950 O.2   420  GLN420     -0.2717
    112  NE2       -1.6720   70.3770  -73.7430 N.am  420  GLN420     -0.0878
    113  N         -0.1710   64.0840  -72.9040 N.3   493  GLU493     -0.1245
    114  CA        -0.7500   64.4770  -71.6490 C.3   493  GLU493      0.1567
    115  C         -1.9690   63.6850  -71.2580 C.2   493  GLU493      0.2260
    116  O         -3.0950   64.1560  -71.4030 O.2   493  GLU493     -0.2867
    117  CB        -1.0270   65.9870  -71.6010 C.3   493  GLU493      0.0388
    118  CG         0.2760   66.7790  -71.7450 C.3   493  GLU493      0.1160
    119  CD        -0.0320   68.2660  -71.7940 C.2   493  GLU493      0.3649
    120  OE1       -1.1870   68.6500  -71.4660 O.co2 493  GLU493     -0.2457
    121  OE2        0.8910   69.0400  -72.1650 O.co2 493  GLU493     -0.2457
    122  N          5.7580   80.5400  -75.1020 N.3   546  SER546     -0.1217
    123  CA         5.1360   81.4290  -76.0460 C.3   546  SER546      0.1889
    124  C          6.1740   82.2290  -76.7720 C.2   546  SER546      0.2288
    125  O          5.8800   83.2680  -77.3590 O.2   546  SER546     -0.2866
    126  CB         4.1410   82.3920  -75.3670 C.3   546  SER546      0.2089
    127  OG         3.5210   83.2380  -76.3250 O.3   546  SER546     -0.2183
@<TRIPOS>BOND
     1    24    23    2
     2    19    18    1
     3    19    20    1
     4    23    22    1
     5    18    17    1
     6    17    16    1
     7    22    21    1
     8    22    25    1
     9    13    14    1
    10    13    12    1
    11    13    16    1
    12    14    15    2
    13    25    26    1
    14    30    31    1
    15    26    27    1
    16    28    27    2
    17    27    29   am
    18    41    40    2
    19    31    34    1
    20    31    32    1
    21    34    35    1
    22   103   101    1
    23   100    99    2
    24    38    32   am
    25    38    39    1
    26    40    39    1
    27    32    33    2
    28    35    37   ar
    29    35    36   ar
    30    99    98    1
    31    39    42    1
    32   101    98    1
    33   101   102    1
    34    98    97    1
    35    42    43    1
    36    93    92    2
    37    45    43   ar
    38    45    47   ar
    39    97    92   am
    40    43    44   ar
    41    92    91    1
    42    47    48   ar
    43    96    94    1
    44    44    46   ar
    45    80    79    2
    46    91    94    1
    47    91    90    1
    48    94    95    1
    49    78    79    1
    50    78    77    1
    51    48    46   ar
    52    79    81   am
    53    84    83    2
    54    11     9    1
    55    90    83   am
    56     8     9    2
    57     8     7    1
    58     9    10    1
    59     6     7    1
    60     6     5    1
    61    83    82    1
    62   125   124    2
    63   104   105    1
    64    77    72   am
    65    73    72    2
    66     2     5    1
    67     2     1    1
    68     2     3    1
    69    81    82    1
    70   124   123    1
    71    72    71    1
    72    82    85    1
    73   127   126    1
    74    69    68    2
    75     3     4    2
    76   123   126    1
    77   123   122    1
    78   108   105    1
    79   108   109    1
    80   105   106    1
    81   111   110    2
    82    68    67    1
    83    68    70   am
    84   106   107    2
    85    71    70    1
    86    71    74    1
    87    67    66    1
    88    85    86    1
    89   110   109    1
    90   110   112   am
    91    75    74    1
    92    86    87    1
    93    66    60   am
    94    76    74    1
    95    60    61    2
    96    60    59    1
    97   113   114    1
    98    87    88    1
    99    88    89    1
   100    59    62    1
   101    59    58    1
   102   121   119   ar
   103    62    63    1
   104    52    51    2
   105    64    63    2
   106   119   118    1
   107   119   120   ar
   108   118   117    1
   109   114   117    1
   110   114   115    1
   111    63    65   am
   112   116   115    2
   113    58    51   am
   114    51    50    1
   115    54    55    1
   116    54    53    1
   117    57    55   ar
   118    55    56   ar
   119    49    50    1
   120    50    53    1
