@<TRIPOS>MOLECULE
tmp/4crmA00.pdb
 127 124 0 0 0
SMALL
GASTEIGER

@<TRIPOS>ATOM
      1  N        -29.2270   65.5060  -52.5300 N.3    87  TYR87      -0.1227
      2  CA       -29.7480   65.9980  -53.7730 C.3    87  TYR87       0.1736
      3  C        -31.1890   65.6480  -53.9620 C.2    87  TYR87       0.2596
      4  O        -31.9420   66.4390  -54.5220 O.2    87  TYR87      -0.2718
      5  CB       -28.9430   65.5450  -55.0030 C.3    87  TYR87       0.0548
      6  CG       -27.7250   66.4020  -55.0330 C.ar   87  TYR87      -0.0200
      7  CD1      -26.6360   66.1330  -54.2380 C.ar   87  TYR87      -0.0009
      8  CD2      -27.6820   67.4970  -55.8660 C.ar   87  TYR87      -0.0009
      9  CE1      -25.5220   66.9410  -54.2790 C.ar   87  TYR87       0.0417
     10  CE2      -26.5730   68.3080  -55.9130 C.ar   87  TYR87       0.0417
     11  CZ       -25.4890   68.0290  -55.1170 C.ar   87  TYR87       0.1957
     12  OH       -24.3480   68.8570  -55.1610 O.3    87  TYR87      -0.2866
     13  N        -31.6040   64.4360  -53.5560 N.am   88  SER88      -0.1952
     14  CA       -32.9650   63.9960  -53.7230 C.3    88  SER88       0.1924
     15  C        -33.0050   62.5740  -53.2840 C.2    88  SER88       0.2314
     16  O        -32.0390   62.0510  -52.7280 O.2    88  SER88      -0.2863
     17  CB       -33.4880   63.9580  -55.1770 C.3    88  SER88       0.2116
     18  OG       -33.9130   65.2360  -55.6280 O.3    88  SER88      -0.2180
     19  N        -30.0910   59.6420  -54.2960 N.3    91  SER91      -0.1202
     20  CA       -29.0950   60.3720  -55.0340 C.3    91  SER91       0.2020
     21  C        -27.9500   60.6850  -54.1160 C.2    91  SER91       0.2618
     22  O        -27.9160   60.2380  -52.9690 O.2    91  SER91      -0.2717
     23  CB       -29.6060   61.7140  -55.5850 C.3    91  SER91       0.2103
     24  OG       -29.9390   62.5880  -54.5160 O.3    91  SER91      -0.2182
     25  N        -26.9730   61.4580  -54.6350 N.am   92  PHE92      -0.1975
     26  CA       -25.7790   61.8530  -53.9320 C.3    92  PHE92       0.1639
     27  C        -26.1700   62.6570  -52.7360 C.2    92  PHE92       0.2290
     28  O        -27.0770   63.4870  -52.7890 O.2    92  PHE92      -0.2864
     29  CB       -24.8420   62.7030  -54.8160 C.3    92  PHE92       0.0560
     30  CG       -23.6270   63.1210  -54.0550 C.ar   92  PHE92      -0.0200
     31  CD1      -22.6120   62.2280  -53.7960 C.ar   92  PHE92      -0.0042
     32  CD2      -23.4920   64.4230  -53.6250 C.ar   92  PHE92      -0.0042
     33  CE1      -21.4920   62.6250  -53.1030 C.ar   92  PHE92      -0.0003
     34  CE2      -22.3740   64.8260  -52.9300 C.ar   92  PHE92      -0.0003
     35  CZ       -21.3720   63.9230  -52.6660 C.ar   92  PHE92      -0.0000
     36  N        -12.9910   62.2310  -57.6350 N.3   112  ASN112     -0.1225
     37  CA       -14.1070   62.9580  -58.1880 C.3   112  ASN112      0.1785
     38  C        -15.4050   62.3620  -57.7180 C.2   112  ASN112      0.2598
     39  O        -15.5090   61.1520  -57.5260 O.2   112  ASN112     -0.2718
     40  CB       -14.1600   62.9280  -59.7270 C.3   112  ASN112      0.1169
     41  CG       -12.9520   63.6670  -60.2820 C.2   112  ASN112      0.2627
     42  OD1      -12.5910   64.7440  -59.8110 O.2   112  ASN112     -0.2716
     43  ND2      -12.3070   63.0720  -61.3190 N.am  112  ASN112     -0.0877
     44  N        -16.4270   63.2340  -57.5230 N.am  113  GLY113     -0.1942
     45  CA       -17.7760   62.8460  -57.1850 C.3   113  GLY113      0.2014
     46  C        -18.0660   62.9450  -55.7080 C.2   113  GLY113      0.2639
     47  O        -19.1970   62.7190  -55.2790 O.2   113  GLY113     -0.2714
     48  N        -17.0480   63.2710  -54.8980 N.am  114  ILE114     -0.1963
     49  CA       -17.0890   63.3490  -53.4590 C.3   114  ILE114      0.1727
     50  C        -17.8470   64.5370  -52.9200 C.2   114  ILE114      0.2617
     51  O        -18.1640   64.5520  -51.7310 O.2   114  ILE114     -0.2715
     52  CB       -15.7200   63.2350  -52.8450 C.3   114  ILE114      0.0290
     53  CG1      -14.8120   64.3950  -53.2540 C.3   114  ILE114      0.0022
     54  CG2      -15.1520   61.8630  -53.2470 C.3   114  ILE114      0.0023
     55  CD1      -15.1670   65.6850  -52.5390 C.3   114  ILE114      0.0001
     56  N        -18.0390   65.6220  -53.7070 N.am  115  GLY115     -0.1940
     57  CA       -18.8040   66.7280  -53.1870 C.3   115  GLY115      0.2014
     58  C        -17.9150   67.8760  -52.8300 C.2   115  GLY115      0.2639
     59  O        -18.3050   68.7380  -52.0410 O.2   115  GLY115     -0.2714
     60  N        -16.6900   67.8980  -53.3890 N.am  116  LYS116     -0.1963
     61  CA       -15.7510   68.9710  -53.1980 C.3   116  LYS116      0.1728
     62  C        -16.3490   70.2080  -53.7810 C.2   116  LYS116      0.2617
     63  O        -16.2080   71.2940  -53.2190 O.2   116  LYS116     -0.2715
     64  CB       -14.4400   68.8110  -53.9960 C.3   116  LYS116      0.0311
     65  CG       -13.4060   67.8390  -53.4320 C.3   116  LYS116      0.0038
     66  CD       -12.3050   67.4710  -54.4310 C.3   116  LYS116      0.0206
     67  CE       -12.7710   66.5480  -55.5620 C.3   116  LYS116      0.1093
     68  NZ       -13.4490   67.3320  -56.6200 N.3   116  LYS116     -0.1314
     69  N        -16.9810   70.0670  -54.9660 N.am  117  SER117     -0.1936
     70  CA       -17.5680   71.1660  -55.6780 C.3   117  SER117      0.2055
     71  C        -18.7890   71.6540  -54.9630 C.2   117  SER117      0.2643
     72  O        -19.0270   72.8580  -54.8880 O.2   117  SER117     -0.2714
     73  CB       -17.9660   70.7940  -57.1190 C.3   117  SER117      0.2130
     74  OG       -16.8070   70.4630  -57.8730 O.3   117  SER117     -0.2179
     75  N        -19.5930   70.7200  -54.4200 N.am  118  THR118     -0.1950
     76  CA       -20.8250   71.0420  -53.7580 C.3   118  THR118      0.1897
     77  C        -20.5400   71.8030  -52.4990 C.2   118  THR118      0.2313
     78  O        -21.2580   72.7410  -52.1560 O.2   118  THR118     -0.2863
     79  CB       -21.6500   69.8290  -53.4180 C.3   118  THR118      0.1794
     80  OG1      -22.9670   70.2240  -53.0760 O.3   118  THR118     -0.2208
     81  CG2      -21.0210   69.0760  -52.2380 C.3   118  THR118      0.0378
     82  N        -15.4050   75.8580  -60.8620 N.3   171  GLN171     -0.1231
     83  CA       -14.8210   74.5520  -60.9880 C.3   171  GLN171      0.1698
     84  C        -14.6580   74.0380  -62.3870 C.2   171  GLN171      0.2592
     85  O        -13.5320   73.8910  -62.8600 O.2   171  GLN171     -0.2718
     86  CB       -15.6560   73.5100  -60.2220 C.3   171  GLN171      0.0381
     87  CG       -15.3170   72.0590  -60.5620 C.3   171  GLN171      0.0905
     88  CD       -13.8190   71.8930  -60.4470 C.2   171  GLN171      0.2608
     89  OE1      -13.2200   72.3130  -59.4590 O.2   171  GLN171     -0.2717
     90  NE2      -13.1970   71.2820  -61.4900 N.am  171  GLN171     -0.0878
     91  N        -15.7830   73.8660  -63.1190 N.am  172  TYR172     -0.1976
     92  CA       -15.7510   73.1220  -64.3530 C.3   172  TYR172      0.1639
     93  C        -15.0300   73.9090  -65.3940 C.2   172  TYR172      0.2290
     94  O        -15.4460   74.9990  -65.7840 O.2   172  TYR172     -0.2864
     95  CB       -17.1500   72.7830  -64.8930 C.3   172  TYR172      0.0560
     96  CG       -17.7910   71.8630  -63.9090 C.ar  172  TYR172     -0.0198
     97  CD1      -17.5190   70.5150  -63.9360 C.ar  172  TYR172     -0.0009
     98  CD2      -18.6630   72.3480  -62.9610 C.ar  172  TYR172     -0.0009
     99  CE1      -18.1060   69.6630  -63.0300 C.ar  172  TYR172      0.0417
    100  CE2      -19.2540   71.5010  -62.0530 C.ar  172  TYR172      0.0417
    101  CZ       -18.9750   70.1560  -62.0870 C.ar  172  TYR172      0.1957
    102  OH       -19.5790   69.2820  -61.1570 O.3   172  TYR172     -0.2866
    103  N        -10.0490   73.6620  -57.7380 N.3   247  GLU247     -0.1245
    104  CA        -9.1620   73.0390  -58.6980 C.3   247  GLU247      0.1567
    105  C         -8.3770   74.0100  -59.5580 C.2   247  GLU247      0.2260
    106  O         -8.5920   74.0690  -60.7660 O.2   247  GLU247     -0.2867
    107  CB        -9.8820   72.0440  -59.6280 C.3   247  GLU247      0.0388
    108  CG       -10.4390   70.8260  -58.8860 C.3   247  GLU247      0.1160
    109  CD       -11.1220   69.9180  -59.8990 C.2   247  GLU247      0.3649
    110  OE1      -10.8040   70.0400  -61.1120 O.co2 247  GLU247     -0.2457
    111  OE2      -11.9720   69.0910  -59.4730 O.co2 247  GLU247     -0.2457
    112  N         -6.3200   68.2470  -56.9400 N.3   279  HIS279     -0.1241
    113  CA        -6.0160   66.9060  -57.3670 C.3   279  HIS279      0.1621
    114  C         -4.5350   66.6470  -57.3490 C.2   279  HIS279      0.2264
    115  O         -4.0960   65.5180  -57.5720 O.2   279  HIS279     -0.2867
    116  CB        -6.5690   66.5800  -58.7620 C.3   279  HIS279      0.0745
    117  CG        -8.0650   66.4900  -58.7140 C.ar  279  HIS279      0.0817
    118  ND1       -8.7470   65.3750  -58.2840 N.ar  279  HIS279     -0.2268
    119  CD2       -9.0150   67.4170  -59.0120 C.ar  279  HIS279      0.1154
    120  CE1      -10.0690   65.6800  -58.3390 C.ar  279  HIS279      0.1986
    121  NE2      -10.2800   66.9090  -58.7740 N.ar  279  HIS279     -0.2212
    122  N        -20.0270   59.5380  -56.4700 N.3   299  SER299     -0.1217
    123  CA       -21.4010   59.7960  -56.7840 C.3   299  SER299      0.1889
    124  C        -22.3180   59.2090  -55.7480 C.2   299  SER299      0.2288
    125  O        -23.5210   59.4690  -55.7910 O.2   299  SER299     -0.2866
    126  CB       -21.8180   59.2300  -58.1530 C.3   299  SER299      0.2089
    127  OG       -23.1860   59.5220  -58.3980 O.3   299  SER299     -0.2183
@<TRIPOS>BOND
     1    94    93    2
     2    93    92    1
     3    95    92    1
     4    95    96    1
     5    92    91    1
     6    97    96   ar
     7    97    99   ar
     8    96    98   ar
     9    91    84   am
    10    99   101   ar
    11    98   100   ar
    12    85    84    2
    13    84    83    1
    14   101   100   ar
    15   101   102    1
    16    90    88   am
    17    43    41   am
    18   110   109   ar
    19    83    82    1
    20    83    86    1
    21   106   105    2
    22    87    88    1
    23    87    86    1
    24    88    89    2
    25    41    42    2
    26    41    40    1
    27   109   111   ar
    28   109   108    1
    29    40    37    1
    30   107   108    1
    31   107   104    1
    32   105   104    1
    33   119   121   ar
    34   119   117   ar
    35   121   120   ar
    36   116   117    1
    37   116   113    1
    38   117   118   ar
    39   104   103    1
    40   127   126    1
    41   120   118   ar
    42    37    38    1
    43    37    36    1
    44   126   123    1
    45    74    73    1
    46    38    39    2
    47    38    44   am
    48   115   114    2
    49    44    45    1
    50   113   114    1
    51   113   112    1
    52    45    46    1
    53    73    70    1
    54   123   122    1
    55   123   124    1
    56    68    67    1
    57    10     8   ar
    58    10    11   ar
    59     8     6   ar
    60   125   124    2
    61    46    47    2
    62    46    48   am
    63    70    69    1
    64    70    71    1
    65    18    17    1
    66    23    20    1
    67    23    24    1
    68    67    66    1
    69    17    14    1
    70    12    11    1
    71    11     9   ar
    72    20    19    1
    73    20    21    1
    74     6     5    1
    75     6     7   ar
    76     5     2    1
    77    69    62   am
    78    71    72    2
    79    71    75   am
    80    48    49    1
    81    29    30    1
    82    29    26    1
    83    25    21   am
    84    25    26    1
    85     4     3    2
    86    66    65    1
    87    75    76    1
    88     9     7   ar
    89    21    22    2
    90    30    31   ar
    91    30    32   ar
    92    64    65    1
    93    64    61    1
    94     3     2    1
    95     3    13   am
    96    26    27    1
    97    31    33   ar
    98    62    63    2
    99    62    61    1
   100     2     1    1
   101    76    79    1
   102    76    77    1
   103    14    13    1
   104    14    15    1
   105    56    57    1
   106    56    50   am
   107    32    34   ar
   108    49    50    1
   109    49    52    1
   110    79    80    1
   111    79    81    1
   112    60    61    1
   113    60    58   am
   114    15    16    2
   115    53    52    1
   116    53    55    1
   117    54    52    1
   118    57    58    1
   119    33    35   ar
   120    34    35   ar
   121    50    51    2
   122    58    59    2
   123    28    27    2
   124    77    78    2
