@<TRIPOS>MOLECULE
tmp/4crnA00.pdb
 222 215 0 0 0
SMALL
GASTEIGER

@<TRIPOS>ATOM
      1  N        -16.7890   53.7240  -65.8450 N.3    13  HIS13      -0.1226
      2  CA       -16.7850   52.4340  -65.1010 C.3    13  HIS13       0.1752
      3  C        -15.9480   52.5620  -63.8090 C.2    13  HIS13       0.2596
      4  O        -15.4680   53.6530  -63.5220 O.2    13  HIS13      -0.2718
      5  CB       -16.4010   51.3180  -66.0750 C.3    13  HIS13       0.0759
      6  CG       -16.5450   49.8650  -65.6430 C.ar   13  HIS13       0.0818
      7  ND1      -15.6530   48.9040  -66.0480 N.ar   13  HIS13      -0.2268
      8  CD2      -17.5070   49.2180  -64.8950 C.ar   13  HIS13       0.1154
      9  CE1      -16.0270   47.7290  -65.5340 C.ar   13  HIS13       0.1986
     10  NE2      -17.1940   47.8700  -64.8990 N.ar   13  HIS13      -0.2212
     11  N        -16.1420   51.6360  -62.8610 N.am   14  VAL14      -0.1966
     12  CA       -15.5460   51.8010  -61.5130 C.3    14  VAL14       0.1727
     13  C        -14.0170   51.7210  -61.5660 C.2    14  VAL14       0.2616
     14  O        -13.3310   52.5110  -60.9300 O.2    14  VAL14      -0.2715
     15  CB       -16.0550   50.7580  -60.4960 C.3    14  VAL14       0.0290
     16  CG1      -15.3700   51.0130  -59.1460 C.3    14  VAL14       0.0023
     17  CG2      -17.5800   50.7970  -60.3210 C.3    14  VAL14       0.0023
     18  N        -13.5260   50.7940  -62.3800 N.am   15  ASP15      -0.1957
     19  CA       -12.1250   50.5810  -62.7500 C.3    15  ASP15       0.1840
     20  C        -11.4510   51.7770  -63.4440 C.2    15  ASP15       0.2622
     21  O        -10.2310   51.8780  -63.4190 O.2    15  ASP15      -0.2715
     22  CB       -12.0750   49.3540  -63.6810 C.3    15  ASP15       0.1450
     23  CG       -12.7880   49.5500  -65.0330 C.2    15  ASP15       0.3671
     24  OD1      -13.6270   50.4870  -65.0880 O.co2  15  ASP15      -0.2456
     25  OD2      -13.0750   48.5190  -65.6720 O.co2  15  ASP15      -0.2456
     26  N        -12.2270   52.7110  -64.0070 N.am   16  ALA16      -0.1963
     27  CA       -11.7500   53.7290  -64.9470 C.3    16  ALA16       0.1728
     28  C        -10.7560   54.7670  -64.3780 C.2    16  ALA16       0.2617
     29  O        -10.6290   55.8550  -64.9430 O.2    16  ALA16      -0.2715
     30  CB       -12.9740   54.4270  -65.5690 C.3    16  ALA16       0.0334
     31  N        -10.3170   54.5850  -63.1290 N.am   17  GLY17      -0.1940
     32  CA        -9.5420   55.5490  -62.3600 C.3    17  GLY17       0.2014
     33  C        -10.2490   56.8920  -62.2040 C.2    17  GLY17       0.2639
     34  O         -9.6360   57.9450  -62.0690 O.2    17  GLY17      -0.2714
     35  N        -11.5830   56.9000  -62.2840 N.am   18  LYS18      -0.1963
     36  CA       -12.3160   58.1620  -62.3080 C.3    18  LYS18       0.1728
     37  C        -12.1460   58.9880  -61.0350 C.2    18  LYS18       0.2616
     38  O        -12.4560   60.1750  -61.0550 O.2    18  LYS18      -0.2715
     39  CB       -13.7680   57.9240  -62.7000 C.3    18  LYS18       0.0311
     40  CG       -14.7500   57.3820  -61.6530 C.3    18  LYS18       0.0038
     41  CD       -16.1080   58.0600  -61.8960 C.3    18  LYS18       0.0206
     42  CE       -16.2810   59.3570  -61.0900 C.3    18  LYS18       0.1093
     43  NZ       -15.1200   60.2900  -61.0830 N.3    18  LYS18      -0.1314
     44  N        -11.9310   58.3250  -59.9010 N.am   19  SER19      -0.1950
     45  CA       -11.6710   58.9790  -58.6190 C.3    19  SER19       0.1924
     46  C        -10.2850   59.6160  -58.5670 C.2    19  SER19       0.2314
     47  O        -10.2190   60.7790  -58.2070 O.2    19  SER19      -0.2863
     48  CB       -11.8440   57.9840  -57.4690 C.3    19  SER19       0.2116
     49  OG       -11.2900   56.7110  -57.7710 O.3    19  SER19      -0.2180
     50  N         -4.4830   47.8360  -53.7890 N.3    49  ARG49      -0.1231
     51  CA        -5.8610   48.2290  -53.7020 C.3    49  ARG49       0.1694
     52  C         -6.4620   49.0180  -54.8600 C.2    49  ARG49       0.2592
     53  O         -7.1990   48.4400  -55.6590 O.2    49  ARG49      -0.2718
     54  CB        -5.8140   48.9930  -52.3550 C.3    49  ARG49       0.0321
     55  CG        -6.9840   49.8120  -51.8220 C.3    49  ARG49       0.0489
     56  CD        -8.3900   49.3430  -52.1600 C.3    49  ARG49       0.2205
     57  NE        -8.6410   47.9050  -51.8730 N.pl3  49  ARG49      -0.0865
     58  CZ        -9.7640   47.3190  -52.3930 C.cat  49  ARG49       0.5346
     59  NH1      -10.6250   48.0490  -53.1640 N.pl3  49  ARG49       0.1354
     60  NH2      -10.0340   46.0090  -52.1460 N.pl3  49  ARG49       0.1354
     61  N         -6.1560   50.3360  -54.9980 N.am   50  GLN50      -0.1966
     62  CA        -6.5670   51.1820  -56.1060 C.3    50  GLN50       0.1733
     63  C         -5.4850   51.1010  -57.1370 C.2    50  GLN50       0.2617
     64  O         -5.6910   51.3270  -58.3330 O.2    50  GLN50      -0.2715
     65  CB        -6.8150   52.6630  -55.7450 C.3    50  GLN50       0.0408
     66  CG        -7.0560   53.6380  -56.9360 C.3    50  GLN50       0.0908
     67  CD        -8.1560   53.2080  -57.9360 C.2    50  GLN50       0.2608
     68  OE1       -8.9230   52.2640  -57.7200 O.2    50  GLN50      -0.2717
     69  NE2       -8.2260   53.9640  -59.0690 N.am   50  GLN50      -0.0878
     70  N         -4.3030   50.6470  -56.6690 N.am   51  GLY51      -0.1940
     71  CA        -3.1240   50.4030  -57.4680 C.3    51  GLY51       0.2014
     72  C         -2.6220   51.7350  -57.9990 C.2    51  GLY51       0.2639
     73  O         -3.1860   52.7890  -57.6860 O.2    51  GLY51      -0.2714
     74  N         -1.5110   51.6970  -58.7420 N.am   52  TRP52      -0.1959
     75  CA        -0.8080   52.9250  -59.0130 C.3    52  TRP52       0.1771
     76  C         -0.3770   53.0890  -60.5020 C.2    52  TRP52       0.2619
     77  O          0.4640   52.3750  -61.0090 O.2    52  TRP52      -0.2715
     78  CB         0.1580   53.1640  -57.8020 C.3    52  TRP52       0.0590
     79  CG         1.5250   52.5610  -57.7280 C.ar   52  TRP52       0.0006
     80  CD1        2.6720   53.2460  -57.5620 C.ar   52  TRP52       0.0946
     81  CD2        1.9110   51.1750  -57.4780 C.ar   52  TRP52       0.0152
     82  NE1        3.7440   52.3970  -57.4400 N.ar   52  TRP52      -0.2442
     83  CE2        3.3310   51.0940  -57.3340 C.ar   52  TRP52       0.0810
     84  CE3        1.1820   49.9990  -57.2250 C.ar   52  TRP52       0.0012
     85  CZ2        4.0090   49.9060  -57.0410 C.ar   52  TRP52       0.0191
     86  CZ3        1.8480   48.7980  -56.9030 C.ar   52  TRP52       0.0001
     87  CH2        3.2540   48.7440  -56.8310 C.ar   52  TRP52       0.0015
     88  N         -0.8840   54.2000  -61.1160 N.am   53  TYR53      -0.1974
     89  CA        -0.4410   55.0280  -62.2620 C.3    53  TYR53       0.1639
     90  C         -0.1830   56.6480  -62.1830 C.2    53  TYR53       0.2290
     91  O         -1.0960   57.3700  -62.5240 O.2    53  TYR53      -0.2864
     92  CB        -1.5400   54.5620  -63.2640 C.3    53  TYR53       0.0560
     93  CG        -3.0270   54.9410  -63.0510 C.ar   53  TYR53      -0.0198
     94  CD1       -3.4650   56.0020  -62.2400 C.ar   53  TYR53      -0.0009
     95  CD2       -3.9900   54.2860  -63.8520 C.ar   53  TYR53      -0.0009
     96  CE1       -4.6770   56.6240  -62.4620 C.ar   53  TYR53       0.0417
     97  CE2       -5.2910   54.8370  -63.9640 C.ar   53  TYR53       0.0417
     98  CZ        -5.5810   56.0740  -63.3580 C.ar   53  TYR53       0.1957
     99  OH        -6.7200   56.7330  -63.6070 O.3    53  TYR53      -0.2866
    100  N         -4.9830   57.8940  -54.6780 N.3    59  ASP59      -0.1239
    101  CA        -5.1970   56.4480  -54.8270 C.3    59  ASP59       0.1674
    102  C         -4.9390   55.6800  -53.5270 C.2    59  ASP59       0.2266
    103  O         -5.8830   55.0800  -53.0250 O.2    59  ASP59      -0.2867
    104  CB        -4.3600   55.8870  -55.9920 C.3    59  ASP59       0.1410
    105  CG        -4.8360   56.4210  -57.3610 C.2    59  ASP59       0.3668
    106  OD1       -5.6520   57.3720  -57.3650 O.co2  59  ASP59      -0.2456
    107  OD2       -4.3380   55.9660  -58.4130 O.co2  59  ASP59      -0.2456
    108  N         -7.8380   56.3390  -51.3860 N.3    62  LYS62      -0.1245
    109  CA        -8.8600   55.2700  -51.4090 C.3    62  LYS62       0.1561
    110  C         -8.5420   54.2090  -50.4620 C.2    62  LYS62       0.2260
    111  O         -9.4550   53.7430  -49.8160 O.2    62  LYS62      -0.2867
    112  CB        -8.9270   54.2490  -52.6180 C.3    62  LYS62       0.0271
    113  CG       -10.1640   53.2690  -52.5670 C.3    62  LYS62       0.0035
    114  CD       -10.0070   51.8890  -53.2230 C.3    62  LYS62       0.0206
    115  CE       -10.3540   51.5890  -54.6900 C.3    62  LYS62       0.1093
    116  NZ       -11.7270   51.9640  -55.1040 N.3    62  LYS62      -0.1314
    117  N        -15.2610   53.3960  -53.0570 N.3    70  THR70      -0.1203
    118  CA       -15.3780   54.7980  -53.1960 C.3    70  THR70       0.1994
    119  C        -14.0160   55.3330  -53.0530 C.2    70  THR70       0.2617
    120  O        -13.4520   54.9130  -52.0390 O.2    70  THR70      -0.2717
    121  CB       -16.1920   55.2980  -51.9980 C.3    70  THR70       0.1784
    122  OG1      -17.3420   54.5270  -51.6730 O.3    70  THR70      -0.2211
    123  CG2      -16.6980   56.6180  -52.4860 C.3    70  THR70       0.0376
    124  N        -13.4100   56.2160  -53.9700 N.am   71  ILE71      -0.1979
    125  CA       -12.1860   56.7640  -53.4830 C.3    71  ILE71       0.1595
    126  C        -12.3490   58.2210  -53.1310 C.2    71  ILE71       0.2287
    127  O        -11.9180   58.6280  -52.0490 O.2    71  ILE71      -0.2864
    128  CB       -11.1840   56.6410  -54.5860 C.3    71  ILE71       0.0276
    129  CG1      -11.1210   55.1950  -55.1380 C.3    71  ILE71       0.0022
    130  CG2       -9.8450   57.3530  -54.2580 C.3    71  ILE71       0.0022
    131  CD1      -10.1340   54.7990  -56.2240 C.3    71  ILE71       0.0001
    132  N        -18.3720   62.7740  -57.9490 N.3    89  ASP89      -0.1225
    133  CA       -17.5630   61.7280  -58.5850 C.3    89  ASP89       0.1805
    134  C        -18.2310   60.3530  -58.5040 C.2    89  ASP89       0.2598
    135  O        -18.2110   59.6660  -57.4830 O.2    89  ASP89      -0.2718
    136  CB       -16.0850   61.8140  -58.1070 C.3    89  ASP89       0.1424
    137  CG       -15.4440   60.5220  -57.5430 C.2    89  ASP89       0.3668
    138  OD1      -15.2160   59.6010  -58.3620 O.co2  89  ASP89      -0.2456
    139  OD2      -15.5610   60.2360  -56.3280 O.co2  89  ASP89      -0.2456
    140  N        -18.8610   59.8980  -59.5980 N.am   90  ALA90      -0.1966
    141  CA       -19.5770   58.6600  -59.5740 C.3    90  ALA90       0.1713
    142  C        -18.8050   57.4570  -59.0380 C.2    90  ALA90       0.2458
    143  O        -17.5830   57.3190  -59.1980 O.2    90  ALA90      -0.2730
    144  CB       -20.1780   58.2910  -60.9410 C.3    90  ALA90       0.0333
    145  N        -19.5740   56.5650  -58.4370 N.am   91  PRO91      -0.2716
    146  CA       -19.2290   55.2580  -58.0460 C.3    91  PRO91       0.1536
    147  C        -17.9370   54.7060  -58.3650 C.2    91  PRO91       0.2599
    148  O        -17.6280   54.4670  -59.5310 O.2    91  PRO91      -0.2715
    149  CB       -20.3680   54.3960  -58.4730 C.3    91  PRO91       0.0310
    150  CG       -21.5320   55.3250  -58.6220 C.3    91  PRO91       0.0237
    151  CD       -21.0000   56.6640  -58.2090 C.3    91  PRO91       0.0939
    152  N        -17.2090   54.4160  -57.2780 N.am   92  GLY92      -0.1955
    153  CA       -16.5120   53.2220  -57.3760 C.3    92  GLY92       0.1869
    154  C        -17.3730   52.0490  -56.9420 C.2    92  GLY92       0.2309
    155  O        -16.9550   51.2630  -56.1200 O.2    92  GLY92      -0.2863
    156  N        -20.1280   52.8610  -55.5780 N.3    94  LYS94      -0.1245
    157  CA       -20.7750   53.7140  -54.5910 C.3    94  LYS94       0.1561
    158  C        -22.1760   54.0160  -54.9680 C.2    94  LYS94       0.2260
    159  O        -22.7570   53.4800  -55.9100 O.2    94  LYS94      -0.2867
    160  CB       -20.3500   55.2050  -54.5960 C.3    94  LYS94       0.0271
    161  CG       -18.9190   55.4830  -54.6660 C.3    94  LYS94       0.0035
    162  CD       -18.7320   56.9450  -55.1230 C.3    94  LYS94       0.0206
    163  CE       -17.3980   57.7010  -55.4540 C.3    94  LYS94       0.1093
    164  NZ       -16.4980   57.1470  -56.4450 N.3    94  LYS94      -0.1314
    165  N        -11.5690   53.8330  -70.2500 N.3   115  SER115     -0.1217
    166  CA       -10.1770   53.4400  -69.9460 C.3   115  SER115      0.1889
    167  C         -9.5880   52.4200  -70.9140 C.2   115  SER115      0.2288
    168  O         -9.1200   51.3700  -70.5160 O.2   115  SER115     -0.2866
    169  CB       -10.0730   53.0110  -68.4810 C.3   115  SER115      0.2089
    170  OG       -10.4350   54.1440  -67.7170 O.3   115  SER115     -0.2183
    171  N         -9.2140   46.3420  -69.5380 N.3   120  GLU120     -0.1196
    172  CA       -10.1820   47.4290  -69.3800 C.3   120  GLU120      0.1783
    173  C        -11.2340   47.4880  -70.5050 C.2   120  GLU120      0.2306
    174  O        -12.3350   47.9540  -70.2540 O.2   120  GLU120     -0.2863
    175  CB        -9.4760   48.7800  -69.3910 C.2   120  GLU120      0.0071
    176  CG        -8.4750   49.1780  -68.2970 C.2   120  GLU120      0.0834
    177  CD        -8.3480   48.2180  -67.1210 C.2   120  GLU120      0.3877
    178  OE1       -7.3690   47.4360  -67.2240 O.co2 120  GLU120     -0.2406
    179  OE2       -8.7980   48.6540  -66.0420 O.co2 120  GLU120     -0.2406
    180  N         -9.3280   58.1440  -70.5190 N.3   151  ASN151     -0.1225
    181  CA        -8.2810   57.8670  -69.5460 C.3   151  ASN151      0.1785
    182  C         -7.4250   56.6610  -69.9620 C.2   151  ASN151      0.2597
    183  O         -7.8770   55.8370  -70.7620 O.2   151  ASN151     -0.2718
    184  CB        -8.9610   57.6410  -68.1850 C.3   151  ASN151      0.1169
    185  CG        -7.9900   57.7030  -67.0220 C.2   151  ASN151      0.2627
    186  OD1       -6.9110   58.2500  -67.1220 O.2   151  ASN151     -0.2716
    187  ND2       -8.2850   57.0530  -65.9330 N.am  151  ASN151     -0.0877
    188  N         -6.3730   56.3970  -69.1720 N.am  152  LYS152     -0.1980
    189  CA        -5.5310   55.1940  -69.2560 C.3   152  LYS152      0.1596
    190  C         -4.8210   55.1050  -70.6160 C.2   152  LYS152      0.2287
    191  O         -4.5420   54.0240  -71.1170 O.2   152  LYS152     -0.2864
    192  CB        -6.4050   53.9670  -68.9020 C.3   152  LYS152      0.0298
    193  CG        -5.6530   52.7490  -68.3660 C.3   152  LYS152      0.0038
    194  CD        -5.2230   52.9290  -66.9080 C.3   152  LYS152      0.0206
    195  CE        -4.6560   51.6140  -66.3670 C.3   152  LYS152      0.1093
    196  NZ        -5.8860   50.7880  -65.9740 N.3   152  LYS152     -0.1314
    197  N         -1.8240   56.0300  -71.3550 N.3   154  ASP154     -0.1225
    198  CA        -0.3580   55.9600  -71.2050 C.3   154  ASP154      0.1805
    199  C          0.1840   54.6000  -70.6710 C.2   154  ASP154      0.2597
    200  O          0.8470   53.9070  -71.4520 O.2   154  ASP154     -0.2718
    201  CB         0.1230   57.1800  -70.3990 C.3   154  ASP154      0.1424
    202  CG        -0.0900   57.0150  -68.8960 C.2   154  ASP154      0.3668
    203  OD1       -1.2900   56.9540  -68.5260 O.co2 154  ASP154     -0.2456
    204  OD2        0.8220   56.4320  -68.2880 O.co2 154  ASP154     -0.2456
    205  N         -0.3470   54.0750  -69.5500 N.am  155  ASP155     -0.1974
    206  CA         0.0700   52.7880  -68.9270 C.3   155  ASP155      0.1709
    207  C          0.0910   51.5520  -69.8750 C.2   155  ASP155      0.2293
    208  O          1.1560   51.0030  -70.1610 O.2   155  ASP155     -0.2864
    209  CB        -0.7690   52.5340  -67.6370 C.3   155  ASP155      0.1436
    210  CG        -0.9600   51.0440  -67.2670 C.2   155  ASP155      0.3671
    211  OD1       -0.1300   50.3530  -67.1160 O.co2 155  ASP155     -0.2456
    212  OD2       -2.1200   50.5640  -67.3460 O.co2 155  ASP155     -0.2456
    213  N         -4.4880   61.3590  -69.5150 N.3   193  SER193     -0.1202
    214  CA        -4.2990   60.4550  -68.4080 C.3   193  SER193      0.2020
    215  C         -4.6660   61.1780  -67.1430 C.2   193  SER193      0.2619
    216  O         -4.1810   62.2660  -66.8530 O.2   193  SER193     -0.2717
    217  CB        -2.8930   59.8700  -68.3910 C.3   193  SER193      0.2103
    218  OG        -3.0420   58.6170  -67.7370 O.3   193  SER193     -0.2182
    219  N         -5.4500   60.4930  -66.3210 N.am  194  GLY194     -0.1956
    220  CA        -5.3230   60.6640  -64.8860 C.3   194  GLY194      0.1869
    221  C         -3.8490   60.6830  -64.4760 C.2   194  GLY194      0.2309
    222  O         -3.5040   61.6230  -63.7710 O.2   194  GLY194     -0.2863
@<TRIPOS>BOND
     1   200   199    2
     2   197   198    1
     3   198   199    1
     4   198   201    1
     5   191   190    2
     6   167   168    2
     7   167   166    1
     8   183   182    2
     9   199   205   am
    10   190   189    1
    11   180   181    1
    12   173   174    2
    13   173   172    1
    14   201   202    1
    15   165   166    1
    16   208   207    2
    17   182   181    1
    18   182   188   am
    19   166   169    1
    20   207   206    1
    21   205   206    1
    22   181   184    1
    23   171   172    1
    24   213   214    1
    25   175   172    1
    26   175   176    2
    27   189   188    1
    28   189   192    1
    29   206   209    1
    30   192   193    1
    31   202   203   ar
    32   202   204   ar
    33   169   170    1
    34   214   217    1
    35   214   215    1
    36   217   218    1
    37   193   194    1
    38   176   177    1
    39   184   185    1
    40   209   210    1
    41   212   210   ar
    42   210   211   ar
    43   178   177   ar
    44   215   216    2
    45   215   219   am
    46   186   185    2
    47   177   179   ar
    48   185   187   am
    49   194   195    1
    50   195   196    1
    51   219   220    1
    52     5     6    1
    53     5     2    1
    54     7     6   ar
    55     7     9   ar
    56     1     2    1
    57    25    23   ar
    58     6     8   ar
    59    30    27    1
    60     9    10   ar
    61     2     3    1
    62    24    23   ar
    63    23    22    1
    64    27    28    1
    65    27    26    1
    66    29    28    2
    67    10     8   ar
    68   220   221    1
    69   221   222    2
    70    28    31   am
    71    26    20   am
    72    97    95   ar
    73    97    98   ar
    74    95    93   ar
    75     3     4    2
    76     3    11   am
    77    22    19    1
    78    99    98    1
    79    20    21    2
    80    20    19    1
    81    98    96   ar
    82    92    93    1
    83    92    89    1
    84    31    32    1
    85    93    94   ar
    86    11    12    1
    87    19    18    1
    88    39    36    1
    89    39    40    1
    90    91    90    2
    91    96    94   ar
    92    18    13   am
    93    32    33    1
    94    36    35    1
    95    36    37    1
    96    35    33   am
    97    89    90    1
    98    89    88    1
    99    33    34    2
   100    41    40    1
   101    41    42    1
   102    13    12    1
   103    13    14    2
   104    12    15    1
   105    88    76   am
   106    42    43    1
   107    38    37    2
   108    37    44   am
   109    77    76    2
   110   144   141    1
   111    76    75    1
   112    15    17    1
   113    15    16    1
   114    44    45    1
   115   140   141    1
   116   140   134   am
   117   141   142    1
   118   148   147    2
   119   143   142    2
   120    69    67   am
   121   142   145   am
   122    75    74    1
   123    75    78    1
   124    74    72   am
   125   150   149    1
   126   150   151    1
   127    45    46    1
   128    45    48    1
   129   133   134    1
   130   133   136    1
   131   133   132    1
   132    46    47    2
   133   134   135    2
   134   149   146    1
   135   145   151    1
   136   145   146    1
   137   107   105   ar
   138   147   146    1
   139   147   152   am
   140   138   137   ar
   141    64    63    2
   142   136   137    1
   143    72    73    2
   144    72    71    1
   145    67    68    2
   146    67    66    1
   147    78    79    1
   148    49    48    1
   149    79    80   ar
   150    79    81   ar
   151    80    82   ar
   152   137   139   ar
   153    81    83   ar
   154    81    84   ar
   155    71    70    1
   156    82    83   ar
   157   153   152    1
   158   153   154    1
   159   106   105   ar
   160   105   104    1
   161    83    85   ar
   162    84    86   ar
   163    63    70   am
   164    63    62    1
   165    85    87   ar
   166   154   155    2
   167    66    65    1
   168    86    87   ar
   169   164   163    1
   170   131   129    1
   171    62    65    1
   172    62    61    1
   173   104   101    1
   174   159   158    2
   175    53    52    2
   176   156   157    1
   177   163   162    1
   178   129   128    1
   179   162   161    1
   180   116   115    1
   181    61    52   am
   182   158   157    1
   183    52    51    1
   184   101   100    1
   185   101   102    1
   186   115   114    1
   187   161   160    1
   188   160   157    1
   189   128   130    1
   190   128   125    1
   191   124   125    1
   192   124   119   am
   193    50    51    1
   194    51    54    1
   195   102   103    2
   196   125   126    1
   197   114   113    1
   198   118   117    1
   199   118   119    1
   200   118   121    1
   201    59    58    1
   202   126   127    2
   203   119   120    2
   204   112   113    1
   205   112   109    1
   206   123   121    1
   207    58    60    1
   208    58    57    2
   209    54    55    1
   210    56    57    1
   211    56    55    1
   212   121   122    1
   213   109   108    1
   214   109   110    1
   215   110   111    2
