@<TRIPOS>MOLECULE
tmp/4crtB01.pdb
 203 199 0 0 0
SMALL
GASTEIGER

@<TRIPOS>ATOM
      1  N         24.5550  118.5230   15.9750 N.3    55  GLY55      -0.1210
      2  CA        24.6640  119.9600   15.7560 C.3    55  GLY55       0.1956
      3  C         23.3060  120.6120   15.6410 C.2    55  GLY55       0.2612
      4  O         22.3510  120.2030   16.3310 O.2    55  GLY55      -0.2717
      5  N         23.1910  121.5710   14.7280 N.am   56  GLY56      -0.1942
      6  CA        21.9030  122.2530   14.5120 C.3    56  GLY56       0.2014
      7  C         20.8570  121.2320   14.1120 C.2    56  GLY56       0.2640
      8  O         21.1670  120.2900   13.3280 O.2    56  GLY56      -0.2714
      9  N         19.6320  121.4380   14.6210 N.am   57  SER57      -0.1935
     10  CA        18.5620  120.4450   14.5010 C.3    57  SER57       0.2055
     11  C         17.1840  121.0920   14.2710 C.2    57  SER57       0.2643
     12  O         16.4180  120.6590   13.3920 O.2    57  SER57      -0.2714
     13  CB        18.5440  119.5200   15.7460 C.3    57  SER57       0.2130
     14  OG        17.6480  118.4230   15.5840 O.3    57  SER57      -0.2179
     15  N         16.8750  122.1370   15.0280 N.am   58  TYR58      -0.1973
     16  CA        15.4900  122.6860   15.0780 C.3    58  TYR58       0.1639
     17  C         15.1780  123.6530   13.9510 C.2    58  TYR58       0.2290
     18  O         16.0180  124.4840   13.5590 O.2    58  TYR58      -0.2864
     19  CB        15.1810  123.3790   16.4210 C.3    58  TYR58       0.0560
     20  CG        15.3760  122.4220   17.5570 C.ar   58  TYR58      -0.0198
     21  CD1       14.4700  121.3600   17.7660 C.ar   58  TYR58      -0.0009
     22  CD2       16.5060  122.4920   18.3500 C.ar   58  TYR58      -0.0009
     23  CE1       14.6800  120.4150   18.7400 C.ar   58  TYR58       0.0417
     24  CE2       16.7160  121.5590   19.3540 C.ar   58  TYR58       0.0417
     25  CZ        15.8080  120.5200   19.5420 C.ar   58  TYR58       0.1957
     26  OH        16.0280  119.5710   20.5090 O.3    58  TYR58      -0.2866
     27  N          4.6470  129.2920   26.6000 N.3   100  PRO100     -0.2102
     28  CA         6.0970  129.4970   26.3890 C.3   100  PRO100      0.1504
     29  C          6.9010  130.0260   27.6040 C.2   100  PRO100      0.2576
     30  O          8.1060  129.7240   27.7220 O.2   100  PRO100     -0.2718
     31  CB         6.1450  130.5160   25.2370 C.3   100  PRO100      0.0282
     32  CG         4.7870  131.1560   25.2070 C.3   100  PRO100      0.0208
     33  CD         3.8340  130.0870   25.6550 C.3   100  PRO100      0.0893
     34  N          6.2460  130.8190   28.4630 N.am  101  PHE101     -0.1963
     35  CA         6.8810  131.4910   29.6140 C.3   101  PHE101      0.1756
     36  C          6.4930  130.8630   30.9450 C.2   101  PHE101      0.2461
     37  O          5.3030  130.6700   31.2020 O.2   101  PHE101     -0.2730
     38  CB         6.4610  132.9670   29.6940 C.3   101  PHE101      0.0574
     39  CG         6.9460  133.8130   28.5560 C.ar  101  PHE101     -0.0200
     40  CD1        8.2180  134.3730   28.5800 C.ar  101  PHE101     -0.0042
     41  CD2        6.1210  134.0670   27.4670 C.ar  101  PHE101     -0.0042
     42  CE1        8.6530  135.1690   27.5310 C.ar  101  PHE101     -0.0003
     43  CE2        6.5510  134.8630   26.4200 C.ar  101  PHE101     -0.0003
     44  CZ         7.8220  135.4140   26.4530 C.ar  101  PHE101     -0.0000
     45  N          7.4870  130.5830   31.8150 N.am  102  PRO102     -0.2727
     46  CA         7.1740  130.0620   33.1550 C.3   102  PRO102      0.1402
     47  C          6.4530  131.1300   33.9630 C.2   102  PRO102      0.2269
     48  O          6.9500  132.2540   34.0300 O.2   102  PRO102     -0.2865
     49  CB         8.5560  129.7840   33.7740 C.3   102  PRO102      0.0296
     50  CG         9.5530  129.9290   32.6650 C.3   102  PRO102      0.0237
     51  CD         8.9320  130.8110   31.6290 C.3   102  PRO102      0.0939
     52  N         10.9280  141.0840   29.2430 N.3   117  TRP117     -0.1241
     53  CA        10.6980  140.5510   27.9060 C.3   117  TRP117      0.1605
     54  C         10.2080  141.6520   26.9870 C.2   117  TRP117      0.2264
     55  O         10.6490  141.7510   25.8310 O.2   117  TRP117     -0.2867
     56  CB         9.6450  139.4180   27.9460 C.3   117  TRP117      0.0550
     57  CG        10.1200  138.1830   28.7190 C.ar  117  TRP117      0.0003
     58  CD1        9.6990  137.7830   29.9670 C.ar  117  TRP117      0.0946
     59  CD2       11.1330  137.2340   28.3130 C.ar  117  TRP117      0.0152
     60  NE1       10.3850  136.6360   30.3580 N.ar  117  TRP117     -0.2442
     61  CE2       11.2680  136.2820   29.3640 C.ar  117  TRP117      0.0810
     62  CE3       11.9220  137.0880   27.1630 C.ar  117  TRP117      0.0012
     63  CZ2       12.1370  135.1770   29.2780 C.ar  117  TRP117      0.0191
     64  CZ3       12.8120  135.9950   27.0860 C.ar  117  TRP117      0.0001
     65  CH2       12.9110  135.0630   28.1420 C.ar  117  TRP117      0.0015
     66  N         16.4500  134.3890   35.1830 N.3   162  LEU162     -0.1245
     67  CA        15.8040  133.9030   33.9770 C.3   162  LEU162      0.1561
     68  C         16.3400  134.6220   32.7320 C.2   162  LEU162      0.2260
     69  O         16.5680  133.9800   31.7130 O.2   162  LEU162     -0.2867
     70  CB        14.2810  133.9950   34.0580 C.3   162  LEU162      0.0270
     71  CG        13.5420  133.2970   32.9030 C.3   162  LEU162      0.0019
     72  CD1       13.8690  131.8020   32.8760 C.3   162  LEU162      0.0001
     73  CD2       12.0290  133.5010   33.0290 C.3   162  LEU162      0.0001
     74  N         19.6970  133.0790   31.9640 N.3   165  LEU165     -0.1231
     75  CA        19.5110  131.7660   31.3690 C.3   165  LEU165      0.1693
     76  C         19.1550  131.9580   29.8760 C.2   165  LEU165      0.2592
     77  O         19.7200  131.2850   29.0220 O.2   165  LEU165     -0.2718
     78  CB        18.4010  130.9870   32.1070 C.3   165  LEU165      0.0284
     79  CG        18.1750  129.5110   31.7120 C.3   165  LEU165      0.0019
     80  CD1       17.5570  128.7310   32.8660 C.3   165  LEU165      0.0001
     81  CD2       17.3060  129.4150   30.4520 C.3   165  LEU165      0.0001
     82  N         18.2150  132.8670   29.6010 N.am  166  PHE166     -0.1976
     83  CA        17.7920  133.2240   28.2390 C.3   166  PHE166      0.1639
     84  C         18.9750  133.5940   27.3470 C.2   166  PHE166      0.2290
     85  O         19.1440  133.0540   26.2370 O.2   166  PHE166     -0.2864
     86  CB        16.7510  134.3600   28.3110 C.3   166  PHE166      0.0560
     87  CG        16.3930  134.9840   26.9670 C.ar  166  PHE166     -0.0200
     88  CD1       15.8090  134.2310   25.9500 C.ar  166  PHE166     -0.0042
     89  CD2       16.5640  136.3520   26.7550 C.ar  166  PHE166     -0.0042
     90  CE1       15.4590  134.8110   24.7180 C.ar  166  PHE166     -0.0003
     91  CE2       16.2100  136.9430   25.5260 C.ar  166  PHE166     -0.0003
     92  CZ        15.6720  136.1690   24.5060 C.ar  166  PHE166     -0.0000
     93  N         21.3410  130.4850   26.7770 N.3   169  LEU169     -0.1231
     94  CA        20.7970  129.4700   25.8930 C.3   169  LEU169      0.1693
     95  C         20.7450  129.9530   24.4330 C.2   169  LEU169      0.2592
     96  O         20.9950  129.1840   23.5390 O.2   169  LEU169     -0.2718
     97  CB        19.3970  129.1350   26.3810 C.3   169  LEU169      0.0284
     98  CG        18.6000  128.0660   25.6590 C.3   169  LEU169      0.0019
     99  CD1       19.4190  126.7710   25.5740 C.3   169  LEU169      0.0001
    100  CD2       17.3040  127.9100   26.4430 C.3   169  LEU169      0.0001
    101  N         20.3970  131.2210   24.2090 N.am  170  CYS170     -0.1970
    102  CA        20.2570  131.7470   22.8620 C.3   170  CYS170      0.1712
    103  C         21.5760  131.8340   22.1350 C.2   170  CYS170      0.2296
    104  O         21.6000  131.6330   20.9290 O.2   170  CYS170     -0.2864
    105  CB        19.7180  133.1780   22.8780 C.3   170  CYS170      0.0983
    106  SG        17.9580  133.3130   23.1080 S.3   170  CYS170     -0.0798
    107  N         11.6450  133.4140   19.2120 N.3   196  ILE196     -0.1231
    108  CA        12.9070  132.7150   19.4920 C.3   196  ILE196      0.1692
    109  C         12.8080  131.6310   20.5850 C.2   196  ILE196      0.2591
    110  O         13.5030  130.6070   20.5120 O.2   196  ILE196     -0.2718
    111  CB        14.0820  133.7370   19.7140 C.3   196  ILE196      0.0266
    112  CG1       15.4180  133.1620   19.2760 C.3   196  ILE196      0.0019
    113  CG2       14.1170  134.2870   21.1390 C.3   196  ILE196      0.0020
    114  CD1       16.5870  134.1550   19.4230 C.3   196  ILE196      0.0001
    115  N         11.9620  131.8340   21.5930 N.am  197  ILE197     -0.1980
    116  CA        11.9710  130.9360   22.7450 C.3   197  ILE197      0.1595
    117  C         10.9580  129.8200   22.6060 C.2   197  ILE197      0.2287
    118  O         10.9810  128.8650   23.3810 O.2   197  ILE197     -0.2864
    119  CB        11.6750  131.6720   24.0760 C.3   197  ILE197      0.0276
    120  CG1       10.1960  132.1290   24.1170 C.3   197  ILE197      0.0022
    121  CG2       12.6740  132.8070   24.2670 C.3   197  ILE197      0.0022
    122  CD1        9.7370  132.6080   25.4720 C.3   197  ILE197      0.0001
    123  N         11.8920  126.2550   17.8350 N.3   204  GLN204     -0.1245
    124  CA        12.0730  124.8390   18.1760 C.3   204  GLN204      0.1566
    125  C         10.8690  123.9680   17.8040 C.2   204  GLN204      0.2260
    126  O         10.7520  122.8660   18.3210 O.2   204  GLN204     -0.2867
    127  CB        12.3790  124.6740   19.6730 C.3   204  GLN204      0.0367
    128  CG        13.7450  125.2240   20.0760 C.3   204  GLN204      0.0905
    129  CD        13.8980  126.7420   19.8570 C.2   204  GLN204      0.2608
    130  OE1       14.5880  127.1810   18.9190 O.2   204  GLN204     -0.2717
    131  NE2       13.2900  127.5440   20.7400 N.am  204  GLN204     -0.0878
    132  N         26.4000  119.5160   23.1840 N.3   294  LYS294     -0.1245
    133  CA        25.0680  118.9720   23.0020 C.3   294  LYS294      0.1561
    134  C         25.0490  117.5050   23.4570 C.2   294  LYS294      0.2260
    135  O         25.9090  116.7080   23.0590 O.2   294  LYS294     -0.2867
    136  CB        24.6180  119.1220   21.5250 C.3   294  LYS294      0.0271
    137  CG        23.1540  118.7140   21.3310 C.3   294  LYS294      0.0035
    138  CD        22.6580  119.0770   19.9340 C.3   294  LYS294      0.0206
    139  CE        21.2230  118.6630   19.8050 C.3   294  LYS294      0.1093
    140  NZ        20.5430  119.0530   18.5630 N.3   294  LYS294     -0.1314
    141  N         13.3210  123.7850   32.1740 N.3   314  ILE314     -0.1245
    142  CA        14.0860  125.0380   32.3200 C.3   314  ILE314      0.1561
    143  C         14.6180  125.0470   33.7360 C.2   314  ILE314      0.2260
    144  O         13.8650  125.0440   34.6920 O.2   314  ILE314     -0.2867
    145  CB        13.1650  126.2410   32.0500 C.3   314  ILE314      0.0252
    146  CG1       12.6910  126.1890   30.6010 C.3   314  ILE314      0.0019
    147  CG2       13.8670  127.5690   32.3370 C.3   314  ILE314      0.0019
    148  CD1       11.2590  126.6240   30.4650 C.3   314  ILE314      0.0001
    149  N         18.6290  123.7520   30.0690 N.3   324  TYR324     -0.1241
    150  CA        17.4770  123.5920   29.1810 C.3   324  TYR324      0.1605
    151  C         17.4730  122.2480   28.4870 C.2   324  TYR324      0.2264
    152  O         18.4930  121.7980   28.0020 O.2   324  TYR324     -0.2867
    153  CB        17.4930  124.6950   28.1350 C.3   324  TYR324      0.0534
    154  CG        16.2210  124.7740   27.3150 C.ar  324  TYR324     -0.0201
    155  CD1       15.0690  125.3140   27.8660 C.ar  324  TYR324     -0.0009
    156  CD2       16.2000  124.3660   25.9750 C.ar  324  TYR324     -0.0009
    157  CE1       13.9040  125.4390   27.1290 C.ar  324  TYR324      0.0417
    158  CE2       15.0300  124.4890   25.2080 C.ar  324  TYR324      0.0417
    159  CZ        13.8910  125.0160   25.7960 C.ar  324  TYR324      0.1957
    160  OH        12.7330  125.1580   25.0610 O.3   324  TYR324     -0.2866
    161  N         14.9870  119.4490   25.8560 N.3   326  LEU326     -0.1245
    162  CA        13.7770  119.1010   25.1170 C.3   326  LEU326      0.1561
    163  C         13.6940  117.5920   24.8960 C.2   326  LEU326      0.2260
    164  O         14.6980  116.8760   24.8590 O.2   326  LEU326     -0.2867
    165  CB        13.7550  119.8200   23.7530 C.3   326  LEU326      0.0270
    166  CG        13.6230  121.3550   23.7010 C.3   326  LEU326      0.0019
    167  CD1       14.0510  121.8620   22.3190 C.3   326  LEU326      0.0001
    168  CD2       12.1980  121.8040   24.0270 C.3   326  LEU326      0.0001
    169  N         21.5810  120.9720   26.6010 N.3   341  PHE341     -0.1241
    170  CA        22.7600  121.7710   26.2150 C.3   341  PHE341      0.1605
    171  C         23.5550  122.1470   27.4500 C.2   341  PHE341      0.2264
    172  O         22.9640  122.6730   28.4110 O.2   341  PHE341     -0.2867
    173  CB        22.3660  123.0990   25.5410 C.3   341  PHE341      0.0534
    174  CG        21.7810  122.9630   24.1610 C.ar  341  PHE341     -0.0203
    175  CD1       22.5380  122.4570   23.1140 C.ar  341  PHE341     -0.0042
    176  CD2       20.4770  123.4020   23.9070 C.ar  341  PHE341     -0.0042
    177  CE1       21.9930  122.3160   21.8330 C.ar  341  PHE341     -0.0003
    178  CE2       19.9370  123.2820   22.6320 C.ar  341  PHE341     -0.0003
    179  CZ        20.6930  122.7390   21.6030 C.ar  341  PHE341     -0.0000
    180  N         26.4620  127.9780   19.0320 N.3   396  TYR396     -0.1241
    181  CA        25.8770  127.7810   17.6970 C.3   396  TYR396      0.1605
    182  C         26.4670  128.7220   16.6740 C.2   396  TYR396      0.2264
    183  O         26.4800  128.4120   15.4630 O.2   396  TYR396     -0.2867
    184  CB        24.3650  128.0180   17.7170 C.3   396  TYR396      0.0534
    185  CG        23.7000  127.6700   19.0360 C.ar  396  TYR396     -0.0201
    186  CD1       23.8650  126.4100   19.6240 C.ar  396  TYR396     -0.0009
    187  CD2       22.8810  128.6030   19.6840 C.ar  396  TYR396     -0.0009
    188  CE1       23.2620  126.1070   20.8350 C.ar  396  TYR396      0.0417
    189  CE2       22.2740  128.3080   20.8830 C.ar  396  TYR396      0.0417
    190  CZ        22.4640  127.0630   21.4610 C.ar  396  TYR396      0.1957
    191  OH        21.8420  126.7690   22.6640 O.3   396  TYR396     -0.2866
    192  N         21.2770  130.5420   12.6210 N.3   433  TYR433     -0.1241
    193  CA        20.4910  129.3080   12.4000 C.3   433  TYR433      0.1605
    194  C         20.7270  128.7630   10.9750 C.2   433  TYR433      0.2264
    195  O         21.3090  129.4310   10.1020 O.2   433  TYR433     -0.2867
    196  CB        18.9880  129.6080   12.5520 C.3   433  TYR433      0.0534
    197  CG        18.5780  129.9820   13.9600 C.ar  433  TYR433     -0.0201
    198  CD1       18.9620  131.2070   14.5290 C.ar  433  TYR433     -0.0009
    199  CD2       17.8170  129.1170   14.7180 C.ar  433  TYR433     -0.0009
    200  CE1       18.6060  131.5270   15.8420 C.ar  433  TYR433      0.0417
    201  CE2       17.4430  129.4260   16.0060 C.ar  433  TYR433      0.0417
    202  CZ        17.8220  130.6380   16.5600 C.ar  433  TYR433      0.1957
    203  OH        17.3900  130.9250   17.8320 O.3   433  TYR433     -0.2866
@<TRIPOS>BOND
     1   195   194    2
     2   194   193    1
     3   193   196    1
     4   193   192    1
     5   196   197    1
     6     8     7    2
     7    12    11    2
     8    18    17    2
     9    17    16    1
    10   197   198   ar
    11   197   199   ar
    12     7     6    1
    13     7     9   am
    14    11    10    1
    15    11    15   am
    16    10     9    1
    17    10    13    1
    18     6     5    1
    19   198   200   ar
    20   199   201   ar
    21     5     3   am
    22    15    16    1
    23    16    19    1
    24   183   182    2
    25    14    13    1
    26     3     2    1
    27     3     4    2
    28     2     1    1
    29   200   202   ar
    30   201   202   ar
    31    19    20    1
    32   202   203    1
    33   182   181    1
    34    20    21   ar
    35    20    22   ar
    36   181   184    1
    37   181   180    1
    38   184   185    1
    39    21    23   ar
    40   125   124    1
    41   125   126    2
    42   123   124    1
    43   124   127    1
    44    22    24   ar
    45   140   139    1
    46    23    25   ar
    47   130   129    2
    48   185   186   ar
    49   185   187   ar
    50   107   108    1
    51   112   114    1
    52   112   111    1
    53    24    25   ar
    54   108   111    1
    55   108   109    1
    56    25    26    1
    57   186   188   ar
    58   127   128    1
    59   187   189   ar
    60   111   113    1
    61   139   138    1
    62   129   128    1
    63   129   131   am
    64   138   137    1
    65   110   109    2
    66   109   115   am
    67   188   190   ar
    68   189   190   ar
    69   104   103    2
    70   137   136    1
    71   190   191    1
    72   136   133    1
    73   115   116    1
    74   179   177   ar
    75   179   178   ar
    76   177   175   ar
    77   103   102    1
    78   167   166    1
    79   117   116    1
    80   117   118    2
    81   178   176   ar
    82   116   119    1
    83   102   105    1
    84   102   101    1
    85   105   106    1
    86   133   132    1
    87   133   134    1
    88   135   134    2
    89   175   174   ar
    90    96    95    2
    91   166   165    1
    92   166   168    1
    93   165   162    1
    94   176   174   ar
    95   119   120    1
    96   119   121    1
    97   120   122    1
    98   174   173    1
    99   101    95   am
   100    95    94    1
   101    92    90   ar
   102    92    91   ar
   103    90    88   ar
   104   164   163    2
   105   163   162    1
   106   160   159    1
   107   162   161    1
   108    32    31    1
   109    32    33    1
   110   158   159   ar
   111   158   156   ar
   112    31    28    1
   113    91    89   ar
   114   173   170    1
   115    99    98    1
   116    33    27    1
   117    98    97    1
   118    98   100    1
   119   159   157   ar
   120    55    54    2
   121    94    97    1
   122    94    93    1
   123    88    87   ar
   124   156   154   ar
   125   170   169    1
   126   170   171    1
   127    85    84    2
   128    28    27    1
   129    28    29    1
   130    43    44   ar
   131    43    41   ar
   132    44    42   ar
   133    89    87   ar
   134    87    86    1
   135    54    53    1
   136    64    62   ar
   137    64    65   ar
   138   157   155   ar
   139    62    59   ar
   140   154   155   ar
   141   154   153    1
   142    84    83    1
   143   171   172    2
   144    41    39   ar
   145    42    40   ar
   146    29    30    2
   147    29    34   am
   148    53    56    1
   149    53    52    1
   150    56    57    1
   151   152   151    2
   152   153   150    1
   153    65    63   ar
   154    83    86    1
   155    83    82    1
   156    59    57   ar
   157    59    61   ar
   158    34    35    1
   159   151   150    1
   160    39    40   ar
   161    39    38    1
   162    57    58   ar
   163    77    76    2
   164   150   149    1
   165    63    61   ar
   166    61    60   ar
   167    82    76   am
   168    35    38    1
   169    35    36    1
   170    76    75    1
   171    58    60   ar
   172    81    79    1
   173   148   146    1
   174   146   145    1
   175    36    37    2
   176    36    45   am
   177    75    74    1
   178    75    78    1
   179    51    45    1
   180    51    50    1
   181    79    78    1
   182    79    80    1
   183    69    68    2
   184    45    46    1
   185   145   142    1
   186   145   147    1
   187   141   142    1
   188   142   143    1
   189    50    49    1
   190    68    67    1
   191    72    71    1
   192    71    73    1
   193    71    70    1
   194    46    49    1
   195    46    47    1
   196   143   144    2
   197    47    48    2
   198    67    70    1
   199    67    66    1
