@<TRIPOS>MOLECULE
tmp/4crvB00.pdb
 89 86 0 0 0
SMALL
GASTEIGER

@<TRIPOS>ATOM
      1  N         29.9040   11.6200   22.0300 N.3   148  GLU148     -0.1245
      2  CA        31.0390   11.5110   21.1140 C.3   148  GLU148      0.1567
      3  C         30.6180   11.0910   19.7110 C.2   148  GLU148      0.2260
      4  O         31.4300   10.5420   18.9590 O.2   148  GLU148     -0.2867
      5  CB        32.0750   10.5170   21.6590 C.3   148  GLU148      0.0388
      6  CG        31.5960    9.0630   21.7080 C.3   148  GLU148      0.1160
      7  CD        32.2810    8.2390   22.7980 C.2   148  GLU148      0.3649
      8  OE1       33.3250    8.6870   23.3220 O.co2 148  GLU148     -0.2457
      9  OE2       31.7730    7.1440   23.1320 O.co2 148  GLU148     -0.2457
     10  N         30.2020   12.5720   16.9050 N.3   150  ILE150     -0.1231
     11  CA        30.8480   13.1400   15.7180 C.3   150  ILE150      0.1678
     12  C         32.1880   12.4500   15.3980 C.2   150  ILE150      0.2434
     13  O         32.4100   12.0570   14.2510 O.2   150  ILE150     -0.2733
     14  CB        31.0400   14.6770   15.8490 C.3   150  ILE150      0.0265
     15  CG1       29.6900   15.3850   15.7090 C.3   150  ILE150      0.0019
     16  CG2       32.0170   15.1950   14.7940 C.3   150  ILE150      0.0020
     17  CD1       29.7320   16.8610   16.0640 C.3   150  ILE150      0.0001
     18  N         33.0770   12.2660   16.3940 N.am  151  PRO151     -0.2729
     19  CA        34.2770   11.5110   15.9940 C.3   151  PRO151      0.1401
     20  C         33.9750   10.0460   15.6440 C.2   151  PRO151      0.2269
     21  O         34.7440    9.4270   14.9060 O.2   151  PRO151     -0.2865
     22  CB        35.1890   11.6040   17.2270 C.3   151  PRO151      0.0296
     23  CG        34.2820   11.9590   18.3530 C.3   151  PRO151      0.0237
     24  CD        33.2100   12.8160   17.7510 C.3   151  PRO151      0.0939
     25  N         33.0170   10.2760   11.9960 N.3   154  LEU154     -0.1245
     26  CA        34.1590   10.6730   11.1670 C.3   154  LEU154      0.1561
     27  C         35.0840    9.4910   10.8970 C.2   154  LEU154      0.2260
     28  O         35.6150    9.3390    9.7910 O.2   154  LEU154     -0.2867
     29  CB        34.9330   11.8130   11.8390 C.3   154  LEU154      0.0270
     30  CG        34.2150   13.1700   11.9210 C.3   154  LEU154      0.0019
     31  CD1       35.0590   14.2140   12.6580 C.3   154  LEU154      0.0001
     32  CD2       33.8480   13.6610   10.5260 C.3   154  LEU154      0.0001
     33  N         29.0060   24.3900   16.7600 N.3   184  TYR184     -0.1227
     34  CA        29.8330   23.4300   17.4820 C.3   184  TYR184      0.1736
     35  C         31.0310   22.9660   16.6380 C.2   184  TYR184      0.2595
     36  O         32.1800   23.0160   17.0740 O.2   184  TYR184     -0.2718
     37  CB        28.9860   22.2270   17.9100 C.3   184  TYR184      0.0548
     38  CG        29.7440   21.1770   18.6880 C.ar  184  TYR184     -0.0200
     39  CD1       30.4310   20.1630   18.0350 C.ar  184  TYR184     -0.0009
     40  CD2       29.7580   21.1910   20.0790 C.ar  184  TYR184     -0.0009
     41  CE1       31.1230   19.2040   18.7360 C.ar  184  TYR184      0.0417
     42  CE2       30.4450   20.2270   20.7940 C.ar  184  TYR184      0.0417
     43  CZ        31.1250   19.2360   20.1160 C.ar  184  TYR184      0.1957
     44  OH        31.8150   18.2720   20.8120 O.3   184  TYR184     -0.2866
     45  N         30.7610   22.5040   15.4300 N.am  185  ILE185     -0.1980
     46  CA        31.8210   21.9620   14.5840 C.3   185  ILE185      0.1595
     47  C         32.8270   23.0570   14.1690 C.2   185  ILE185      0.2287
     48  O         34.0240   22.7870   13.9770 O.2   185  ILE185     -0.2864
     49  CB        31.2010   21.2560   13.3620 C.3   185  ILE185      0.0276
     50  CG1       30.6970   19.8790   13.7950 C.3   185  ILE185      0.0022
     51  CG2       32.2160   21.1180   12.2030 C.3   185  ILE185      0.0022
     52  CD1       29.5550   19.3320   12.9740 C.3   185  ILE185      0.0001
     53  N         40.6710   23.1890   15.3120 N.3   190  GLU190     -0.1231
     54  CA        40.9320   21.7600   15.4010 C.3   190  GLU190      0.1699
     55  C         39.6960   20.9450   15.0240 C.2   190  GLU190      0.2592
     56  O         39.7940   20.0010   14.2390 O.2   190  GLU190     -0.2718
     57  CB        41.4060   21.3740   16.8030 C.3   190  GLU190      0.0402
     58  CG        41.2480   19.8870   17.1050 C.3   190  GLU190      0.1161
     59  CD        42.0790   19.4250   18.2880 C.2   190  GLU190      0.3649
     60  OE1       43.1240   20.0540   18.5660 O.co2 190  GLU190     -0.2457
     61  OE2       41.6870   18.4300   18.9370 O.co2 190  GLU190     -0.2457
     62  N         38.5380   21.3070   15.5760 N.am  191  ARG191     -0.1980
     63  CA        37.3000   20.6020   15.2450 C.3   191  ARG191      0.1597
     64  C         36.9670   20.7110   13.7630 C.2   191  ARG191      0.2287
     65  O         36.6940   19.7050   13.1040 O.2   191  ARG191     -0.2864
     66  CB        36.1270   21.1400   16.0490 C.3   191  ARG191      0.0334
     67  CG        36.0490   20.6400   17.4730 C.3   191  ARG191      0.0492
     68  CD        34.7670   21.1280   18.0900 C.3   191  ARG191      0.2205
     69  NE        34.6940   20.8670   19.5200 N.pl3 191  ARG191     -0.0865
     70  CZ        33.7670   21.3940   20.3080 C.cat 191  ARG191      0.5346
     71  NH1       32.8530   22.2010   19.7870 N.pl3 191  ARG191      0.1354
     72  NH2       33.7500   21.1180   21.6090 N.pl3 191  ARG191      0.1354
     73  N         39.5250   18.8250   11.4310 N.3   194  HIS194     -0.1226
     74  CA        39.3690   17.3770   11.4130 C.3   194  HIS194      0.1752
     75  C         38.2210   16.9730   10.4870 C.2   194  HIS194      0.2595
     76  O         38.3520   16.0310    9.7020 O.2   194  HIS194     -0.2718
     77  CB        39.1470   16.8380   12.8260 C.3   194  HIS194      0.0759
     78  CG        39.0970   15.3420   12.9090 C.ar  194  HIS194      0.0818
     79  ND1       38.4530   14.6750   13.9280 N.ar  194  HIS194     -0.2268
     80  CD2       39.6130   14.3850   12.1010 C.ar  194  HIS194      0.1154
     81  CE1       38.5690   13.3710   13.7430 C.ar  194  HIS194      0.1986
     82  NE2       39.2700   13.1690   12.6440 N.ar  194  HIS194     -0.2212
     83  N         37.1090   17.7010   10.5550 N.am  195  VAL195     -0.1980
     84  CA        35.9820   17.4270    9.6680 C.3   195  VAL195      0.1595
     85  C         36.3770   17.6630    8.2010 C.2   195  VAL195      0.2287
     86  O         36.1590   16.8070    7.3440 O.2   195  VAL195     -0.2864
     87  CB        34.7590   18.2910   10.0150 C.3   195  VAL195      0.0276
     88  CG1       33.7010   18.1690    8.9270 C.3   195  VAL195      0.0022
     89  CG2       34.1790   17.8860   11.3940 C.3   195  VAL195      0.0022
@<TRIPOS>BOND
     1    86    85    2
     2    85    84    1
     3    88    87    1
     4    84    87    1
     5    84    83    1
     6    76    75    2
     7    28    27    2
     8    87    89    1
     9    75    83   am
    10    75    74    1
    11    32    30    1
    12    27    26    1
    13    26    29    1
    14    26    25    1
    15    74    73    1
    16    74    77    1
    17    29    30    1
    18    30    31    1
    19    80    82   ar
    20    80    78   ar
    21    51    49    1
    22    82    81   ar
    23    77    78    1
    24    78    79   ar
    25    52    50    1
    26    65    64    2
    27    49    50    1
    28    49    46    1
    29    81    79   ar
    30    64    63    1
    31    48    47    2
    32    47    46    1
    33    56    55    2
    34    13    12    2
    35    46    45    1
    36    16    14    1
    37    21    20    2
    38    55    54    1
    39    55    62   am
    40    63    62    1
    41    63    66    1
    42    53    54    1
    43    12    11    1
    44    12    18   am
    45    54    57    1
    46    45    35   am
    47    20    19    1
    48    15    14    1
    49    15    17    1
    50    11    14    1
    51    11    10    1
    52    19    18    1
    53    19    22    1
    54    66    67    1
    55    18    24    1
    56    35    36    2
    57    35    34    1
    58    33    34    1
    59    57    58    1
    60    58    59    1
    61    22    23    1
    62    67    68    1
    63    34    37    1
    64    24    23    1
    65    37    38    1
    66    39    38   ar
    67    39    41   ar
    68    68    69    1
    69    59    60   ar
    70    59    61   ar
    71    38    40   ar
    72    41    43   ar
    73     4     3    2
    74    69    70    2
    75     3     2    1
    76    71    70    1
    77    40    42   ar
    78    43    42   ar
    79    43    44    1
    80    70    72    1
    81     2     5    1
    82     2     1    1
    83     5     6    1
    84     6     7    1
    85     7     9   ar
    86     7     8   ar
