@<TRIPOS>MOLECULE
tmp/4crzB00.pdb
 193 189 0 0 0
SMALL
GASTEIGER

@<TRIPOS>ATOM
      1  N        -10.0180   14.9980    1.0940 N.3    23  TRP23      -0.1241
      2  CA        -8.9150   14.1670    0.6000 C.3    23  TRP23       0.1605
      3  C         -9.1100   12.7250    1.1240 C.2    23  TRP23       0.2264
      4  O         -8.4540   12.2850    2.0470 O.2    23  TRP23      -0.2867
      5  CB        -7.6300   14.6690    1.1440 C.3    23  TRP23       0.0550
      6  CG        -7.1110   15.9840    0.5640 C.ar   23  TRP23       0.0003
      7  CD1       -7.2460   16.4690   -0.7110 C.ar   23  TRP23       0.0946
      8  CD2       -6.3260   16.9130    1.2760 C.ar   23  TRP23       0.0152
      9  NE1       -6.5780   17.6640   -0.7960 N.ar   23  TRP23      -0.2442
     10  CE2       -6.0650   17.9890    0.4140 C.ar   23  TRP23       0.0810
     11  CE3       -5.8780   16.9780    2.5850 C.ar   23  TRP23       0.0012
     12  CZ2       -5.2640   19.0830    0.7990 C.ar   23  TRP23       0.0191
     13  CZ3       -5.0280   18.0460    2.9370 C.ar   23  TRP23       0.0001
     14  CH2       -4.8010   19.1010    2.0810 C.ar   23  TRP23       0.0015
     15  N         -8.0340   10.1380   -0.0460 N.3    25  GLU25      -0.1231
     16  CA        -6.8310    9.4090   -0.3040 C.3    25  GLU25       0.1699
     17  C         -5.7330    9.6310    0.6970 C.2    25  GLU25       0.2592
     18  O         -4.7910    8.8640    0.6820 O.2    25  GLU25      -0.2718
     19  CB        -6.4090    9.5310   -1.7770 C.3    25  GLU25       0.0402
     20  CG        -6.2190   10.8790   -2.4500 C.3    25  GLU25       0.1161
     21  CD        -7.5370   11.5800   -2.8600 C.2    25  GLU25       0.3649
     22  OE1       -8.1510   12.1730   -1.9680 O.co2  25  GLU25      -0.2457
     23  OE2       -7.9590   11.5820   -4.0440 O.co2  25  GLU25      -0.2457
     24  N         -5.8330   10.5790    1.6340 N.am   26  TYR26      -0.1976
     25  CA        -4.8170   10.7290    2.6640 C.3    26  TYR26       0.1639
     26  C         -5.3690   10.3640    3.9750 C.2    26  TYR26       0.2290
     27  O         -6.5520   10.5830    4.2120 O.2    26  TYR26      -0.2864
     28  CB        -4.3100   12.1780    2.7670 C.3    26  TYR26       0.0560
     29  CG        -3.7800   12.7410    1.4610 C.ar   26  TYR26      -0.0198
     30  CD1       -3.1030   11.9320    0.5700 C.ar   26  TYR26      -0.0009
     31  CD2       -3.9170   14.1060    1.1450 C.ar   26  TYR26      -0.0009
     32  CE1       -2.5930   12.4290   -0.6180 C.ar   26  TYR26       0.0417
     33  CE2       -3.4210   14.6140   -0.0530 C.ar   26  TYR26       0.0417
     34  CZ        -2.7530   13.7720   -0.9320 C.ar   26  TYR26       0.1957
     35  OH        -2.2460   14.2400   -2.1090 O.3    26  TYR26      -0.2866
     36  N         -2.4230   19.0190   -4.4510 N.3    65  SER65      -0.1202
     37  CA        -3.5850   18.4570   -3.7790 C.3    65  SER65       0.2020
     38  C         -4.6910   19.5200   -3.5890 C.2    65  SER65       0.2619
     39  O         -5.4380   19.4340   -2.5730 O.2    65  SER65      -0.2717
     40  CB        -3.2870   17.7800   -2.4800 C.3    65  SER65       0.2103
     41  OG        -2.2760   16.7350   -2.6000 O.3    65  SER65      -0.2182
     42  N         -4.8250   20.3890   -4.5510 N.am   66  LEU66      -0.1965
     43  CA        -5.9230   21.4290   -4.4580 C.3    66  LEU66       0.1728
     44  C         -7.2600   20.7270   -4.7280 C.2    66  LEU66       0.2616
     45  O         -7.4360   20.1590   -5.8200 O.2    66  LEU66      -0.2715
     46  CB        -5.6970   22.5070   -5.4640 C.3    66  LEU66       0.0311
     47  CG        -6.8830   23.5000   -5.6590 C.3    66  LEU66       0.0022
     48  CD1       -7.1880   24.2570   -4.4110 C.3    66  LEU66       0.0001
     49  CD2       -6.6080   24.4690   -6.7470 C.3    66  LEU66       0.0001
     50  N         -8.1900   20.7270   -3.7680 N.am   67  ARG67      -0.1963
     51  CA        -9.5120   20.2260   -4.0620 C.3    67  ARG67       0.1729
     52  C        -10.5860   20.9750   -3.3230 C.2    67  ARG67       0.2616
     53  O        -10.4320   21.2250   -2.1380 O.2    67  ARG67      -0.2715
     54  CB        -9.6450   18.7740   -3.7100 C.3    67  ARG67       0.0348
     55  CG       -10.8840   18.1380   -4.3360 C.3    67  ARG67       0.0492
     56  CD       -11.0110   16.7280   -3.8810 C.3    67  ARG67       0.2205
     57  NE       -10.2650   15.8270   -4.7360 N.pl3  67  ARG67      -0.0865
     58  CZ        -9.6420   14.7160   -4.3250 C.cat  67  ARG67       0.5346
     59  NH1       -9.5360   14.3980   -3.0370 N.pl3  67  ARG67       0.1354
     60  NH2       -9.0820   13.9010   -5.2350 N.pl3  67  ARG67       0.1354
     61  N        -11.5940   21.3760   -4.1030 N.am   68  VAL68      -0.1977
     62  CA       -12.8450   21.8990   -3.4830 C.3    68  VAL68       0.1596
     63  C        -13.9190   20.8130   -3.5100 C.2    68  VAL68       0.2287
     64  O        -14.1170   20.1510   -4.5610 O.2    68  VAL68      -0.2864
     65  CB       -13.2610   23.1370   -4.3030 C.3    68  VAL68       0.0276
     66  CG1      -14.6560   23.7450   -3.9050 C.3    68  VAL68       0.0022
     67  CG2      -12.2260   24.2260   -4.3070 C.3    68  VAL68       0.0022
     68  N        -18.7020   23.6020   -5.6570 N.3    73  ARG73      -0.1231
     69  CA       -17.9550   24.1280   -6.7750 C.3    73  ARG73       0.1694
     70  C        -18.6880   25.2140   -7.5210 C.2    73  ARG73       0.2592
     71  O        -19.9290   25.4050   -7.3610 O.2    73  ARG73      -0.2718
     72  CB       -17.5010   22.9700   -7.6980 C.3    73  ARG73       0.0321
     73  CG       -16.4010   22.1740   -7.0680 C.3    73  ARG73       0.0489
     74  CD       -16.0180   21.0100   -7.9410 C.3    73  ARG73       0.2205
     75  NE       -15.1000   20.1940   -7.1950 N.pl3  73  ARG73      -0.0865
     76  CZ       -14.6460   19.0180   -7.5650 C.cat  73  ARG73       0.5346
     77  NH1      -14.9270   18.5710   -8.7960 N.pl3  73  ARG73       0.1354
     78  NH2      -13.9050   18.3430   -6.7530 N.pl3  73  ARG73       0.1354
     79  N        -17.8820   26.0540   -8.1340 N.am   74  ARG74      -0.1966
     80  CA       -18.2160   27.1390   -8.9600 C.3    74  ARG74       0.1729
     81  C        -18.9170   28.2430   -8.1530 C.2    74  ARG74       0.2616
     82  O        -19.8560   28.8730   -8.6420 O.2    74  ARG74      -0.2715
     83  CB       -19.0720   26.7190  -10.1800 C.3    74  ARG74       0.0348
     84  CG       -18.9420   27.7040  -11.3110 C.3    74  ARG74       0.0492
     85  CD       -17.5810   27.6570  -11.9940 C.3    74  ARG74       0.2205
     86  NE       -17.4710   28.6560  -13.0330 N.pl3  74  ARG74      -0.0865
     87  CZ       -17.6890   28.4130  -14.3230 C.cat  74  ARG74       0.5346
     88  NH1      -18.0110   27.1940  -14.7190 N.pl3  74  ARG74       0.1354
     89  NH2      -17.5600   29.3880  -15.2010 N.pl3  74  ARG74       0.1354
     90  N        -18.4790   28.4310   -6.9070 N.am   75  ARG75      -0.1963
     91  CA       -18.9650   29.4810   -6.0650 C.3    75  ARG75       0.1729
     92  C        -17.8480   30.3790   -5.5650 C.2    75  ARG75       0.2617
     93  O        -18.0200   31.0650   -4.5460 O.2    75  ARG75      -0.2715
     94  CB       -19.8160   28.9160   -4.9430 C.3    75  ARG75       0.0348
     95  CG       -21.1910   28.4490   -5.5430 C.3    75  ARG75       0.0492
     96  CD       -21.9270   27.7880   -4.4600 C.3    75  ARG75       0.2205
     97  NE       -23.2840   27.2610   -4.8130 N.pl3  75  ARG75      -0.0865
     98  CZ       -23.4660   26.1040   -5.3660 C.cat  75  ARG75       0.5346
     99  NH1      -22.3880   25.3140   -5.7360 N.pl3  75  ARG75       0.1354
    100  NH2      -24.7050   25.7050   -5.5930 N.pl3  75  ARG75       0.1354
    101  N        -16.6900   30.3200   -6.2530 N.am   76  GLY76      -0.1940
    102  CA       -15.5400   31.1920   -5.8970 C.3    76  GLY76       0.2014
    103  C        -14.6990   30.6820   -4.7040 C.2    76  GLY76       0.2639
    104  O        -13.7780   31.3940   -4.2960 O.2    76  GLY76      -0.2714
    105  N        -14.8800   29.4460   -4.2140 N.am   77  VAL77      -0.1963
    106  CA       -14.1390   28.9800   -3.0740 C.3    77  VAL77       0.1727
    107  C        -12.6700   28.7340   -3.5050 C.2    77  VAL77       0.2617
    108  O        -11.7410   29.1040   -2.8230 O.2    77  VAL77      -0.2715
    109  CB       -14.7470   27.7170   -2.4980 C.3    77  VAL77       0.0290
    110  CG1      -13.8770   27.0960   -1.4060 C.3    77  VAL77       0.0023
    111  CG2      -16.1950   27.9940   -2.0420 C.3    77  VAL77       0.0023
    112  N        -12.4780   28.0190   -4.6030 N.am   78  GLY78      -0.1940
    113  CA       -11.1190   27.7050   -5.0760 C.3    78  GLY78       0.2014
    114  C        -10.3440   28.9340   -5.3880 C.2    78  GLY78       0.2638
    115  O         -9.1560   29.0740   -4.9730 O.2    78  GLY78      -0.2714
    116  N        -10.9690   29.8860   -6.0410 N.am   79  GLN79      -0.1977
    117  CA       -10.3010   31.1290   -6.3500 C.3    79  GLN79       0.1601
    118  C         -9.8380   31.8870   -5.0810 C.2    79  GLN79       0.2287
    119  O         -8.7130   32.3730   -4.9960 O.2    79  GLN79      -0.2864
    120  CB       -11.1380   32.0260   -7.2630 C.3    79  GLN79       0.0394
    121  CG       -10.6010   33.4100   -7.4740 C.3    79  GLN79       0.0908
    122  CD       -11.3360   34.1440   -8.5910 C.2    79  GLN79       0.2608
    123  OE1      -11.7780   33.5740   -9.5920 O.2    79  GLN79      -0.2717
    124  NE2      -11.5150   35.3940   -8.3800 N.am   79  GLN79      -0.0878
    125  N         -0.6070   16.3970  -11.1340 N.3   100  ALA100     -0.1231
    126  CA        -0.7960   15.1190  -10.4930 C.3   100  ALA100      0.1694
    127  C         -2.1090   14.9970   -9.7910 C.2   100  ALA100      0.2593
    128  O         -2.4360   15.8080   -8.8670 O.2   100  ALA100     -0.2718
    129  CB         0.3030   14.8730   -9.4810 C.3   100  ALA100      0.0304
    130  N         -2.8250   13.9340  -10.1480 N.am  101  GLY101     -0.1942
    131  CA        -4.0910   13.5970   -9.4990 C.3   101  GLY101      0.2014
    132  C         -5.2610   14.4070   -9.9690 C.2   101  GLY101      0.2639
    133  O         -6.3780   14.2190   -9.4830 O.2   101  GLY101     -0.2714
    134  N         -5.0640   15.2950  -10.9270 N.am  102  VAL102     -0.1963
    135  CA        -6.1330   16.1830  -11.3280 C.3   102  VAL102      0.1727
    136  C         -7.1240   15.3830  -12.1150 C.2   102  VAL102      0.2616
    137  O         -6.7540   14.6870  -13.0270 O.2   102  VAL102     -0.2715
    138  CB        -5.5580   17.3770  -12.0850 C.3   102  VAL102      0.0290
    139  CG1       -6.6010   18.1690  -12.8680 C.3   102  VAL102      0.0023
    140  CG2       -4.8230   18.2480  -11.0660 C.3   102  VAL102      0.0023
    141  N         -8.3950   15.4800  -11.7750 N.am  103  GLU103     -0.1963
    142  CA        -9.3760   14.6020  -12.3980 C.3   103  GLU103      0.1733
    143  C         -9.7590   15.0830  -13.7910 C.2   103  GLU103      0.2616
    144  O        -10.0460   14.2700  -14.6290 O.2   103  GLU103     -0.2715
    145  CB       -10.6140   14.4360  -11.5100 C.3   103  GLU103      0.0429
    146  CG       -11.5210   15.6520  -11.3430 C.3   103  GLU103      0.1163
    147  CD       -12.5980   15.4460  -10.2500 C.2   103  GLU103      0.3649
    148  OE1      -12.7140   14.3230   -9.7050 O.co2 103  GLU103     -0.2457
    149  OE2      -13.3430   16.4050   -9.9410 O.co2 103  GLU103     -0.2457
    150  N         -9.7980   16.3960  -14.0060 N.am  104  ASP104     -0.1971
    151  CA       -10.2130   16.9870  -15.2820 C.3   104  ASP104      0.1709
    152  C         -9.2770   18.1340  -15.5840 C.2   104  ASP104      0.2293
    153  O         -9.3850   19.2620  -15.0820 O.2   104  ASP104     -0.2864
    154  CB       -11.6880   17.3830  -15.1790 C.3   104  ASP104      0.1436
    155  CG       -12.2510   17.9720  -16.4660 C.2   104  ASP104      0.3671
    156  OD1      -11.5230   18.6440  -17.2460 O.co2 104  ASP104     -0.2456
    157  OD2      -13.4730   17.8020  -16.6600 O.co2 104  ASP104     -0.2456
    158  N        -10.6700   21.6820  -17.0650 N.3   107  VAL107     -0.1231
    159  CA       -11.2860   22.5070  -16.0050 C.3   107  VAL107      0.1692
    160  C        -10.1830   23.1110  -15.1450 C.2   107  VAL107      0.2591
    161  O        -10.1880   24.3190  -14.8960 O.2   107  VAL107     -0.2718
    162  CB       -12.2520   21.6710  -15.1360 C.3   107  VAL107      0.0266
    163  CG1      -12.6110   22.3920  -13.8320 C.3   107  VAL107      0.0020
    164  CG2      -13.5270   21.2970  -15.8770 C.3   107  VAL107      0.0020
    165  N         -9.2150   22.2800  -14.7550 N.am  108  MET108     -0.1979
    166  CA        -8.0620   22.8290  -14.0140 C.3   108  MET108      0.1605
    167  C         -7.3280   23.9210  -14.7570 C.2   108  MET108      0.2287
    168  O         -6.9180   24.9740  -14.2360 O.2   108  MET108     -0.2864
    169  CB        -7.1390   21.7180  -13.4880 C.3   108  MET108      0.0413
    170  CG        -6.0650   22.2880  -12.5720 C.3   108  MET108      0.0598
    171  SD        -6.7480   23.0350  -11.0210 S.3   108  MET108     -0.1393
    172  CE        -6.9980   21.5480  -10.2140 C.3   108  MET108      0.0692
    173  N         -8.5580   25.9590  -17.0330 N.3   110  ALA110     -0.1231
    174  CA        -9.3290   27.1540  -17.1180 C.3   110  ALA110      0.1694
    175  C         -9.3850   27.9070  -15.8020 C.2   110  ALA110      0.2592
    176  O         -9.2730   29.1410  -15.7510 O.2   110  ALA110     -0.2718
    177  CB       -10.7350   26.8240  -17.6470 C.3   110  ALA110      0.0304
    178  N         -9.4700   27.1440  -14.7120 N.am  111  PHE111     -0.1976
    179  CA        -9.3120   27.7530  -13.3700 C.3   111  PHE111      0.1639
    180  C         -7.9280   28.4340  -13.1740 C.2   111  PHE111      0.2290
    181  O         -7.8010   29.5740  -12.7580 O.2   111  PHE111     -0.2864
    182  CB        -9.5560   26.6580  -12.3640 C.3   111  PHE111      0.0560
    183  CG        -9.2770   27.0960  -10.9820 C.ar  111  PHE111     -0.0200
    184  CD1      -10.2010   27.8830  -10.2850 C.ar  111  PHE111     -0.0042
    185  CD2       -8.1410   26.7210  -10.3560 C.ar  111  PHE111     -0.0042
    186  CE1       -9.9270   28.3100   -9.0140 C.ar  111  PHE111     -0.0003
    187  CE2       -7.8710   27.1030   -9.0510 C.ar  111  PHE111     -0.0003
    188  CZ        -8.7290   27.9420   -8.3700 C.ar  111  PHE111     -0.0000
    189  N         -7.5510   31.6130  -15.0430 N.3   114  ALA114     -0.1245
    190  CA        -8.2930   32.6700  -14.4020 C.3   114  ALA114      0.1562
    191  C         -7.5050   33.2850  -13.2670 C.2   114  ALA114      0.2260
    192  O         -7.6240   34.4760  -12.9870 O.2   114  ALA114     -0.2867
    193  CB        -9.6400   32.1180  -13.8920 C.3   114  ALA114      0.0290
@<TRIPOS>BOND
     1   177   174    1
     2   156   155   ar
     3   174   173    1
     4   174   175    1
     5   158   159    1
     6   157   155   ar
     7   155   154    1
     8   159   160    1
     9   159   162    1
    10   164   162    1
    11   175   176    2
    12   175   178   am
    13   152   151    1
    14   152   153    2
    15   151   154    1
    16   151   150    1
    17    89    87    1
    18   160   161    2
    19   160   165   am
    20   162   163    1
    21   189   190    1
    22   167   168    2
    23   167   166    1
    24   165   166    1
    25    88    87    1
    26   178   179    1
    27   144   143    2
    28   190   193    1
    29   190   191    1
    30    87    86    2
    31   166   169    1
    32   150   143   am
    33   143   142    1
    34   169   170    1
    35   179   180    1
    36   179   182    1
    37   191   192    2
    38   180   181    2
    39    86    85    1
    40   137   136    2
    41   139   138    1
    42   170   171    1
    43   142   141    1
    44   142   145    1
    45   182   183    1
    46   136   141   am
    47   136   135    1
    48   138   135    1
    49   138   140    1
    50    85    84    1
    51   145   146    1
    52   146   147    1
    53   135   134    1
    54    84    83    1
    55   125   126    1
    56   171   172    1
    57   183   185   ar
    58   183   184   ar
    59   134   132   am
    60   126   127    1
    61   126   129    1
    62   185   187   ar
    63   184   186   ar
    64   147   149   ar
    65   147   148   ar
    66    83    80    1
    67   130   127   am
    68   130   131    1
    69   132   131    1
    70   132   133    2
    71   127   128    2
    72   123   122    2
    73   187   188   ar
    74   186   188   ar
    75    80    81    1
    76    80    79    1
    77    77    76    1
    78    82    81    2
    79   122   124   am
    80   122   121    1
    81    81    90   am
    82    79    70   am
    83    74    75    1
    84    74    73    1
    85    72    73    1
    86    72    69    1
    87    76    75    2
    88    76    78    1
    89    70    71    2
    90    70    69    1
    91   121   120    1
    92   120   117    1
    93    90    91    1
    94    69    68    1
    95    49    47    1
    96   117   116    1
    97   117   118    1
    98   101   102    1
    99   101    92   am
   100    91    92    1
   101    91    94    1
   102   116   114   am
   103   102   103    1
   104    45    44    2
   105    99    98    1
   106    47    46    1
   107    47    48    1
   108   100    98    1
   109    92    93    2
   110    95    94    1
   111    95    96    1
   112    46    43    1
   113   114   113    1
   114   114   115    2
   115    98    97    2
   116    60    58    1
   117   118   119    2
   118   113   112    1
   119    97    96    1
   120    57    58    2
   121    57    56    1
   122    44    43    1
   123    44    50   am
   124   103   104    2
   125   103   105   am
   126   112   107   am
   127    64    63    2
   128    42    43    1
   129    42    38   am
   130    36    37    1
   131    55    56    1
   132    55    54    1
   133    58    59    1
   134    67    65    1
   135    65    66    1
   136    65    62    1
   137   105   106    1
   138    61    62    1
   139    61    52   am
   140    51    50    1
   141    51    54    1
   142    51    52    1
   143    23    21   ar
   144    37    38    1
   145    37    40    1
   146    38    39    2
   147    63    62    1
   148   107   106    1
   149   107   108    2
   150    52    53    2
   151   106   109    1
   152    21    20    1
   153    21    22   ar
   154    41    40    1
   155   109   111    1
   156   109   110    1
   157    20    19    1
   158    35    34    1
   159    19    16    1
   160    34    32   ar
   161    34    33   ar
   162     9     7   ar
   163     9    10   ar
   164     7     6   ar
   165    32    30   ar
   166    16    15    1
   167    16    17    1
   168    33    31   ar
   169    10    12   ar
   170    10     8   ar
   171     6     5    1
   172     6     8   ar
   173    30    29   ar
   174     2     1    1
   175     2     3    1
   176     2     5    1
   177    18    17    2
   178    17    24   am
   179    12    14   ar
   180     3     4    2
   181    31    29   ar
   182     8    11   ar
   183    29    28    1
   184    24    25    1
   185    14    13   ar
   186    11    13   ar
   187    25    28    1
   188    25    26    1
   189    26    27    2
