@<TRIPOS>MOLECULE
tmp/4cs3A00.pdb
 97 89 0 0 0
SMALL
GASTEIGER

@<TRIPOS>ATOM
      1  N        -11.7960   15.5450   22.3780 N.3   112  MET112     -0.1245
      2  CA       -12.0470   14.3260   21.5990 C.3   112  MET112      0.1570
      3  C        -10.7020   13.7240   21.1970 C.2   112  MET112      0.2261
      4  O         -9.6600   14.3640   21.3640 O.2   112  MET112     -0.2867
      5  CB       -12.8640   14.6210   20.3410 C.3   112  MET112      0.0387
      6  CG       -12.1850   15.5400   19.4000 C.3   112  MET112      0.0595
      7  SD       -13.2200   15.9010   17.9550 S.3   112  MET112     -0.1393
      8  CE       -14.4060   17.0280   18.6530 C.3   112  MET112      0.0692
      9  N        -10.1310   12.3690   18.0110 N.3   114  ALA114     -0.1245
     10  CA        -9.9910   12.2870   16.5720 C.3   114  ALA114      0.1562
     11  C         -8.7420   12.9420   15.9900 C.2   114  ALA114      0.2260
     12  O         -8.1260   12.3560   15.1060 O.2   114  ALA114     -0.2867
     13  CB       -11.2430   12.8410   15.9050 C.3   114  ALA114      0.0290
     14  N        -14.6470   18.5580   28.3880 N.3   142  ARG142     -0.1245
     15  CA       -15.5520   19.5450   27.8040 C.3   142  ARG142      0.1563
     16  C        -16.2610   20.3070   28.9240 C.2   142  ARG142      0.2260
     17  O        -16.8300   19.6910   29.8150 O.2   142  ARG142     -0.2867
     18  CB       -16.6200   18.8570   26.9430 C.3   142  ARG142      0.0307
     19  CG       -16.0400   18.1380   25.7260 C.3   142  ARG142      0.0489
     20  CD       -17.1230   17.5070   24.8670 C.3   142  ARG142      0.2205
     21  NE       -16.5160   16.6260   23.8900 N.pl3 142  ARG142     -0.0865
     22  CZ       -17.1620   15.9930   22.9160 C.cat 142  ARG142      0.5346
     23  NH1      -18.4610   16.1490   22.7400 N.pl3 142  ARG142      0.1354
     24  NH2      -16.4740   15.1980   22.1220 N.pl3 142  ARG142      0.1354
     25  N        -13.1350    8.5430   26.6790 N.3   156  MET156     -0.1245
     26  CA       -13.6000    8.1250   25.3760 C.3   156  MET156      0.1570
     27  C        -12.8130    6.9490   24.8560 C.2   156  MET156      0.2261
     28  O        -11.6340    6.8610   25.1220 O.2   156  MET156     -0.2867
     29  CB       -13.5680    9.2750   24.3540 C.3   156  MET156      0.0387
     30  CG       -14.4970    9.0390   23.1760 C.3   156  MET156      0.0595
     31  SD       -14.3280   10.2490   21.8230 S.3   156  MET156     -0.1393
     32  CE       -14.9790   11.7260   22.5960 C.3   156  MET156      0.0692
     33  N        -12.1980    5.6210   20.9780 N.3   158  ASN158     -0.1240
     34  CA       -12.3840    5.9140   19.5610 C.3   158  ASN158      0.1653
     35  C        -11.6200    4.8340   18.8010 C.2   158  ASN158      0.2266
     36  O        -10.4700    4.7010   18.9720 O.2   158  ASN158     -0.2867
     37  CB       -11.8520    7.3270   19.2490 C.3   158  ASN158      0.1155
     38  CG       -12.2530    7.9060   17.9170 C.2   158  ASN158      0.2627
     39  OD1      -12.2150    9.1040   17.7610 O.2   158  ASN158     -0.2716
     40  ND2      -12.5510    7.0940   16.9730 N.am  158  ASN158     -0.0877
     41  N        -10.9300    3.3290   14.7840 N.3   160  CYS160     -0.1235
     42  CA       -11.0860    3.6910   13.4010 C.3   160  CYS160      0.1677
     43  C        -10.3180    2.7710   12.5050 C.2   160  CYS160      0.2270
     44  O         -9.4020    2.0750   12.9350 O.2   160  CYS160     -0.2867
     45  CB       -10.7550    5.1450   13.1740 C.3   160  CYS160      0.0956
     46  SG        -9.1310    5.6150   13.6660 S.3   160  CYS160     -0.0801
     47  N        -18.1920   16.5180   11.7760 N.3   196  PHE196     -0.1241
     48  CA       -18.0390   15.3880   10.8600 C.3   196  PHE196      0.1605
     49  C        -19.1130   15.3260    9.7950 C.2   196  PHE196      0.2264
     50  O        -18.9440   14.6420    8.7970 O.2   196  PHE196     -0.2867
     51  CB       -18.0040   14.0830   11.6390 C.3   196  PHE196      0.0534
     52  CG       -16.8050   13.9670   12.5320 C.ar  196  PHE196     -0.0203
     53  CD1      -15.5630   13.6490   12.0020 C.ar  196  PHE196     -0.0042
     54  CD2      -16.9110   14.1870   13.8970 C.ar  196  PHE196     -0.0042
     55  CE1      -14.4500   13.5500   12.8130 C.ar  196  PHE196     -0.0003
     56  CE2      -15.7870   14.0950   14.7190 C.ar  196  PHE196     -0.0003
     57  CZ       -14.5590   13.7730   14.1740 C.ar  196  PHE196     -0.0000
     58  N        -21.1930    8.3910   18.7260 N.3   211  SER211     -0.1217
     59  CA       -21.3650    8.8880   17.3570 C.3   211  SER211      0.1889
     60  C        -20.3190    8.2400   16.4670 C.2   211  SER211      0.2288
     61  O        -19.1310    8.1560   16.8500 O.2   211  SER211     -0.2866
     62  CB       -21.2500   10.4140   17.2980 C.3   211  SER211      0.2089
     63  OG       -22.4680   11.0340   17.7760 O.3   211  SER211     -0.2183
     64  N        -18.9440    7.6460   12.1750 N.3   213  VAL213     -0.1245
     65  CA       -18.8450    8.3010   10.8730 C.3   213  VAL213      0.1561
     66  C        -18.2900    7.3630    9.8270 C.2   213  VAL213      0.2260
     67  O        -17.3440    6.6230   10.0790 O.2   213  VAL213     -0.2867
     68  CB       -17.9220    9.5320   10.9450 C.3   213  VAL213      0.0252
     69  CG1      -17.7830   10.1870    9.5710 C.3   213  VAL213      0.0019
     70  CG2      -18.4830   10.5360   11.9730 C.3   213  VAL213      0.0019
     71  N        -12.3660    5.7780    5.2900 N.3   229  TRP229     -0.1241
     72  CA       -12.1740    5.4700    6.6940 C.3   229  TRP229      0.1605
     73  C        -13.5300    5.3690    7.3760 C.2   229  TRP229      0.2264
     74  O        -14.5420    5.8550    6.8300 O.2   229  TRP229     -0.2867
     75  CB       -11.2760    6.5270    7.3660 C.3   229  TRP229      0.0550
     76  CG       -11.8630    7.9000    7.4820 C.ar  229  TRP229      0.0003
     77  CD1      -11.7250    8.9290    6.5890 C.ar  229  TRP229      0.0946
     78  CD2      -12.6770    8.4130    8.5530 C.ar  229  TRP229      0.0152
     79  NE1      -12.4010   10.0310    7.0320 N.ar  229  TRP229     -0.2442
     80  CE2      -12.9950    9.7400    8.2330 C.ar  229  TRP229      0.0810
     81  CE3      -13.1430    7.8850    9.7610 C.ar  229  TRP229      0.0012
     82  CZ2      -13.7470   10.5490    9.0590 C.ar  229  TRP229      0.0191
     83  CZ3      -13.9040    8.6870   10.5740 C.ar  229  TRP229      0.0001
     84  CH2      -14.1900   10.0080   10.2290 C.ar  229  TRP229      0.0015
     85  N        -15.1070    5.2550   11.6410 N.3   231  GLY231     -0.1210
     86  CA       -14.7050    5.3640   13.0310 C.3   231  GLY231      0.1956
     87  C        -15.8730    5.6080   13.9410 C.2   231  GLY231      0.2612
     88  O        -16.9300    6.0180   13.4940 O.2   231  GLY231     -0.2717
     89  N        -15.6990    5.3380   15.2390 N.am  232  ALA232     -0.1965
     90  CA       -16.7410    5.6010   16.2240 C.3   232  ALA232      0.1728
     91  C        -16.1360    5.9800   17.5550 C.2   232  ALA232      0.2616
     92  O        -15.0860    5.4600   17.9270 O.2   232  ALA232     -0.2715
     93  CB       -17.6070    4.4080   16.4190 C.3   232  ALA232      0.0334
     94  N        -16.7940    6.8890   18.2520 N.am  233  GLY233     -0.1955
     95  CA       -16.3990    7.2720   19.5900 C.3   233  GLY233      0.1869
     96  C        -17.4590    6.9420   20.6010 C.2   233  GLY233      0.2309
     97  O        -18.6210    7.2270   20.3550 O.2   233  GLY233     -0.2863
@<TRIPOS>BOND
     1    71    72    1
     2    77    79   ar
     3    77    76   ar
     4    72    75    1
     5    72    73    1
     6    74    73    2
     7    79    80   ar
     8    75    76    1
     9    76    78   ar
    10    80    78   ar
    11    80    82   ar
    12    78    81   ar
    13    50    49    2
    14    82    84   ar
    15    69    68    1
    16    81    83   ar
    17    49    48    1
    18    66    67    2
    19    66    65    1
    20    84    83   ar
    21    48    51    1
    22    48    47    1
    23    65    68    1
    24    65    64    1
    25    68    70    1
    26    51    52    1
    27    85    86    1
    28    53    52   ar
    29    53    55   ar
    30    43    44    2
    31    43    42    1
    32    52    54   ar
    33    55    57   ar
    34    86    87    1
    35    45    42    1
    36    45    46    1
    37    42    41    1
    38    88    87    2
    39    54    56   ar
    40    87    89   am
    41    57    56   ar
    42    12    11    2
    43    89    90    1
    44    13    10    1
    45    11    10    1
    46    90    93    1
    47    90    91    1
    48    60    61    2
    49    60    59    1
    50    10     9    1
    51    40    38   am
    52    62    59    1
    53    62    63    1
    54    59    58    1
    55    91    92    2
    56    91    94   am
    57    39    38    2
    58    38    37    1
    59     7     8    1
    60     7     6    1
    61    94    95    1
    62    35    36    2
    63    35    34    1
    64    37    34    1
    65     6     5    1
    66    34    33    1
    67    95    96    1
    68     5     2    1
    69    97    96    2
    70     3     4    2
    71     3     2    1
    72     2     1    1
    73    31    32    1
    74    31    30    1
    75    24    22    1
    76    23    22    1
    77    22    21    2
    78    30    29    1
    79    21    20    1
    80    29    26    1
    81    27    28    2
    82    27    26    1
    83    20    19    1
    84    26    25    1
    85    19    18    1
    86    18    15    1
    87    15    14    1
    88    15    16    1
    89    16    17    2
