@<TRIPOS>MOLECULE
tmp/4cs3A02.pdb
 135 126 0 0 0
SMALL
GASTEIGER

@<TRIPOS>ATOM
      1  N         -9.8180   21.0160   13.1140 N.3    88  MET88      -0.1245
      2  CA       -10.9440   20.0790   13.0960 C.3    88  MET88       0.1570
      3  C        -12.2120   20.7560   12.5850 C.2    88  MET88       0.2261
      4  O        -13.2720   20.1280   12.5050 O.2    88  MET88      -0.2867
      5  CB       -11.2040   19.5240   14.4940 C.3    88  MET88       0.0387
      6  CG       -10.2200   18.4350   14.9410 C.3    88  MET88       0.0595
      7  SD       -10.2140   16.9300   13.9180 S.3    88  MET88      -0.1393
      8  CE       -11.8920   16.3140   14.1370 C.3    88  MET88       0.0692
      9  N        -10.1310   12.3690   18.0110 N.3   114  ALA114     -0.1245
     10  CA        -9.9910   12.2870   16.5720 C.3   114  ALA114      0.1562
     11  C         -8.7420   12.9420   15.9900 C.2   114  ALA114      0.2260
     12  O         -8.1260   12.3560   15.1060 O.2   114  ALA114     -0.2867
     13  CB       -11.2430   12.8410   15.9050 C.3   114  ALA114      0.0290
     14  N         -5.7160   10.7710   16.4520 N.3   117  LEU117     -0.1231
     15  CA        -5.8660    9.5430   15.6860 C.3   117  LEU117      0.1693
     16  C         -5.7310    9.7870   14.1970 C.2   117  LEU117      0.2591
     17  O         -5.1850    8.9460   13.5110 O.2   117  LEU117     -0.2718
     18  CB        -7.1890    8.8540   16.0370 C.3   117  LEU117      0.0284
     19  CG        -7.2890    8.3030   17.4790 C.3   117  LEU117      0.0019
     20  CD1       -8.6790    7.7540   17.7370 C.3   117  LEU117      0.0001
     21  CD2       -6.2720    7.2380   17.7620 C.3   117  LEU117      0.0001
     22  N         -6.2010   10.9360   13.7080 N.am  118  ALA118     -0.1980
     23  CA        -6.0020   11.2980   12.2960 C.3   118  ALA118      0.1597
     24  C         -4.5080   11.3850   11.9710 C.2   118  ALA118      0.2287
     25  O         -4.0840   10.8640   10.9450 O.2   118  ALA118     -0.2864
     26  CB        -6.6830   12.6050   11.9720 C.3   118  ALA118      0.0319
     27  N         -3.1900    7.8460   11.7830 N.3   121  LEU121     -0.1245
     28  CA        -3.5420    7.1690   10.5310 C.3   121  LEU121      0.1561
     29  C         -2.6210    7.6020    9.3990 C.2   121  LEU121      0.2260
     30  O         -2.1340    6.7620    8.6530 O.2   121  LEU121     -0.2867
     31  CB        -4.9960    7.4350   10.1380 C.3   121  LEU121      0.0270
     32  CG        -6.0990    6.7890   11.0050 C.3   121  LEU121      0.0019
     33  CD1       -7.4320    7.3010   10.5550 C.3   121  LEU121      0.0001
     34  CD2       -6.0770    5.2640   10.9400 C.3   121  LEU121      0.0001
     35  N        -12.1980    5.6210   20.9780 N.3   158  ASN158     -0.1240
     36  CA       -12.3840    5.9140   19.5610 C.3   158  ASN158      0.1653
     37  C        -11.6200    4.8340   18.8010 C.2   158  ASN158      0.2266
     38  O        -10.4700    4.7010   18.9720 O.2   158  ASN158     -0.2867
     39  CB       -11.8520    7.3270   19.2490 C.3   158  ASN158      0.1155
     40  CG       -12.2530    7.9060   17.9170 C.2   158  ASN158      0.2627
     41  OD1      -12.2150    9.1040   17.7610 O.2   158  ASN158     -0.2716
     42  ND2      -12.5510    7.0940   16.9730 N.am  158  ASN158     -0.0877
     43  N        -10.9300    3.3290   14.7840 N.3   160  CYS160     -0.1235
     44  CA       -11.0860    3.6910   13.4010 C.3   160  CYS160      0.1677
     45  C        -10.3180    2.7710   12.5050 C.2   160  CYS160      0.2270
     46  O         -9.4020    2.0750   12.9350 O.2   160  CYS160     -0.2867
     47  CB       -10.7550    5.1450   13.1740 C.3   160  CYS160      0.0956
     48  SG        -9.1310    5.6150   13.6660 S.3   160  CYS160     -0.0801
     49  N        -18.1920   16.5180   11.7760 N.3   196  PHE196     -0.1241
     50  CA       -18.0390   15.3880   10.8600 C.3   196  PHE196      0.1605
     51  C        -19.1130   15.3260    9.7950 C.2   196  PHE196      0.2264
     52  O        -18.9440   14.6420    8.7970 O.2   196  PHE196     -0.2867
     53  CB       -18.0040   14.0830   11.6390 C.3   196  PHE196      0.0534
     54  CG       -16.8050   13.9670   12.5320 C.ar  196  PHE196     -0.0203
     55  CD1      -15.5630   13.6490   12.0020 C.ar  196  PHE196     -0.0042
     56  CD2      -16.9110   14.1870   13.8970 C.ar  196  PHE196     -0.0042
     57  CE1      -14.4500   13.5500   12.8130 C.ar  196  PHE196     -0.0003
     58  CE2      -15.7870   14.0950   14.7190 C.ar  196  PHE196     -0.0003
     59  CZ       -14.5590   13.7730   14.1740 C.ar  196  PHE196     -0.0000
     60  N        -18.9440    7.6460   12.1750 N.3   213  VAL213     -0.1245
     61  CA       -18.8450    8.3010   10.8730 C.3   213  VAL213      0.1561
     62  C        -18.2900    7.3630    9.8270 C.2   213  VAL213      0.2260
     63  O        -17.3440    6.6230   10.0790 O.2   213  VAL213     -0.2867
     64  CB       -17.9220    9.5320   10.9450 C.3   213  VAL213      0.0252
     65  CG1      -17.7830   10.1870    9.5710 C.3   213  VAL213      0.0019
     66  CG2      -18.4830   10.5360   11.9730 C.3   213  VAL213      0.0019
     67  N        -14.6380   12.3880    4.2310 N.3   217  ILE217     -0.1245
     68  CA       -15.3020   13.6700    4.3970 C.3   217  ILE217      0.1561
     69  C        -14.3540   14.8040    4.0060 C.2   217  ILE217      0.2260
     70  O        -13.1250   14.6200    3.9410 O.2   217  ILE217     -0.2867
     71  CB       -15.7910   13.8920    5.8510 C.3   217  ILE217      0.0252
     72  CG1      -14.6140   13.9240    6.8450 C.3   217  ILE217      0.0019
     73  CG2      -16.8140   12.8150    6.2250 C.3   217  ILE217      0.0019
     74  CD1      -15.0260   14.2590    8.2680 C.3   217  ILE217      0.0001
     75  N        -13.1520   17.2850    5.5180 N.3   219  LEU219     -0.1231
     76  CA       -12.1620   17.6110    6.5500 C.3   219  LEU219      0.1693
     77  C        -10.8650   16.8280    6.3920 C.2   219  LEU219      0.2592
     78  O         -9.8040   17.2620    6.8630 O.2   219  LEU219     -0.2718
     79  CB       -12.7600   17.3160    7.9220 C.3   219  LEU219      0.0284
     80  CG       -11.9200   17.6880    9.1410 C.3   219  LEU219      0.0019
     81  CD1      -11.6780   19.1780    9.1950 C.3   219  LEU219      0.0001
     82  CD2      -12.6160   17.2240   10.4100 C.3   219  LEU219      0.0001
     83  N        -10.9500   15.6760    5.7350 N.am  220  ASP220     -0.1974
     84  CA        -9.8250   14.7430    5.6390 C.3   220  ASP220      0.1709
     85  C         -8.5730   15.4180    5.0900 C.2   220  ASP220      0.2293
     86  O         -7.4660   15.1730    5.5690 O.2   220  ASP220     -0.2864
     87  CB       -10.1770   13.5560    4.7400 C.3   220  ASP220      0.1436
     88  CG       -11.2400   12.6480    5.3270 C.2   220  ASP220      0.3671
     89  OD1      -11.5730   12.7730    6.5190 O.co2 220  ASP220     -0.2456
     90  OD2      -11.7150   11.7760    4.5690 O.co2 220  ASP220     -0.2456
     91  N         -6.0190   17.0440    7.2940 N.3   223  TRP223     -0.1241
     92  CA        -5.2140   16.1390    8.1260 C.3   223  TRP223      0.1605
     93  C         -4.3650   15.2140    7.2620 C.2   223  TRP223      0.2264
     94  O         -3.7970   14.2530    7.7510 O.2   223  TRP223     -0.2867
     95  CB        -6.1410   15.3410    9.0530 C.3   223  TRP223      0.0550
     96  CG        -6.7920   16.2900    9.9820 C.ar  223  TRP223      0.0003
     97  CD1       -7.9400   16.9850    9.7710 C.ar  223  TRP223      0.0946
     98  CD2       -6.2800   16.7330   11.2400 C.ar  223  TRP223      0.0152
     99  NE1       -8.1940   17.8240   10.8310 N.ar  223  TRP223     -0.2442
    100  CE2       -7.1870   17.6850   11.7490 C.ar  223  TRP223      0.0810
    101  CE3       -5.1370   16.4160   11.9920 C.ar  223  TRP223      0.0012
    102  CZ2       -7.0000   18.3080   12.9760 C.ar  223  TRP223      0.0191
    103  CZ3       -4.9620   17.0350   13.2210 C.ar  223  TRP223      0.0001
    104  CH2       -5.8750   17.9780   13.6860 C.ar  223  TRP223      0.0015
    105  N         -5.3680   13.0750    5.0240 N.3   225  ILE225     -0.1245
    106  CA        -5.9980   11.7790    4.8430 C.3   225  ILE225      0.1561
    107  C         -6.6810   11.8090    3.4860 C.2   225  ILE225      0.2260
    108  O         -7.3470   12.7850    3.1450 O.2   225  ILE225     -0.2867
    109  CB        -6.9890   11.4590    5.9920 C.3   225  ILE225      0.0252
    110  CG1       -6.2120   11.2470    7.3240 C.3   225  ILE225      0.0019
    111  CG2       -7.8310   10.2330    5.6600 C.3   225  ILE225      0.0019
    112  CD1       -7.0400   11.0470    8.5110 C.3   225  ILE225      0.0001
    113  N        -12.3660    5.7780    5.2900 N.3   229  TRP229     -0.1241
    114  CA       -12.1740    5.4700    6.6940 C.3   229  TRP229      0.1605
    115  C        -13.5300    5.3690    7.3760 C.2   229  TRP229      0.2264
    116  O        -14.5420    5.8550    6.8300 O.2   229  TRP229     -0.2867
    117  CB       -11.2760    6.5270    7.3660 C.3   229  TRP229      0.0550
    118  CG       -11.8630    7.9000    7.4820 C.ar  229  TRP229      0.0003
    119  CD1      -11.7250    8.9290    6.5890 C.ar  229  TRP229      0.0946
    120  CD2      -12.6770    8.4130    8.5530 C.ar  229  TRP229      0.0152
    121  NE1      -12.4010   10.0310    7.0320 N.ar  229  TRP229     -0.2442
    122  CE2      -12.9950    9.7400    8.2330 C.ar  229  TRP229      0.0810
    123  CE3      -13.1430    7.8850    9.7610 C.ar  229  TRP229      0.0012
    124  CZ2      -13.7470   10.5490    9.0590 C.ar  229  TRP229      0.0191
    125  CZ3      -13.9040    8.6870   10.5740 C.ar  229  TRP229      0.0001
    126  CH2      -14.1900   10.0080   10.2290 C.ar  229  TRP229      0.0015
    127  N        -15.1070    5.2550   11.6410 N.3   231  GLY231     -0.1210
    128  CA       -14.7050    5.3640   13.0310 C.3   231  GLY231      0.1956
    129  C        -15.8730    5.6080   13.9410 C.2   231  GLY231      0.2611
    130  O        -16.9300    6.0180   13.4940 O.2   231  GLY231     -0.2717
    131  N        -15.6990    5.3380   15.2390 N.am  232  ALA232     -0.1979
    132  CA       -16.7410    5.6010   16.2240 C.3   232  ALA232      0.1597
    133  C        -16.1360    5.9800   17.5550 C.2   232  ALA232      0.2287
    134  O        -15.0860    5.4600   17.9270 O.2   232  ALA232     -0.2864
    135  CB       -17.6070    4.4080   16.4190 C.3   232  ALA232      0.0319
@<TRIPOS>BOND
     1   108   107    2
     2   107   106    1
     3    70    69    2
     4    69    68    1
     5    67    68    1
     6    68    71    1
     7    90    88   ar
     8    87    88    1
     9    87    84    1
    10   106   105    1
    11   106   109    1
    12    85    86    2
    13    85    84    1
    14   113   114    1
    15    88    89   ar
    16    75    76    1
    17    84    83    1
    18   111   109    1
    19    83    77   am
    20    71    73    1
    21    71    72    1
    22   109   110    1
    23    77    76    1
    24    77    78    2
    25    76    79    1
    26   119   121   ar
    27   119   118   ar
    28   114   117    1
    29   114   115    1
    30   116   115    2
    31    72    74    1
    32   121   122   ar
    33    93    94    2
    34    93    92    1
    35    91    92    1
    36   110   112    1
    37   117   118    1
    38   118   120   ar
    39    79    80    1
    40    92    95    1
    41   122   120   ar
    42   122   124   ar
    43   120   123   ar
    44    30    29    2
    45    52    51    2
    46    95    96    1
    47   124   126   ar
    48    80    81    1
    49    80    82    1
    50    29    28    1
    51    65    64    1
    52   123   125   ar
    53    97    96   ar
    54    97    99   ar
    55    51    50    1
    56    62    63    2
    57    62    61    1
    58    96    98   ar
    59    31    28    1
    60    31    32    1
    61   126   125   ar
    62    28    27    1
    63    33    32    1
    64    99   100   ar
    65    50    53    1
    66    50    49    1
    67    61    64    1
    68    61    60    1
    69    34    32    1
    70    64    66    1
    71    25    24    2
    72    98   100   ar
    73    98   101   ar
    74    53    54    1
    75   127   128    1
    76   100   102   ar
    77    24    23    1
    78    26    23    1
    79   101   103   ar
    80    55    54   ar
    81    55    57   ar
    82    23    22    1
    83    45    46    2
    84    45    44    1
    85     4     3    2
    86    54    56   ar
    87     3     2    1
    88    57    59   ar
    89   102   104   ar
    90   128   129    1
    91     2     1    1
    92     2     5    1
    93    47    44    1
    94    47    48    1
    95   103   104   ar
    96    44    43    1
    97   130   129    2
    98    17    16    2
    99    22    16   am
   100    56    58   ar
   101     7     8    1
   102     7     6    1
   103   129   131   am
   104    59    58   ar
   105    16    15    1
   106     5     6    1
   107    12    11    2
   108   131   132    1
   109    15    18    1
   110    15    14    1
   111    13    10    1
   112    11    10    1
   113    18    19    1
   114   132   135    1
   115   132   133    1
   116    10     9    1
   117    42    40   am
   118    19    20    1
   119    19    21    1
   120   133   134    2
   121    41    40    2
   122    40    39    1
   123    37    38    2
   124    37    36    1
   125    39    36    1
   126    36    35    1
