@<TRIPOS>MOLECULE
tmp/4cs3A01.pdb
 161 154 0 0 0
SMALL
GASTEIGER

@<TRIPOS>ATOM
      1  N        -11.7960   15.5450   22.3780 N.3   112  MET112     -0.1245
      2  CA       -12.0470   14.3260   21.5990 C.3   112  MET112      0.1570
      3  C        -10.7020   13.7240   21.1970 C.2   112  MET112      0.2261
      4  O         -9.6600   14.3640   21.3640 O.2   112  MET112     -0.2867
      5  CB       -12.8640   14.6210   20.3410 C.3   112  MET112      0.0387
      6  CG       -12.1850   15.5400   19.4000 C.3   112  MET112      0.0595
      7  SD       -13.2200   15.9010   17.9550 S.3   112  MET112     -0.1393
      8  CE       -14.4060   17.0280   18.6530 C.3   112  MET112      0.0692
      9  N        -14.6470   18.5580   28.3880 N.3   142  ARG142     -0.1245
     10  CA       -15.5520   19.5450   27.8040 C.3   142  ARG142      0.1563
     11  C        -16.2610   20.3070   28.9240 C.2   142  ARG142      0.2260
     12  O        -16.8300   19.6910   29.8150 O.2   142  ARG142     -0.2867
     13  CB       -16.6200   18.8570   26.9430 C.3   142  ARG142      0.0307
     14  CG       -16.0400   18.1380   25.7260 C.3   142  ARG142      0.0489
     15  CD       -17.1230   17.5070   24.8670 C.3   142  ARG142      0.2205
     16  NE       -16.5160   16.6260   23.8900 N.pl3 142  ARG142     -0.0865
     17  CZ       -17.1620   15.9930   22.9160 C.cat 142  ARG142      0.5346
     18  NH1      -18.4610   16.1490   22.7400 N.pl3 142  ARG142      0.1354
     19  NH2      -16.4740   15.1980   22.1220 N.pl3 142  ARG142      0.1354
     20  N        -19.3270   21.6490   30.4530 N.3   144  GLU144     -0.1245
     21  CA       -20.6970   21.2110   30.2400 C.3   144  GLU144      0.1567
     22  C        -21.6370   21.8710   31.2510 C.2   144  GLU144      0.2260
     23  O        -21.1990   22.3870   32.2780 O.2   144  GLU144     -0.2867
     24  CB       -20.7750   19.6780   30.3610 C.3   144  GLU144      0.0388
     25  CG       -19.9090   18.8830   29.3090 C.3   144  GLU144      0.1160
     26  CD       -20.5880   18.7540   27.9380 C.2   144  GLU144      0.3649
     27  OE1      -21.7110   19.2840   27.7740 O.co2 144  GLU144     -0.2457
     28  OE2      -20.0030   18.1200   27.0130 O.co2 144  GLU144     -0.2457
     29  N        -26.2680   13.1340   32.3860 N.3   149  GLU149     -0.1231
     30  CA       -25.6330   12.3820   31.2930 C.3   149  GLU149      0.1699
     31  C        -24.2860   12.9570   30.7770 C.2   149  GLU149      0.2592
     32  O        -23.6690   12.3820   29.8850 O.2   149  GLU149     -0.2718
     33  CB       -26.6230   12.2070   30.1370 C.3   149  GLU149      0.0402
     34  CG       -27.8320   11.3740   30.5390 C.3   149  GLU149      0.1161
     35  CD       -28.9800   11.4740   29.5590 C.2   149  GLU149      0.3649
     36  OE1      -28.7610   11.9410   28.4210 O.co2 149  GLU149     -0.2457
     37  OE2      -30.1070   11.0860   29.9320 O.co2 149  GLU149     -0.2457
     38  N        -23.8610   14.0930   31.3210 N.am  150  HIS150     -0.1962
     39  CA       -22.6130   14.7420   30.9090 C.3   150  HIS150      0.1787
     40  C        -21.6580   14.9690   32.0580 C.2   150  HIS150      0.2620
     41  O        -22.0440   15.3040   33.1780 O.2   150  HIS150     -0.2715
     42  CB       -22.8750   16.0900   30.2500 C.3   150  HIS150      0.0785
     43  CG       -23.5880   15.9950   28.9370 C.ar  150  HIS150      0.0821
     44  ND1      -24.9520   15.8440   28.8500 N.ar  150  HIS150     -0.2267
     45  CD2      -23.1270   16.0290   27.6620 C.ar  150  HIS150      0.1154
     46  CE1      -25.3080   15.7950   27.5730 C.ar  150  HIS150      0.1986
     47  NE2      -24.2220   15.9090   26.8350 N.ar  150  HIS150     -0.2212
     48  N        -20.3800   14.8350   31.7430 N.am  151  LEU151     -0.1977
     49  CA       -19.3150   15.0890   32.6970 C.3   151  LEU151      0.1596
     50  C        -18.3430   16.0620   32.0460 C.2   151  LEU151      0.2287
     51  O        -18.2340   16.1120   30.8230 O.2   151  LEU151     -0.2864
     52  CB       -18.5800   13.7810   32.9560 C.3   151  LEU151      0.0297
     53  CG       -19.3180   12.6650   33.6870 C.3   151  LEU151      0.0022
     54  CD1      -18.5350   11.3670   33.5520 C.3   151  LEU151      0.0001
     55  CD2      -19.5120   13.0090   35.1260 C.3   151  LEU151      0.0001
     56  N        -14.3030   13.0970   31.2120 N.3   154  PHE154     -0.1241
     57  CA       -14.8830   11.8100   30.8240 C.3   154  PHE154      0.1605
     58  C        -13.8310   10.9640   30.1010 C.2   154  PHE154      0.2264
     59  O        -12.6790   11.4000   29.9800 O.2   154  PHE154     -0.2867
     60  CB       -16.2000   11.9830   30.0250 C.3   154  PHE154      0.0534
     61  CG       -16.0520   12.6130   28.6640 C.ar  154  PHE154     -0.0203
     62  CD1      -16.0230   13.9940   28.5210 C.ar  154  PHE154     -0.0042
     63  CD2      -16.0570   11.8300   27.5410 C.ar  154  PHE154     -0.0042
     64  CE1      -15.8880   14.5530   27.2710 C.ar  154  PHE154     -0.0003
     65  CE2      -15.9570   12.3900   26.2950 C.ar  154  PHE154     -0.0003
     66  CZ       -15.8750   13.7500   26.1660 C.ar  154  PHE154     -0.0000
     67  N        -13.1350    8.5430   26.6790 N.3   156  MET156     -0.1245
     68  CA       -13.6000    8.1250   25.3760 C.3   156  MET156      0.1570
     69  C        -12.8130    6.9490   24.8560 C.2   156  MET156      0.2261
     70  O        -11.6340    6.8610   25.1220 O.2   156  MET156     -0.2867
     71  CB       -13.5680    9.2750   24.3540 C.3   156  MET156      0.0387
     72  CG       -14.4970    9.0390   23.1760 C.3   156  MET156      0.0595
     73  SD       -14.3280   10.2490   21.8230 S.3   156  MET156     -0.1393
     74  CE       -14.9790   11.7260   22.5960 C.3   156  MET156      0.0692
     75  N        -18.1920   16.5180   11.7760 N.3   196  PHE196     -0.1241
     76  CA       -18.0390   15.3880   10.8600 C.3   196  PHE196      0.1605
     77  C        -19.1130   15.3260    9.7950 C.2   196  PHE196      0.2264
     78  O        -18.9440   14.6420    8.7970 O.2   196  PHE196     -0.2867
     79  CB       -18.0040   14.0830   11.6390 C.3   196  PHE196      0.0534
     80  CG       -16.8050   13.9670   12.5320 C.ar  196  PHE196     -0.0203
     81  CD1      -15.5630   13.6490   12.0020 C.ar  196  PHE196     -0.0042
     82  CD2      -16.9110   14.1870   13.8970 C.ar  196  PHE196     -0.0042
     83  CE1      -14.4500   13.5500   12.8130 C.ar  196  PHE196     -0.0003
     84  CE2      -15.7870   14.0950   14.7190 C.ar  196  PHE196     -0.0003
     85  CZ       -14.5590   13.7730   14.1740 C.ar  196  PHE196     -0.0000
     86  N        -27.2740    8.6820   24.2090 N.3   208  GLU208     -0.1231
     87  CA       -26.2610    8.4520   23.1730 C.3   208  GLU208      0.1699
     88  C        -25.0170    7.7610   23.7370 C.2   208  GLU208      0.2592
     89  O        -24.3060    8.3130   24.5870 O.2   208  GLU208     -0.2718
     90  CB       -25.8380    9.7540   22.4830 C.3   208  GLU208      0.0402
     91  CG       -24.9540    9.5250   21.2550 C.3   208  GLU208      0.1161
     92  CD       -24.3390   10.8170   20.6680 C.2   208  GLU208      0.3649
     93  OE1      -24.9900   11.5460   19.9010 O.co2 208  GLU208     -0.2457
     94  OE2      -23.1730   11.1250   20.9240 O.co2 208  GLU208     -0.2457
     95  N        -24.7510    6.5520   23.2750 N.am  209  LEU209     -0.1966
     96  CA       -23.5240    5.8510   23.6310 C.3   209  LEU209      0.1728
     97  C        -22.3830    6.2820   22.7400 C.2   209  LEU209      0.2617
     98  O        -21.2460    6.3170   23.1890 O.2   209  LEU209     -0.2715
     99  CB       -23.7140    4.3340   23.5530 C.3   209  LEU209      0.0311
    100  CG       -24.8190    3.7730   24.4700 C.3   209  LEU209      0.0022
    101  CD1      -24.8450    2.2500   24.2900 C.3   209  LEU209      0.0001
    102  CD2      -24.6390    4.2130   25.9220 C.3   209  LEU209      0.0001
    103  N        -22.6660    6.5630   21.4760 N.am  210  SER210     -0.1936
    104  CA       -21.6020    6.8050   20.5050 C.3   210  SER210      0.2055
    105  C        -22.0880    7.6280   19.3280 C.2   210  SER210      0.2643
    106  O        -23.2700    7.5940   18.9890 O.2   210  SER210     -0.2714
    107  CB       -21.0680    5.4560   20.0030 C.3   210  SER210      0.2130
    108  OG       -20.2830    5.5700   18.8150 O.3   210  SER210     -0.2179
    109  N        -21.1930    8.3910   18.7260 N.am  211  SER211     -0.1949
    110  CA       -21.3650    8.8880   17.3570 C.3   211  SER211      0.1924
    111  C        -20.3190    8.2400   16.4670 C.2   211  SER211      0.2314
    112  O        -19.1310    8.1560   16.8500 O.2   211  SER211     -0.2863
    113  CB       -21.2500   10.4140   17.2980 C.3   211  SER211      0.2116
    114  OG       -22.4680   11.0340   17.7760 O.3   211  SER211     -0.2180
    115  N        -16.7940    6.8890   18.2520 N.3   233  GLY233     -0.1210
    116  CA       -16.3990    7.2720   19.5900 C.3   233  GLY233      0.1956
    117  C        -17.4590    6.9420   20.6010 C.2   233  GLY233      0.2612
    118  O        -18.6210    7.2270   20.3550 O.2   233  GLY233     -0.2717
    119  N        -17.0700    6.3140   21.7060 N.am  234  PHE234     -0.1962
    120  CA       -17.9630    5.9230   22.7840 C.3   234  PHE234      0.1771
    121  C        -17.5130    6.4950   24.1070 C.2   234  PHE234      0.2620
    122  O        -16.3340    6.4360   24.4160 O.2   234  PHE234     -0.2715
    123  CB       -17.9260    4.4110   22.9930 C.3   234  PHE234      0.0574
    124  CG       -18.6620    3.6080   21.9580 C.ar  234  PHE234     -0.0200
    125  CD1      -18.1190    3.3410   20.7040 C.ar  234  PHE234     -0.0042
    126  CD2      -19.8990    3.0990   22.2840 C.ar  234  PHE234     -0.0042
    127  CE1      -18.8460    2.5860   19.7880 C.ar  234  PHE234     -0.0003
    128  CE2      -20.6190    2.3590   21.3680 C.ar  234  PHE234     -0.0003
    129  CZ       -20.0820    2.0960   20.1490 C.ar  234  PHE234     -0.0000
    130  N        -18.4340    6.9500   24.9450 N.am  235  GLY235     -0.1954
    131  CA       -18.1170    7.3420   26.3050 C.3   235  GLY235      0.1869
    132  C        -18.1560    6.1610   27.2630 C.2   235  GLY235      0.2309
    133  O        -19.2130    5.5330   27.4010 O.2   235  GLY235     -0.2863
    134  N        -18.0740    6.1690   30.5780 N.3   237  GLU237     -0.1231
    135  CA       -18.9540    6.4200   31.7100 C.3   237  GLU237      0.1699
    136  C        -20.4020    6.1780   31.2980 C.2   237  GLU237      0.2592
    137  O        -21.1860    5.6740   32.0990 O.2   237  GLU237     -0.2718
    138  CB       -18.7450    7.8380   32.2480 C.3   237  GLU237      0.0402
    139  CG       -17.3570    8.0330   32.8940 C.3   237  GLU237      0.1161
    140  CD       -16.2920    8.4830   31.9650 C.2   237  GLU237      0.3649
    141  OE1      -16.5420    8.5940   30.7280 O.co2 237  GLU237     -0.2457
    142  OE2      -15.1520    8.6800   32.4410 O.co2 237  GLU237     -0.2457
    143  N        -20.7540    6.5110   30.0620 N.am  238  ARG238     -0.1980
    144  CA       -22.1150    6.2200   29.5910 C.3   238  ARG238      0.1597
    145  C        -22.3380    4.7120   29.5060 C.2   238  ARG238      0.2287
    146  O        -23.4190    4.2250   29.8610 O.2   238  ARG238     -0.2864
    147  CB       -22.4360    6.9430   28.2880 C.3   238  ARG238      0.0334
    148  CG       -22.4900    8.4550   28.4680 C.3   238  ARG238      0.0492
    149  CD       -23.3170    9.1250   27.4350 C.3   238  ARG238      0.2205
    150  NE       -23.4100   10.5660   27.6750 N.pl3 238  ARG238     -0.0865
    151  CZ       -23.6770   11.4440   26.7210 C.cat 238  ARG238      0.5346
    152  NH1      -23.9080   11.0320   25.4770 N.pl3 238  ARG238      0.1354
    153  NH2      -23.7050   12.7360   27.0100 N.pl3 238  ARG238      0.1354
    154  N        -24.7080    9.9550   35.8670 N.3   249  ILE249     -0.1245
    155  CA       -23.4330    9.5480   35.2900 C.3   249  ILE249      0.1561
    156  C        -22.2450    9.8400   36.2270 C.2   249  ILE249      0.2260
    157  O        -21.1680    9.2210   36.1060 O.2   249  ILE249     -0.2867
    158  CB       -23.2370   10.2050   33.8970 C.3   249  ILE249      0.0252
    159  CG1      -22.0620    9.5510   33.1530 C.3   249  ILE249      0.0019
    160  CG2      -22.9860   11.6970   34.0430 C.3   249  ILE249      0.0019
    161  CD1      -21.9100    9.9580   31.6950 C.3   249  ILE249      0.0001
@<TRIPOS>BOND
     1    78    77    2
     2    77    76    1
     3    76    79    1
     4    76    75    1
     5    79    80    1
     6    81    80   ar
     7    81    83   ar
     8    80    82   ar
     9    83    85   ar
    10    82    84   ar
    11    85    84   ar
    12   111   112    2
    13   111   110    1
    14   113   110    1
    15   113   114    1
    16   110   109    1
    17     7     8    1
    18     7     6    1
    19   115   116    1
    20   109   105   am
    21   108   107    1
    22   106   105    2
    23   105   104    1
    24     6     5    1
    25   116   117    1
    26   127   129   ar
    27   127   125   ar
    28    93    92   ar
    29   107   104    1
    30   129   128   ar
    31     5     2    1
    32   118   117    2
    33   104   103    1
    34   117   119   am
    35    92    94   ar
    36    92    91    1
    37   125   124   ar
    38     3     4    2
    39     3     2    1
    40    91    90    1
    41   128   126   ar
    42   103    97   am
    43     2     1    1
    44   119   120    1
    45    73    74    1
    46    73    72    1
    47   124   126   ar
    48   124   123    1
    49    19    17    1
    50    90    87    1
    51    18    17    1
    52    97    98    2
    53    97    96    1
    54   120   123    1
    55   120   121    1
    56    17    16    2
    57    87    88    1
    58    87    86    1
    59    72    71    1
    60    95    96    1
    61    95    88   am
    62    99    96    1
    63    99   100    1
    64    88    89    2
    65    16    15    1
    66   121   122    2
    67   121   130   am
    68   101   100    1
    69    71    68    1
    70   100   102    1
    71    69    70    2
    72    69    68    1
    73    15    14    1
    74   130   131    1
    75    68    67    1
    76   152   151    1
    77    14    13    1
    78    66    65   ar
    79    66    64   ar
    80    65    63   ar
    81   131   132    1
    82   151   153    1
    83   151   150    2
    84    47    46   ar
    85    47    45   ar
    86    13    10    1
    87    28    26   ar
    88   132   133    2
    89    64    62   ar
    90   149   150    1
    91   149   148    1
    92    63    61   ar
    93    46    44   ar
    94    45    43   ar
    95    27    26   ar
    96    10     9    1
    97    10    11    1
    98    26    25    1
    99   147   148    1
   100   147   144    1
   101    36    35   ar
   102    62    61   ar
   103    61    60    1
   104    44    43   ar
   105    11    12    2
   106    43    42    1
   107    25    24    1
   108   145   144    1
   109   145   146    2
   110    35    37   ar
   111    35    34    1
   112   144   143    1
   113    32    31    2
   114    59    58    2
   115    60    57    1
   116   143   136   am
   117    58    57    1
   118    33    34    1
   119    33    30    1
   120    21    24    1
   121    21    20    1
   122    21    22    1
   123    42    39    1
   124   134   135    1
   125   141   140   ar
   126    31    30    1
   127    31    38   am
   128    51    50    2
   129    57    56    1
   130    39    38    1
   131    39    40    1
   132    22    23    2
   133    30    29    1
   134   136   135    1
   135   136   137    2
   136   161   159    1
   137   135   138    1
   138    48    40   am
   139    48    49    1
   140   140   142   ar
   141   140   139    1
   142    50    49    1
   143    40    41    2
   144   138   139    1
   145    49    52    1
   146    52    53    1
   147   159   158    1
   148    54    53    1
   149    53    55    1
   150   158   160    1
   151   158   155    1
   152   155   154    1
   153   155   156    1
   154   157   156    2
