@<TRIPOS>MOLECULE
tmp/4cs4A01.pdb
 97 92 0 0 0
SMALL
GASTEIGER

@<TRIPOS>ATOM
      1  N        -13.2360   23.8760   14.0840 N.3    90  ILE90      -0.1245
      2  CA       -13.8240   24.4830   15.2730 C.3    90  ILE90       0.1561
      3  C        -13.0740   25.7740   15.6030 C.2    90  ILE90       0.2260
      4  O        -12.1910   25.7840   16.4610 O.2    90  ILE90      -0.2867
      5  CB       -13.7500   23.5070   16.4690 C.3    90  ILE90       0.0252
      6  CG1      -14.4430   22.1860   16.1200 C.3    90  ILE90       0.0019
      7  CG2      -14.3860   24.1150   17.7140 C.3    90  ILE90       0.0019
      8  CD1      -13.9900   21.0280   16.9620 C.3    90  ILE90       0.0001
      9  N        -19.2090   25.7070   19.7110 N.3    96  LEU96      -0.1245
     10  CA       -18.5020   24.5210   20.1920 C.3    96  LEU96       0.1561
     11  C        -17.2050   24.8830   20.9020 C.2    96  LEU96       0.2260
     12  O        -16.7800   24.2080   21.8370 O.2    96  LEU96      -0.2867
     13  CB       -18.1730   23.5820   19.0290 C.3    96  LEU96       0.0270
     14  CG       -18.9150   22.2540   18.9180 C.3    96  LEU96       0.0019
     15  CD1      -18.1730   21.3770   17.9130 C.3    96  LEU96       0.0001
     16  CD2      -19.0780   21.5340   20.2470 C.3    96  LEU96       0.0001
     17  N        -16.6390   25.0840   24.7310 N.3    99  GLN99      -0.1231
     18  CA       -16.4840   23.9200   25.5820 C.3    99  GLN99       0.1698
     19  C        -15.0270   23.5950   25.8780 C.2    99  GLN99       0.2592
     20  O        -14.7560   22.6860   26.6260 O.2    99  GLN99      -0.2718
     21  CB       -17.1230   22.6980   24.9250 C.3    99  GLN99       0.0381
     22  CG       -18.6250   22.7280   24.8230 C.3    99  GLN99       0.0905
     23  CD       -19.1900   21.3260   24.7170 C.2    99  GLN99       0.2608
     24  OE1      -19.1050   20.6820   23.6720 O.2    99  GLN99      -0.2717
     25  NE2      -19.7330   20.8310   25.8150 N.am   99  GLN99      -0.0878
     26  N        -14.0960   24.3120   25.2730 N.am  100  ILE100     -0.1980
     27  CA       -12.6890   23.9460   25.3430 C.3   100  ILE100      0.1595
     28  C        -12.0510   24.4330   26.6360 C.2   100  ILE100      0.2287
     29  O        -12.1650   25.6240   26.9820 O.2   100  ILE100     -0.2864
     30  CB       -11.9060   24.5490   24.1530 C.3   100  ILE100      0.0276
     31  CG1      -12.4460   24.0480   22.8060 C.3   100  ILE100      0.0022
     32  CG2      -10.4230   24.2300   24.2740 C.3   100  ILE100      0.0022
     33  CD1      -12.1160   22.6150   22.4940 C.3   100  ILE100      0.0001
     34  N        -10.7360   17.7450   23.7770 N.3   111  PRO111     -0.2102
     35  CA       -12.1650   17.4400   23.9520 C.3   111  PRO111      0.1504
     36  C        -12.6000   16.1900   23.2040 C.2   111  PRO111      0.2575
     37  O        -13.7620   15.7870   23.3340 O.2   111  PRO111     -0.2718
     38  CB       -12.8470   18.6710   23.3580 C.3   111  PRO111      0.0282
     39  CG       -11.9180   19.0840   22.2560 C.3   111  PRO111      0.0208
     40  CD       -10.5270   18.7780   22.7540 C.3   111  PRO111      0.0893
     41  N        -11.6810   15.6090   22.4390 N.am  112  MET112     -0.1980
     42  CA       -11.9710   14.5030   21.5340 C.3   112  MET112      0.1605
     43  C        -10.6380   13.8540   21.1840 C.2   112  MET112      0.2287
     44  O         -9.5830   14.4350   21.4440 O.2   112  MET112     -0.2864
     45  CB       -12.6540   15.0620   20.2580 C.3   112  MET112      0.0413
     46  CG       -11.6990   15.9150   19.3780 C.3   112  MET112      0.0598
     47  SD       -12.3980   17.0540   18.1840 S.3   112  MET112     -0.1393
     48  CE       -13.4390   16.0080   17.1980 C.3   112  MET112      0.0692
     49  N        -14.4710   18.6450   28.4300 N.3   142  ARG142     -0.1245
     50  CA       -15.3940   19.6160   27.8390 C.3   142  ARG142      0.1563
     51  C        -16.0970   20.3910   28.9370 C.2   142  ARG142      0.2260
     52  O        -16.5620   19.8250   29.9080 O.2   142  ARG142     -0.2867
     53  CB       -16.4650   18.9300   26.9870 C.3   142  ARG142      0.0307
     54  CG       -15.9290   18.2200   25.7870 C.3   142  ARG142      0.0489
     55  CD       -17.0040   17.4470   25.0390 C.3   142  ARG142      0.2205
     56  NE       -16.4040   16.6240   23.9890 N.pl3 142  ARG142     -0.0865
     57  CZ       -17.0910   16.0080   23.0220 C.cat 142  ARG142      0.5346
     58  NH1      -18.4180   16.1310   22.9440 N.pl3 142  ARG142      0.1354
     59  NH2      -16.4520   15.2710   22.1360 N.pl3 142  ARG142      0.1354
     60  N        -23.4380   15.9680   12.5470 N.3   193  CYS193     -0.1221
     61  CA       -22.8050   17.0510   13.2590 C.3   193  CYS193      0.1808
     62  C        -21.9670   17.8530   12.2970 C.2   193  CYS193      0.2601
     63  O        -21.6300   17.3890   11.2740 O.2   193  CYS193     -0.2717
     64  CB       -21.9680   16.5690   14.4520 C.3   193  CYS193      0.0970
     65  SG       -20.3930   15.8090   14.1070 S.3   193  CYS193     -0.0800
     66  N        -21.6320   19.0560   12.6780 N.am  194  MET194     -0.1965
     67  CA       -20.9610   19.9530   11.7600 C.3   194  MET194      0.1736
     68  C        -19.4900   19.6110   11.5390 C.2   194  MET194      0.2616
     69  O        -18.9210   19.9430   10.4840 O.2   194  MET194     -0.2715
     70  CB       -21.1230   21.3890   12.2380 C.3   194  MET194      0.0427
     71  CG       -22.5910   21.8260   12.2970 C.3   194  MET194      0.0599
     72  SD       -22.8630   23.5020   11.6880 S.3   194  MET194     -0.1393
     73  CE       -23.8480   24.1920   13.0200 C.3   194  MET194      0.0692
     74  N        -18.8590   18.9480   12.5030 N.am  195  VAL195     -0.1963
     75  CA       -17.4670   18.5760   12.3100 C.3   195  VAL195      0.1727
     76  C        -17.3240   17.4550   11.2890 C.2   195  VAL195      0.2616
     77  O        -16.4820   17.5500   10.4110 O.2   195  VAL195     -0.2715
     78  CB       -16.7630   18.1970   13.6210 C.3   195  VAL195      0.0290
     79  CG1      -15.3580   17.6580   13.3440 C.3   195  VAL195      0.0023
     80  CG2      -16.6790   19.4130   14.5320 C.3   195  VAL195      0.0023
     81  N        -18.1370   16.4040   11.3910 N.am  196  PHE196     -0.1974
     82  CA       -17.9540   15.2190   10.5600 C.3   196  PHE196      0.1639
     83  C        -18.9630   15.0210    9.4330 C.2   196  PHE196      0.2290
     84  O        -18.7330   14.2030    8.5450 O.2   196  PHE196     -0.2864
     85  CB       -17.9810   13.9800   11.4510 C.3   196  PHE196      0.0560
     86  CG       -16.8450   13.9170   12.4240 C.ar  196  PHE196     -0.0200
     87  CD1      -15.5660   13.6110   12.0030 C.ar  196  PHE196     -0.0042
     88  CD2      -17.0590   14.1410   13.7760 C.ar  196  PHE196     -0.0042
     89  CE1      -14.5110   13.5500   12.9160 C.ar  196  PHE196     -0.0003
     90  CE2      -16.0230   14.0810   14.6760 C.ar  196  PHE196     -0.0003
     91  CZ       -14.7510   13.7900   14.2490 C.ar  196  PHE196     -0.0000
     92  N        -21.1230    8.3560   18.6760 N.3   211  SER211     -0.1217
     93  CA       -21.3620    8.7670   17.2940 C.3   211  SER211      0.1889
     94  C        -20.2860    8.1390   16.4240 C.2   211  SER211      0.2288
     95  O        -19.1190    8.0970   16.7970 O.2   211  SER211     -0.2866
     96  CB       -21.2900   10.2780   17.1280 C.3   211  SER211      0.2089
     97  OG       -22.4160   10.9320   17.6640 O.3   211  SER211     -0.2183
@<TRIPOS>BOND
     1    84    83    2
     2    83    82    1
     3    77    76    2
     4    69    68    2
     5    82    81    1
     6    82    85    1
     7    63    62    2
     8    76    81   am
     9    76    75    1
    10    85    86    1
    11    68    67    1
    12    68    74   am
    13    72    71    1
    14    72    73    1
    15    67    70    1
    16    67    66    1
    17    87    86   ar
    18    87    89   ar
    19    70    71    1
    20    62    66   am
    21    62    61    1
    22    75    74    1
    23    75    78    1
    24    86    88   ar
    25    60    61    1
    26    89    91   ar
    27    61    64    1
    28    79    78    1
    29    78    80    1
    30    88    90   ar
    31     1     2    1
    32    65    64    1
    33    91    90   ar
    34     2     3    1
    35     2     5    1
    36     3     4    2
    37     6     5    1
    38     6     8    1
    39    94    95    2
    40    94    93    1
    41     5     7    1
    42    96    93    1
    43    96    97    1
    44    48    47    1
    45    93    92    1
    46    15    14    1
    47    47    46    1
    48    14    13    1
    49    14    16    1
    50    13    10    1
    51    46    45    1
    52     9    10    1
    53    10    11    1
    54    45    42    1
    55    11    12    2
    56    43    44    2
    57    43    42    1
    58    42    41    1
    59    59    57    1
    60    39    40    1
    61    39    38    1
    62    41    36   am
    63    33    31    1
    64    40    34    1
    65    31    30    1
    66    58    57    1
    67    57    56    2
    68    36    37    2
    69    36    35    1
    70    38    35    1
    71    24    23    2
    72    34    35    1
    73    56    55    1
    74    30    32    1
    75    30    27    1
    76    23    22    1
    77    23    25   am
    78    17    18    1
    79    22    21    1
    80    21    18    1
    81    55    54    1
    82    26    27    1
    83    26    19   am
    84    27    28    1
    85    18    19    1
    86    54    53    1
    87    19    20    2
    88    28    29    2
    89    53    50    1
    90    50    49    1
    91    50    51    1
    92    51    52    2
