@<TRIPOS>MOLECULE
tmp/4csdB04.pdb
 113 109 0 0 0
SMALL
GASTEIGER

@<TRIPOS>ATOM
      1  N        -10.5420  -25.5420   76.3930 N.3   189  TRP189     -0.1241
      2  CA        -9.3610  -24.9920   77.0440 C.3   189  TRP189      0.1605
      3  C         -8.1360  -25.8550   76.8030 C.2   189  TRP189      0.2264
      4  O         -8.2270  -27.0310   76.5130 O.2   189  TRP189     -0.2867
      5  CB        -9.5710  -24.8250   78.5340 C.3   189  TRP189      0.0550
      6  CG        -9.7700  -26.0950   79.3220 C.ar  189  TRP189      0.0003
      7  CD1       -8.8090  -26.8410   79.9450 C.ar  189  TRP189      0.0946
      8  CD2      -11.0170  -26.7410   79.6000 C.ar  189  TRP189      0.0152
      9  NE1       -9.3820  -27.9320   80.5500 N.ar  189  TRP189     -0.2442
     10  CE2      -10.7380  -27.8920   80.3690 C.ar  189  TRP189      0.0810
     11  CE3      -12.3350  -26.4650   79.2570 C.ar  189  TRP189      0.0012
     12  CZ2      -11.7490  -28.7460   80.8410 C.ar  189  TRP189      0.0191
     13  CZ3      -13.3230  -27.3330   79.6870 C.ar  189  TRP189      0.0001
     14  CH2      -13.0300  -28.4620   80.4630 C.ar  189  TRP189      0.0015
     15  N        -16.0370  -29.0930   76.2370 N.3   196  ARG196     -0.1245
     16  CA       -17.2940  -29.4750   76.8630 C.3   196  ARG196      0.1563
     17  C        -18.4250  -28.9580   76.0040 C.2   196  ARG196      0.2260
     18  O        -18.4160  -27.7550   75.6650 O.2   196  ARG196     -0.2867
     19  CB       -17.3980  -28.9650   78.2940 C.3   196  ARG196      0.0307
     20  CG       -16.3290  -29.4770   79.2460 C.3   196  ARG196      0.0489
     21  CD       -16.4780  -30.9630   79.5350 C.3   196  ARG196      0.2205
     22  NE       -15.4640  -31.4590   80.4500 N.pl3 196  ARG196     -0.0865
     23  CZ       -14.2630  -31.8920   80.1010 C.cat 196  ARG196      0.5346
     24  NH1      -13.8860  -31.9650   78.8220 N.pl3 196  ARG196      0.1354
     25  NH2      -13.4330  -32.3430   81.0190 N.pl3 196  ARG196      0.1354
     26  N        -24.1290  -33.0470   79.2880 N.3   207  GLU207     -0.1245
     27  CA       -22.7970  -32.6230   78.9350 C.3   207  GLU207      0.1567
     28  C        -22.0130  -33.7540   78.2930 C.2   207  GLU207      0.2260
     29  O        -21.9990  -34.8860   78.7930 O.2   207  GLU207     -0.2867
     30  CB       -22.1110  -32.1710   80.2200 C.3   207  GLU207      0.0388
     31  CG       -20.6680  -31.7260   80.1220 C.3   207  GLU207      0.1160
     32  CD       -19.9910  -31.6010   81.4740 C.2   207  GLU207      0.3649
     33  OE1      -20.0870  -32.5470   82.2750 O.co2 207  GLU207     -0.2457
     34  OE2      -19.3170  -30.5760   81.7040 O.co2 207  GLU207     -0.2457
     35  N        -18.0250  -34.5860   76.8060 N.3   209  CYS209     -0.1235
     36  CA       -16.7010  -34.2070   77.1210 C.3   209  CYS209      0.1677
     37  C        -15.6540  -34.8320   76.2400 C.2   209  CYS209      0.2270
     38  O        -15.7060  -36.0340   76.0030 O.2   209  CYS209     -0.2867
     39  CB       -16.3560  -34.6300   78.5480 C.3   209  CYS209      0.0956
     40  SG       -17.5780  -34.1630   79.8270 S.3   209  CYS209     -0.0801
     41  N        -11.4140  -34.9910   76.2740 N.3   211  ASP211     -0.1239
     42  CA       -10.1600  -34.7430   76.9340 C.3   211  ASP211      0.1674
     43  C         -9.0100  -35.3280   76.1300 C.2   211  ASP211      0.2266
     44  O         -7.9190  -35.5280   76.6880 O.2   211  ASP211     -0.2867
     45  CB       -10.1700  -35.3180   78.3520 C.3   211  ASP211      0.1410
     46  CG       -11.0800  -34.5530   79.3060 C.2   211  ASP211      0.3668
     47  OD1      -11.2060  -33.3140   79.1840 O.co2 211  ASP211     -0.2456
     48  OD2      -11.5990  -35.2100   80.2350 O.co2 211  ASP211     -0.2456
     49  N        -17.0610  -38.6370   76.0800 N.3   216  TYR216     -0.1241
     50  CA       -17.7740  -39.3050   77.1550 C.3   216  TYR216      0.1605
     51  C        -18.8360  -38.3670   77.7210 C.2   216  TYR216      0.2264
     52  O        -18.8180  -37.1570   77.4720 O.2   216  TYR216     -0.2867
     53  CB       -16.7960  -39.8380   78.2180 C.3   216  TYR216      0.0534
     54  CG       -16.0540  -38.7700   78.9980 C.ar  216  TYR216     -0.0201
     55  CD1      -14.8310  -38.2740   78.5450 C.ar  216  TYR216     -0.0009
     56  CD2      -16.5570  -38.2800   80.1970 C.ar  216  TYR216     -0.0009
     57  CE1      -14.1360  -37.3110   79.2600 C.ar  216  TYR216      0.0417
     58  CE2      -15.8800  -37.3060   80.9220 C.ar  216  TYR216      0.0417
     59  CZ       -14.6660  -36.8210   80.4680 C.ar  216  TYR216      0.1957
     60  OH       -13.9900  -35.8580   81.2230 O.3   216  TYR216     -0.2866
     61  N        -20.3810  -36.3670   80.6700 N.3   218  GLY218     -0.1210
     62  CA       -19.9040  -35.7290   81.8830 C.3   218  GLY218      0.1956
     63  C        -20.8610  -35.7930   83.0330 C.2   218  GLY218      0.2611
     64  O        -22.0310  -36.1610   82.8890 O.2   218  GLY218     -0.2717
     65  N        -20.4140  -35.2700   84.1690 N.am  219  ALA219     -0.1979
     66  CA       -21.1970  -35.2730   85.3930 C.3   219  ALA219      0.1597
     67  C        -22.3500  -34.2670   85.3960 C.2   219  ALA219      0.2287
     68  O        -23.2920  -34.4200   86.1630 O.2   219  ALA219     -0.2864
     69  CB       -20.2750  -35.0160   86.5790 C.3   219  ALA219      0.0319
     70  N         -9.1370  -25.4270   85.4830 N.3   238  ILE238     -0.1245
     71  CA       -10.2960  -24.9270   84.7270 C.3   238  ILE238      0.1561
     72  C        -11.4340  -24.5200   85.6410 C.2   238  ILE238      0.2260
     73  O        -11.7270  -25.1530   86.6470 O.2   238  ILE238     -0.2867
     74  CB       -10.7850  -25.9400   83.6540 C.3   238  ILE238      0.0252
     75  CG1      -11.7590  -25.2840   82.6650 C.3   238  ILE238      0.0019
     76  CG2      -11.3800  -27.1720   84.3130 C.3   238  ILE238      0.0019
     77  CD1      -11.1600  -24.1950   81.8360 C.3   238  ILE238      0.0001
     78  N        -15.5100  -23.3410   85.0580 N.3   240  ILE240     -0.1245
     79  CA       -16.5970  -23.3260   84.0700 C.3   240  ILE240      0.1561
     80  C        -17.8240  -22.7060   84.6700 C.2   240  ILE240      0.2260
     81  O        -18.1630  -22.9930   85.8270 O.2   240  ILE240     -0.2867
     82  CB       -16.9190  -24.7250   83.5160 C.3   240  ILE240      0.0252
     83  CG1      -15.6450  -25.4930   83.0730 C.3   240  ILE240      0.0019
     84  CG2      -17.8900  -24.6600   82.3540 C.3   240  ILE240      0.0019
     85  CD1      -15.9110  -26.9690   82.7790 C.3   240  ILE240      0.0001
     86  N        -18.2810  -24.9650   87.9600 N.3   255  TRP255     -0.1241
     87  CA       -17.2770  -26.0020   88.1630 C.3   255  TRP255      0.1605
     88  C        -15.9620  -25.3100   88.4960 C.2   255  TRP255      0.2264
     89  O        -15.4970  -24.4980   87.7490 O.2   255  TRP255     -0.2867
     90  CB       -17.0740  -26.8430   86.9230 C.3   255  TRP255      0.0550
     91  CG       -15.9700  -27.8500   87.1080 C.ar  255  TRP255      0.0003
     92  CD1      -14.5970  -27.6800   86.9340 C.ar  255  TRP255      0.0946
     93  CD2      -16.1500  -29.1600   87.5610 C.ar  255  TRP255      0.0152
     94  NE1      -13.9410  -28.8130   87.2670 N.ar  255  TRP255     -0.2442
     95  CE2      -14.8650  -29.7670   87.6220 C.ar  255  TRP255      0.0810
     96  CE3      -17.2720  -29.9060   87.8740 C.ar  255  TRP255      0.0012
     97  CZ2      -14.6770  -31.1110   88.0290 C.ar  255  TRP255      0.0191
     98  CZ3      -17.0870  -31.2350   88.2570 C.ar  255  TRP255      0.0001
     99  CH2      -15.8090  -31.8090   88.3400 C.ar  255  TRP255      0.0015
    100  N        -20.1160  -29.4480   90.6440 N.3   260  TRP260     -0.1241
    101  CA       -20.9370  -28.3530   90.1690 C.3   260  TRP260      0.1605
    102  C        -21.7030  -27.7400   91.3120 C.2   260  TRP260      0.2264
    103  O        -22.3180  -28.4500   92.1130 O.2   260  TRP260     -0.2867
    104  CB       -21.9170  -28.8500   89.1040 C.3   260  TRP260      0.0550
    105  CG       -21.2060  -29.2350   87.8070 C.ar  260  TRP260      0.0003
    106  CD1      -20.8600  -30.4650   87.4140 C.ar  260  TRP260      0.0946
    107  CD2      -20.8050  -28.3470   86.7580 C.ar  260  TRP260      0.0152
    108  NE1      -20.2510  -30.4290   86.1830 N.ar  260  TRP260     -0.2442
    109  CE2      -20.1800  -29.1270   85.7700 C.ar  260  TRP260      0.0810
    110  CE3      -20.8880  -26.9510   86.5590 C.ar  260  TRP260      0.0012
    111  CZ2      -19.6790  -28.5880   84.5980 C.ar  260  TRP260      0.0191
    112  CZ3      -20.4120  -26.4400   85.3970 C.ar  260  TRP260      0.0001
    113  CH2      -19.8110  -27.2230   84.4350 C.ar  260  TRP260      0.0015
@<TRIPOS>BOND
     1    18    17    2
     2    38    37    2
     3    17    16    1
     4    49    50    1
     5    43    44    2
     6    43    42    1
     7    15    16    1
     8    37    36    1
     9    41    42    1
    10     1     2    1
    11     4     3    2
    12     3     2    1
    13    35    36    1
    14    16    19    1
    15    42    45    1
    16     2     5    1
    17    36    39    1
    18    50    51    1
    19    50    53    1
    20    52    51    2
    21    53    54    1
    22    28    29    2
    23    28    27    1
    24    19    20    1
    25    45    46    1
    26     5     6    1
    27    55    54   ar
    28    55    57   ar
    29    39    40    1
    30    24    23    1
    31    27    26    1
    32    27    30    1
    33    54    56   ar
    34    47    46   ar
    35    20    21    1
    36    11     8   ar
    37    11    13   ar
    38    57    59   ar
    39    46    48   ar
    40     6     8   ar
    41     6     7   ar
    42    21    22    1
    43     8    10   ar
    44    13    14   ar
    45     7     9   ar
    46    23    22    2
    47    23    25    1
    48    31    30    1
    49    31    32    1
    50    56    58   ar
    51    10     9   ar
    52    10    12   ar
    53    14    12   ar
    54    59    58   ar
    55    59    60    1
    56    61    62    1
    57    32    34   ar
    58    32    33   ar
    59    77    75    1
    60    62    63    1
    61    84    82    1
    62    75    74    1
    63    85    83    1
    64    64    63    2
    65    63    65   am
    66    83    82    1
    67    82    79    1
    68    74    76    1
    69    74    71    1
    70    79    80    1
    71    79    78    1
    72    65    66    1
    73   113   111   ar
    74   113   112   ar
    75   111   109   ar
    76    80    81    2
    77    71    70    1
    78    71    72    1
    79    66    67    1
    80    66    69    1
    81    67    68    2
    82   112   110   ar
    83    72    73    2
    84   109   108   ar
    85   109   107   ar
    86   108   106   ar
    87   110   107   ar
    88   107   105   ar
    89    90    91    1
    90    90    87    1
    91    92    91   ar
    92    92    94   ar
    93    91    93   ar
    94    94    95   ar
    95   106   105   ar
    96    93    95   ar
    97    93    96   ar
    98    95    97   ar
    99    89    88    2
   100   105   104    1
   101    96    98   ar
   102    86    87    1
   103    97    99   ar
   104    87    88    1
   105    98    99   ar
   106   104   101    1
   107   101   100    1
   108   101   102    1
   109   102   103    2
