@<TRIPOS>MOLECULE
tmp/4csdB05.pdb
 107 104 0 0 0
SMALL
GASTEIGER

@<TRIPOS>ATOM
      1  N         -9.5510  -13.2710   87.2830 N.3    13  VAL13      -0.1231
      2  CA       -10.3940  -12.9190   88.4060 C.3    13  VAL13       0.1678
      3  C        -11.6230  -13.8430   88.5550 C.2    13  VAL13       0.2434
      4  O        -11.8810  -14.3410   89.6310 O.2    13  VAL13      -0.2733
      5  CB       -10.7230  -11.4230   88.4030 C.3    13  VAL13       0.0265
      6  CG1      -11.7050  -11.0840   89.5110 C.3    13  VAL13       0.0020
      7  CG2       -9.4370  -10.5750   88.5580 C.3    13  VAL13       0.0020
      8  N        -12.4110  -14.0690   87.5080 N.am   14  PRO14      -0.2729
      9  CA       -12.4120  -13.4120   86.2040 C.3    14  PRO14       0.1401
     10  C        -13.3770  -12.2320   86.1540 C.2    14  PRO14       0.2269
     11  O        -14.0840  -11.9680   87.1210 O.2    14  PRO14      -0.2865
     12  CB       -13.0030  -14.5130   85.3110 C.3    14  PRO14       0.0296
     13  CG       -14.1000  -15.0430   86.1810 C.3    14  PRO14       0.0237
     14  CD       -13.5490  -15.0200   87.5890 C.3    14  PRO14       0.0939
     15  N        -16.7940  -11.6310   83.9590 N.3    16  ILE16      -0.1245
     16  CA       -17.8080  -12.3420   83.1770 C.3    16  ILE16       0.1561
     17  C        -18.8540  -11.3320   82.7350 C.2    16  ILE16       0.2260
     18  O        -19.2240  -10.4470   83.4740 O.2    16  ILE16      -0.2867
     19  CB       -18.5030  -13.4630   83.9920 C.3    16  ILE16       0.0252
     20  CG1      -17.5190  -14.4100   84.6260 C.3    16  ILE16       0.0019
     21  CG2      -19.4700  -14.2390   83.0990 C.3    16  ILE16       0.0019
     22  CD1      -18.1320  -15.3730   85.6270 C.3    16  ILE16       0.0001
     23  N        -19.9020   -9.4430   86.1750 N.3    31  TRP31      -0.1241
     24  CA       -19.1240   -9.8210   87.3450 C.3    31  TRP31       0.1605
     25  C        -17.6840   -9.4240   87.1380 C.2    31  TRP31       0.2264
     26  O        -17.1040   -9.7320   86.1080 O.2    31  TRP31      -0.2867
     27  CB       -19.1910  -11.3700   87.4930 C.3    31  TRP31       0.0550
     28  CG       -18.3220  -11.9290   88.6250 C.ar   31  TRP31       0.0003
     29  CD1      -17.0080  -12.3000   88.5600 C.ar   31  TRP31       0.0946
     30  CD2      -18.7510  -12.1640   89.9540 C.ar   31  TRP31       0.0152
     31  NE1      -16.5930  -12.7230   89.7750 N.ar   31  TRP31      -0.2442
     32  CE2      -17.6470  -12.6750   90.6510 C.ar   31  TRP31       0.0810
     33  CE3      -19.9600  -12.0300   90.6070 C.ar   31  TRP31       0.0012
     34  CZ2      -17.7110  -13.0720   91.9920 C.ar   31  TRP31       0.0191
     35  CZ3      -20.0430  -12.4530   91.9650 C.ar   31  TRP31       0.0001
     36  CH2      -18.9170  -12.9440   92.6210 C.ar   31  TRP31       0.0015
     37  N        -22.6210   -9.2770   91.1210 N.3    36  TRP36      -0.1241
     38  CA       -23.2290   -9.0550   89.8110 C.3    36  TRP36       0.1605
     39  C        -23.8560   -7.6920   89.7500 C.2    36  TRP36       0.2264
     40  O        -24.5250   -7.2850   90.7090 O.2    36  TRP36      -0.2867
     41  CB       -24.2490  -10.1430   89.4960 C.3    36  TRP36       0.0550
     42  CG       -23.6470  -11.4830   89.2400 C.ar   36  TRP36       0.0003
     43  CD1      -23.4260  -12.4770   90.1450 C.ar   36  TRP36       0.0946
     44  CD2      -23.1050  -11.9600   87.9920 C.ar   36  TRP36       0.0152
     45  NE1      -22.7890  -13.5340   89.5600 N.ar   36  TRP36      -0.2442
     46  CE2      -22.5720  -13.2530   88.2400 C.ar   36  TRP36       0.0810
     47  CE3      -23.0100  -11.4340   86.6940 C.ar   36  TRP36       0.0012
     48  CZ2      -22.0070  -14.0310   87.2160 C.ar   36  TRP36       0.0191
     49  CZ3      -22.3990  -12.1800   85.7090 C.ar   36  TRP36       0.0001
     50  CH2      -21.9240  -13.4720   85.9730 C.ar   36  TRP36       0.0015
     51  N        -12.5500  -20.3520   82.0200 N.3   232  TRP232     -0.1241
     52  CA       -11.2500  -19.7470   82.1350 C.3   232  TRP232      0.1605
     53  C        -10.3560  -20.6050   82.9640 C.2   232  TRP232      0.2264
     54  O        -10.7840  -21.3550   83.8240 O.2   232  TRP232     -0.2867
     55  CB       -11.3390  -18.2940   82.7140 C.3   232  TRP232      0.0550
     56  CG       -11.7730  -18.2540   84.1400 C.ar  232  TRP232      0.0003
     57  CD1      -10.9740  -18.2080   85.2470 C.ar  232  TRP232      0.0946
     58  CD2      -13.1250  -18.3060   84.6210 C.ar  232  TRP232      0.0152
     59  NE1      -11.7480  -18.2570   86.3780 N.ar  232  TRP232     -0.2442
     60  CE2      -13.0700  -18.3110   86.0270 C.ar  232  TRP232      0.0810
     61  CE3      -14.3710  -18.3360   84.0090 C.ar  232  TRP232      0.0012
     62  CZ2      -14.2150  -18.3910   86.8260 C.ar  232  TRP232      0.0191
     63  CZ3      -15.5070  -18.4110   84.8040 C.ar  232  TRP232      0.0001
     64  CH2      -15.4330  -18.4070   86.2010 C.ar  232  TRP232      0.0015
     65  N        -18.5250  -21.8860   83.8960 N.3   241  ARG241     -0.1245
     66  CA       -19.8220  -21.3800   84.2890 C.3   241  ARG241      0.1563
     67  C        -20.8230  -21.6930   83.2050 C.2   241  ARG241      0.2260
     68  O        -20.6560  -21.2920   82.0480 O.2   241  ARG241     -0.2867
     69  CB       -19.7800  -19.8780   84.5710 C.3   241  ARG241      0.0307
     70  CG       -18.8740  -19.4550   85.6870 C.3   241  ARG241      0.0489
     71  CD       -19.3390  -19.9460   87.0580 C.3   241  ARG241      0.2205
     72  NE       -18.4210  -19.5710   88.1340 N.pl3 241  ARG241     -0.0865
     73  CZ       -17.3790  -20.2670   88.5510 C.cat 241  ARG241      0.5346
     74  NH1      -17.0270  -21.3980   87.9740 N.pl3 241  ARG241      0.1354
     75  NH2      -16.6290  -19.7870   89.5440 N.pl3 241  ARG241      0.1354
     76  N        -27.0190  -20.1910   87.2940 N.3   252  GLU252     -0.1245
     77  CA       -25.5950  -20.3680   87.0080 C.3   252  GLU252      0.1567
     78  C        -25.1080  -21.5900   87.7790 C.2   252  GLU252      0.2260
     79  O        -25.3470  -21.7280   88.9840 O.2   252  GLU252     -0.2867
     80  CB       -24.8470  -19.1360   87.4320 C.3   252  GLU252      0.0388
     81  CG       -23.3340  -19.2270   87.2810 C.3   252  GLU252      0.1160
     82  CD       -22.6260  -18.0370   87.9290 C.2   252  GLU252      0.3649
     83  OE1      -22.9100  -17.7720   89.1170 O.co2 252  GLU252     -0.2457
     84  OE2      -21.7640  -17.4120   87.2880 O.co2 252  GLU252     -0.2457
     85  N        -21.5000  -23.8060   88.5250 N.3   254  CYS254     -0.1235
     86  CA       -20.0840  -23.5210   88.6310 C.3   254  CYS254      0.1677
     87  C        -19.2680  -24.7580   88.8080 C.2   254  CYS254      0.2270
     88  O        -19.5110  -25.5040   89.7710 O.2   254  CYS254     -0.2867
     89  CB       -19.8450  -22.6250   89.8600 C.3   254  CYS254      0.0956
     90  SG       -20.8450  -21.1170   89.9520 S.3   254  CYS254     -0.0801
     91  N        -15.3890  -25.6340   89.6540 N.3   256  ASP256     -0.1239
     92  CA       -14.1610  -25.0600   90.1350 C.3   256  ASP256      0.1674
     93  C        -13.2070  -26.1310   90.6470 C.2   256  ASP256      0.2266
     94  O        -12.3650  -25.8470   91.4890 O.2   256  ASP256     -0.2867
     95  CB       -14.4530  -23.9950   91.1880 C.3   256  ASP256      0.1410
     96  CG       -15.3120  -22.8740   90.6390 C.2   256  ASP256      0.3668
     97  OD1      -14.8260  -22.0420   89.8500 O.co2 256  ASP256     -0.2456
     98  OD2      -16.5020  -22.8300   90.9910 O.co2 256  ASP256     -0.2456
     99  N        -24.2670  -21.0220   91.4770 N.3   263  GLY263     -0.1210
    100  CA       -23.5980  -19.7360   91.5870 C.3   263  GLY263      0.1956
    101  C        -24.4920  -18.6020   92.0590 C.2   263  GLY263      0.2611
    102  O        -25.7190  -18.7530   92.1050 O.2   263  GLY263     -0.2717
    103  N        -23.8830  -17.4600   92.3170 N.am  264  ALA264     -0.1979
    104  CA       -24.5660  -16.2940   92.7930 C.3   264  ALA264      0.1597
    105  C        -25.3280  -15.5130   91.7460 C.2   264  ALA264      0.2287
    106  O        -26.0440  -14.5730   92.0940 O.2   264  ALA264     -0.2864
    107  CB       -23.5620  -15.3660   93.4850 C.3   264  ALA264      0.0319
@<TRIPOS>BOND
     1    51    52    1
     2    68    67    2
     3    52    55    1
     4    52    53    1
     5    55    56    1
     6    17    16    1
     7    17    18    2
     8    53    54    2
     9    21    19    1
    10    16    15    1
    11    16    19    1
    12    67    66    1
    13    65    66    1
    14    19    20    1
    15    61    58   ar
    16    61    63   ar
    17    56    58   ar
    18    56    57   ar
    19    66    69    1
    20    69    70    1
    21    58    60   ar
    22    20    22    1
    23    63    64   ar
    24    57    59   ar
    25    12    13    1
    26    12     9    1
    27    70    71    1
    28    49    50   ar
    29    49    47   ar
    30    50    48   ar
    31    60    59   ar
    32    60    62   ar
    33    26    25    2
    34    10     9    1
    35    10    11    2
    36    23    24    1
    37    13    14    1
    38    64    62   ar
    39     9     8    1
    40    47    44   ar
    41    77    76    1
    42    77    80    1
    43    77    78    1
    44    71    72    1
    45    25    24    1
    46    48    46   ar
    47    81    80    1
    48    81    82    1
    49     1     2    1
    50    84    82   ar
    51    24    27    1
    52    27    28    1
    53     8    14    1
    54     8     3   am
    55    78    79    2
    56    82    83   ar
    57    74    73    1
    58    44    46   ar
    59    44    42   ar
    60    72    73    2
    61    46    45   ar
    62     5     2    1
    63     5     7    1
    64     5     6    1
    65     2     3    1
    66    85    86    1
    67    73    75    1
    68     3     4    2
    69    29    28   ar
    70    29    31   ar
    71    28    30   ar
    72    86    87    1
    73    86    89    1
    74    87    88    2
    75    42    41    1
    76    42    43   ar
    77    41    38    1
    78    45    43   ar
    79    91    92    1
    80    39    38    1
    81    39    40    2
    82    31    32   ar
    83    38    37    1
    84    97    96   ar
    85    89    90    1
    86    30    33   ar
    87    30    32   ar
    88    92    93    1
    89    92    95    1
    90    33    35   ar
    91    96    98   ar
    92    96    95    1
    93    93    94    2
    94    32    34   ar
    95    99   100    1
    96   100   101    1
    97   105   106    2
    98   105   104    1
    99    35    36   ar
   100    34    36   ar
   101   101   102    2
   102   101   103   am
   103   103   104    1
   104   104   107    1
