@<TRIPOS>MOLECULE
tmp/4csdB00.pdb
 120 117 0 0 0
SMALL
GASTEIGER

@<TRIPOS>ATOM
      1  N        -13.0210  -13.1120   80.8460 N.3    10  TRP10      -0.1241
      2  CA       -11.6180  -12.7810   80.5950 C.3    10  TRP10       0.1605
      3  C        -10.8390  -12.6960   81.8670 C.2    10  TRP10       0.2264
      4  O        -11.3690  -12.3770   82.9210 O.2    10  TRP10      -0.2867
      5  CB       -11.4630  -11.4930   79.7470 C.3    10  TRP10       0.0550
      6  CG       -11.9480  -10.2420   80.3630 C.ar   10  TRP10       0.0003
      7  CD1      -11.2310   -9.3540   81.1180 C.ar   10  TRP10       0.0946
      8  CD2      -13.2780   -9.7050   80.2580 C.ar   10  TRP10       0.0152
      9  NE1      -12.0070   -8.2790   81.4240 N.ar   10  TRP10      -0.2442
     10  CE2      -13.2670   -8.4590   80.9370 C.ar   10  TRP10       0.0810
     11  CE3      -14.4490  -10.1290   79.6260 C.ar   10  TRP10       0.0012
     12  CZ2      -14.4070   -7.6580   81.0190 C.ar   10  TRP10       0.0191
     13  CZ3      -15.5750   -9.3380   79.7070 C.ar   10  TRP10       0.0001
     14  CH2      -15.5510   -8.1150   80.4140 C.ar   10  TRP10       0.0015
     15  N        -19.3340  -11.4850   81.5120 N.3    17  ARG17      -0.1245
     16  CA       -20.4970  -10.7530   81.0120 C.3    17  ARG17       0.1563
     17  C        -21.4840  -11.7600   80.5010 C.2    17  ARG17       0.2260
     18  O        -21.1320  -12.6160   79.6940 O.2    17  ARG17      -0.2867
     19  CB       -20.1380   -9.7470   79.9430 C.3    17  ARG17       0.0307
     20  CG       -19.1240   -8.6910   80.3940 C.3    17  ARG17       0.0489
     21  CD       -19.7120   -7.7270   81.4460 C.3    17  ARG17       0.2205
     22  NE       -18.7710   -6.6820   81.8360 N.pl3  17  ARG17      -0.0865
     23  CZ       -17.9160   -6.7780   82.8390 C.cat  17  ARG17       0.5346
     24  NH1      -17.8360   -7.8700   83.5560 N.pl3  17  ARG17       0.1354
     25  NH2      -17.1340   -5.7760   83.1420 N.pl3  17  ARG17       0.1354
     26  N        -27.5560   -6.9420   80.0350 N.3    28  GLU28      -0.1245
     27  CA       -26.2270   -7.4340   80.3860 C.3    28  GLU28       0.1567
     28  C        -26.0650   -7.4500   81.8750 C.2    28  GLU28       0.2260
     29  O        -26.4090   -6.4630   82.5720 O.2    28  GLU28      -0.2867
     30  CB       -25.1650   -6.5170   79.7660 C.3    28  GLU28       0.0388
     31  CG       -23.7120   -6.8450   80.0470 C.3    28  GLU28       0.1160
     32  CD       -22.7540   -5.7430   79.6300 C.2    28  GLU28       0.3649
     33  OE1      -23.0790   -4.5760   79.9030 O.co2  28  GLU28      -0.2457
     34  OE2      -21.6950   -6.0100   79.0630 O.co2  28  GLU28      -0.2457
     35  N        -22.9720   -8.3460   84.8430 N.3    30  CYS30      -0.1235
     36  CA       -21.5440   -8.2340   84.8860 C.3    30  CYS30       0.1677
     37  C        -21.0060   -8.7130   86.2110 C.2    30  CYS30       0.2270
     38  O        -21.5300   -8.3500   87.2540 O.2    30  CYS30      -0.2867
     39  CB       -21.1410   -6.7760   84.7420 C.3    30  CYS30       0.0956
     40  SG       -21.8570   -5.8870   83.3470 S.3    30  CYS30      -0.0801
     41  N        -17.1040   -8.7260   88.1140 N.3    32  ASP32      -0.1239
     42  CA       -15.7060   -8.3530   88.0880 C.3    32  ASP32       0.1674
     43  C        -14.9820   -8.7930   89.3570 C.2    32  ASP32       0.2266
     44  O        -13.9190   -8.2850   89.6750 O.2    32  ASP32      -0.2867
     45  CB       -15.4780   -6.8530   87.8630 C.3    32  ASP32       0.1410
     46  CG       -16.0220   -6.3270   86.5690 C.2    32  ASP32       0.3668
     47  OD1      -15.7880   -6.9110   85.5080 O.co2  32  ASP32      -0.2456
     48  OD2      -16.6280   -5.2340   86.6080 O.co2  32  ASP32      -0.2456
     49  N        -23.7240   -7.0200   88.6440 N.3    37  TYR37      -0.1227
     50  CA       -24.3520   -5.7270   88.4450 C.3    37  TYR37       0.1736
     51  C        -24.8350   -5.5900   87.0100 C.2    37  TYR37       0.2596
     52  O        -24.3720   -6.2550   86.0920 O.2    37  TYR37      -0.2718
     53  CB       -23.4220   -4.5600   88.8480 C.3    37  TYR37       0.0548
     54  CG       -22.1850   -4.4190   87.9900 C.ar   37  TYR37      -0.0200
     55  CD1      -20.9870   -5.1080   88.2960 C.ar   37  TYR37      -0.0009
     56  CD2      -22.1640   -3.5530   86.9150 C.ar   37  TYR37      -0.0009
     57  CE1      -19.8760   -4.9870   87.4850 C.ar   37  TYR37       0.0417
     58  CE2      -21.0590   -3.4470   86.0990 C.ar   37  TYR37       0.0417
     59  CZ       -19.9020   -4.1320   86.3890 C.ar   37  TYR37       0.1957
     60  OH       -18.7890   -4.0130   85.5600 O.3    37  TYR37      -0.2866
     61  N        -25.8020   -4.7010   86.8250 N.am   38  THR38      -0.1939
     62  CA       -26.3840   -4.4800   85.5050 C.3    38  THR38       0.2028
     63  C        -25.4870   -3.5880   84.6790 C.2    38  THR38       0.2643
     64  O        -25.1090   -2.5060   85.1000 O.2    38  THR38      -0.2714
     65  CB       -27.7960   -3.8980   85.6480 C.3    38  THR38       0.1808
     66  OG1      -28.5890   -4.8660   86.3220 O.3    38  THR38      -0.2208
     67  CG2      -28.4120   -3.5910   84.3010 C.3    38  THR38       0.0379
     68  N        -25.1110   -4.0730   83.5110 N.am   39  GLY39      -0.1939
     69  CA       -24.1930   -3.3810   82.6490 C.3    39  GLY39       0.2014
     70  C        -24.8500   -2.3150   81.7970 C.2    39  GLY39       0.2638
     71  O        -26.0780   -2.2170   81.7510 O.2    39  GLY39      -0.2714
     72  N        -24.0300   -1.5750   81.0950 N.am   40  ALA40      -0.1977
     73  CA       -24.5110   -0.4940   80.2230 C.3    40  ALA40       0.1597
     74  C        -25.1890   -1.0050   78.9520 C.2    40  ALA40       0.2287
     75  O        -25.8810   -0.2740   78.3020 O.2    40  ALA40      -0.2864
     76  CB       -23.3530    0.3990   79.8530 C.3    40  ALA40       0.0319
     77  N        -10.1590   -5.0000   77.4570 N.3    59  ILE59      -0.1245
     78  CA       -11.1380   -5.9280   76.8870 C.3    59  ILE59       0.1561
     79  C        -11.8350   -5.3130   75.6670 C.2    59  ILE59       0.2260
     80  O        -12.1360   -4.1270   75.6040 O.2    59  ILE59      -0.2867
     81  CB       -12.1710   -6.3900   77.9470 C.3    59  ILE59       0.0252
     82  CG1      -12.9810   -7.5980   77.4400 C.3    59  ILE59       0.0019
     83  CG2      -13.1090   -5.2710   78.3800 C.3    59  ILE59       0.0019
     84  CD1      -12.1570   -8.8640   77.1820 C.3    59  ILE59       0.0001
     85  N        -15.2140   -6.4600   73.3130 N.3    61  ILE61      -0.1245
     86  CA       -16.3590   -7.3610   73.2900 C.3    61  ILE61       0.1561
     87  C        -17.1380   -7.0890   72.0120 C.2    61  ILE61       0.2260
     88  O        -17.2880   -5.9440   71.5990 O.2    61  ILE61      -0.2867
     89  CB       -17.2790   -7.1740   74.5160 C.3    61  ILE61       0.0252
     90  CG1      -16.4960   -7.1330   75.8250 C.3    61  ILE61       0.0019
     91  CG2      -18.3740   -8.2350   74.5420 C.3    61  ILE61       0.0019
     92  CD1      -17.3240   -6.7350   77.0250 C.3    61  ILE61       0.0001
     93  N        -17.7290   -3.0970   72.2250 N.3    76  TRP76      -0.1241
     94  CA       -17.1070   -2.4430   73.3730 C.3    76  TRP76       0.1605
     95  C        -15.6090   -2.4880   73.1570 C.2    76  TRP76       0.2264
     96  O        -15.0290   -3.5610   73.0000 O.2    76  TRP76      -0.2867
     97  CB       -17.4540   -3.1630   74.6840 C.3    76  TRP76       0.0550
     98  CG       -16.7940   -2.5050   75.8520 C.ar   76  TRP76       0.0003
     99  CD1      -15.5590   -2.7840   76.3860 C.ar   76  TRP76       0.0946
    100  CD2      -17.3380   -1.4310   76.6360 C.ar   76  TRP76       0.0152
    101  NE1      -15.3080   -1.9520   77.4370 N.ar   76  TRP76      -0.2442
    102  CE2      -16.3740   -1.1140   77.6160 C.ar   76  TRP76       0.0810
    103  CE3      -18.5630   -0.7570   76.6280 C.ar   76  TRP76       0.0012
    104  CZ2      -16.5790   -0.1160   78.5650 C.ar   76  TRP76       0.0191
    105  CZ3      -18.7560    0.2050   77.5760 C.ar   76  TRP76       0.0001
    106  CH2      -17.7790    0.5170   78.5250 C.ar   76  TRP76       0.0015
    107  N        -20.6290    1.5300   74.0400 N.3    81  TRP81      -0.1241
    108  CA       -21.0590    0.5460   73.0560 C.3    81  TRP81       0.1605
    109  C        -21.3480    1.2270   71.7430 C.2    81  TRP81       0.2264
    110  O        -22.1510    2.1800   71.6680 O.2    81  TRP81      -0.2867
    111  CB       -22.3250   -0.1630   73.5230 C.3    81  TRP81       0.0550
    112  CG       -22.0350   -1.1440   74.6390 C.ar   81  TRP81       0.0003
    113  CD1      -22.1580   -0.9270   75.9930 C.ar   81  TRP81       0.0946
    114  CD2      -21.5190   -2.4680   74.4980 C.ar   81  TRP81       0.0152
    115  NE1      -21.7770   -2.0290   76.6840 N.ar   81  TRP81      -0.2442
    116  CE2      -21.3830   -2.9990   75.7840 C.ar   81  TRP81       0.0810
    117  CE3      -21.1970   -3.2900   73.3970 C.ar   81  TRP81       0.0012
    118  CZ2      -20.9660   -4.3050   76.0090 C.ar   81  TRP81       0.0191
    119  CZ3      -20.7690   -4.5790   73.6290 C.ar   81  TRP81       0.0001
    120  CH2      -20.6430   -5.0730   74.9230 C.ar   81  TRP81       0.0015
@<TRIPOS>BOND
     1    88    87    2
     2   110   109    2
     3   109   108    1
     4    87    86    1
     5    93    94    1
     6    96    95    2
     7   108   111    1
     8   108   107    1
     9    95    94    1
    10    86    85    1
    11    86    89    1
    12    94    97    1
    13   117   119   ar
    14   117   114   ar
    15   111   112    1
    16   119   120   ar
    17   114   112   ar
    18   114   116   ar
    19    89    91    1
    20    89    90    1
    21   112   113   ar
    22    97    98    1
    23   120   118   ar
    24    80    79    2
    25    79    78    1
    26   116   118   ar
    27   116   115   ar
    28    90    92    1
    29    98    99   ar
    30    98   100   ar
    31   113   115   ar
    32    99   101   ar
    33   103   100   ar
    34   103   105   ar
    35   100   102   ar
    36    78    77    1
    37    78    81    1
    38    84    82    1
    39   101   102   ar
    40    82    81    1
    41   105   106   ar
    42   102   104   ar
    43    81    83    1
    44    75    74    2
    45   106   104   ar
    46    74    73    1
    47    34    32   ar
    48    11    13   ar
    49    11     8   ar
    50    32    33   ar
    51    32    31    1
    52    18    17    2
    53    13    14   ar
    54     5     6    1
    55     5     2    1
    56    30    31    1
    57    30    27    1
    58    76    73    1
    59    19    20    1
    60    19    16    1
    61    26    27    1
    62    73    72    1
    63     8     6   ar
    64     8    10   ar
    65     6     7   ar
    66    27    28    1
    67    20    21    1
    68    14    12   ar
    69    17    16    1
    70     2     1    1
    71     2     3    1
    72    10    12   ar
    73    10     9   ar
    74    16    15    1
    75    72    70   am
    76     7     9   ar
    77    21    22    1
    78    71    70    2
    79    70    69    1
    80    22    23    2
    81     3     4    2
    82    28    29    2
    83    69    68    1
    84    23    25    1
    85    23    24    1
    86    40    39    1
    87    68    63   am
    88    67    65    1
    89    63    64    2
    90    63    62    1
    91    39    36    1
    92    35    36    1
    93    36    37    1
    94    62    65    1
    95    62    61    1
    96    47    46   ar
    97    60    59    1
    98    65    66    1
    99    52    51    2
   100    58    59   ar
   101    58    56   ar
   102    37    38    2
   103    59    57   ar
   104    46    48   ar
   105    46    45    1
   106    61    51   am
   107    56    54   ar
   108    51    50    1
   109    57    55   ar
   110    45    42    1
   111    54    55   ar
   112    54    53    1
   113    42    41    1
   114    42    43    1
   115    50    49    1
   116    50    53    1
   117    43    44    2
