@<TRIPOS>MOLECULE
tmp/4csdB02.pdb
 113 109 0 0 0
SMALL
GASTEIGER

@<TRIPOS>ATOM
      1  N        -10.0590  -15.0990   67.7800 N.3    98  TRP98      -0.1241
      2  CA        -8.7190  -15.4730   68.1930 C.3    98  TRP98       0.1605
      3  C         -7.7120  -14.4260   67.8420 C.2    98  TRP98       0.2264
      4  O         -7.8800  -13.6340   66.9290 O.2    98  TRP98      -0.2867
      5  CB        -8.3270  -16.8310   67.5990 C.3    98  TRP98       0.0550
      6  CG        -8.2100  -16.8900   66.1220 C.ar   98  TRP98       0.0003
      7  CD1       -7.0970  -16.6620   65.3930 C.ar   98  TRP98       0.0946
      8  CD2       -9.2410  -17.2390   65.2080 C.ar   98  TRP98       0.0152
      9  NE1       -7.3700  -16.8390   64.0840 N.ar   98  TRP98      -0.2442
     10  CE2       -8.6740  -17.2210   63.9280 C.ar   98  TRP98       0.0810
     11  CE3      -10.5830  -17.6040   65.3520 C.ar   98  TRP98       0.0012
     12  CZ2       -9.3810  -17.5140   62.7980 C.ar   98  TRP98       0.0191
     13  CZ3      -11.2970  -17.8980   64.1950 C.ar   98  TRP98       0.0001
     14  CH2      -10.6980  -17.8400   62.9320 C.ar   98  TRP98       0.0015
     15  N        -15.1750  -15.1870   63.7370 N.3   105  ARG105     -0.1245
     16  CA       -16.1070  -15.9580   62.8990 C.3   105  ARG105      0.1563
     17  C        -17.4510  -15.9240   63.5290 C.2   105  ARG105      0.2260
     18  O        -17.5680  -16.2010   64.7400 O.2   105  ARG105     -0.2867
     19  CB       -15.5820  -17.3940   62.7190 C.3   105  ARG105      0.0307
     20  CG       -14.2180  -17.4910   62.0370 C.3   105  ARG105      0.0489
     21  CD       -14.2900  -17.0540   60.5680 C.3   105  ARG105      0.2205
     22  NE       -12.9880  -17.2370   59.8790 N.pl3 105  ARG105     -0.0865
     23  CZ       -12.0390  -16.3160   59.7980 C.cat 105  ARG105      0.5346
     24  NH1      -12.1620  -15.1590   60.4400 N.pl3 105  ARG105      0.1354
     25  NH2      -10.8950  -16.5360   59.1710 N.pl3 105  ARG105      0.1354
     26  N        -21.4230  -18.6620   57.4760 N.3   116  GLU116     -0.1245
     27  CA       -20.3060  -18.0930   58.2330 C.3   116  GLU116      0.1567
     28  C        -19.8670  -16.7540   57.6190 C.2   116  GLU116      0.2260
     29  O        -19.7240  -16.6420   56.4060 O.2   116  GLU116     -0.2867
     30  CB       -19.1680  -19.0550   58.1940 C.3   116  GLU116      0.0388
     31  CG       -17.8950  -18.6860   58.9190 C.3   116  GLU116      0.1160
     32  CD       -16.7210  -19.5690   58.5670 C.2   116  GLU116      0.3649
     33  OE1      -16.5150  -19.8370   57.3680 O.co2 116  GLU116     -0.2457
     34  OE2      -15.9360  -19.9340   59.4600 O.co2 116  GLU116     -0.2457
     35  N        -16.8010  -13.7660   58.2780 N.3   118  CYS118     -0.1235
     36  CA       -15.4310  -13.7960   58.7380 C.3   118  CYS118      0.1677
     37  C        -14.8270  -12.4160   58.7630 C.2   118  CYS118      0.2270
     38  O        -15.0240  -11.6370   57.8250 O.2   118  CYS118     -0.2867
     39  CB       -14.6090  -14.5960   57.7440 C.3   118  CYS118      0.0956
     40  SG       -15.1940  -16.2460   57.3790 S.3   118  CYS118     -0.0801
     41  N        -10.8970  -10.8340   59.3760 N.3   120  ASP120     -0.1239
     42  CA        -9.4910  -11.0600   59.6000 C.3   120  ASP120      0.1674
     43  C         -8.7240   -9.7040   59.6510 C.2   120  ASP120      0.2266
     44  O         -7.5110   -9.6490   59.4520 O.2   120  ASP120     -0.2867
     45  CB        -8.8920  -11.8930   58.4600 C.3   120  ASP120      0.1410
     46  CG        -9.3700  -13.3310   58.4210 C.2   120  ASP120      0.3668
     47  OD1       -9.5610  -13.9350   59.5090 O.co2 120  ASP120     -0.2456
     48  OD2       -9.4430  -13.8520   57.2720 O.co2 120  ASP120     -0.2456
     49  N        -16.2910  -10.8850   55.2700 N.3   125  TYR125     -0.1241
     50  CA       -16.4790  -11.6840   54.0580 C.3   125  TYR125      0.1605
     51  C        -17.1320  -13.0160   54.3850 C.2   125  TYR125      0.2264
     52  O        -17.1900  -13.4390   55.5280 O.2   125  TYR125     -0.2867
     53  CB       -15.1180  -11.9090   53.3860 C.3   125  TYR125      0.0534
     54  CG       -14.1110  -12.7530   54.1190 C.ar  125  TYR125     -0.0201
     55  CD1      -13.2000  -12.2060   55.0020 C.ar  125  TYR125     -0.0009
     56  CD2      -14.0490  -14.1260   53.9040 C.ar  125  TYR125     -0.0009
     57  CE1      -12.2210  -12.9820   55.6100 C.ar  125  TYR125      0.0417
     58  CE2      -13.1240  -14.9050   54.5090 C.ar  125  TYR125      0.0417
     59  CZ       -12.2170  -14.3680   55.3810 C.ar  125  TYR125      0.1957
     60  OH       -11.3020  -15.1560   55.9800 O.3   125  TYR125     -0.2866
     61  N        -17.4590  -16.9100   54.5820 N.3   127  GLY127     -0.1210
     62  CA       -16.4900  -18.0020   54.7590 C.3   127  GLY127      0.1956
     63  C        -16.9340  -19.2930   54.0650 C.2   127  GLY127      0.2611
     64  O        -18.0310  -19.3620   53.5250 O.2   127  GLY127     -0.2717
     65  N        -16.0470  -20.2670   54.0710 N.am  128  ALA128     -0.1979
     66  CA       -16.2980  -21.5780   53.4360 C.3   128  ALA128      0.1597
     67  C        -17.3920  -22.4030   54.1270 C.2   128  ALA128      0.2287
     68  O        -17.9970  -23.2800   53.5210 O.2   128  ALA128     -0.2864
     69  CB       -14.9980  -22.3660   53.3590 C.3   128  ALA128      0.0319
     70  N         -5.1170  -21.9840   64.1910 N.3   147  ILE147     -0.1245
     71  CA        -6.4810  -22.0020   64.7210 C.3   147  ILE147      0.1561
     72  C         -7.1480  -23.3480   64.4740 C.2   147  ILE147      0.2260
     73  O         -7.0090  -23.9530   63.4130 O.2   147  ILE147     -0.2867
     74  CB        -7.3820  -20.8470   64.1730 C.3   147  ILE147      0.0252
     75  CG1       -8.7090  -20.6470   64.9380 C.3   147  ILE147      0.0019
     76  CG2       -7.7250  -20.9790   62.7120 C.3   147  ILE147      0.0019
     77  CD1       -8.5750  -20.3230   66.4000 C.3   147  ILE147      0.0001
     78  N        -11.1230  -24.7730   64.9830 N.3   149  ILE149     -0.1245
     79  CA       -12.5150  -24.3800   65.2290 C.3   149  ILE149      0.1561
     80  C        -13.3680  -25.6330   65.2860 C.2   149  ILE149      0.2260
     81  O        -13.1680  -26.5560   64.4650 O.2   149  ILE149     -0.2867
     82  CB       -13.0700  -23.4220   64.1560 C.3   149  ILE149      0.0252
     83  CG1      -12.1030  -22.2600   63.9050 C.3   149  ILE149      0.0019
     84  CG2      -14.4310  -22.8820   64.5720 C.3   149  ILE149      0.0019
     85  CD1      -12.4450  -21.4550   62.6640 C.3   149  ILE149      0.0001
     86  N        -12.4390  -27.3420   61.7130 N.3   164  TRP164     -0.1241
     87  CA       -11.4990  -26.6130   60.8880 C.3   164  TRP164      0.1605
     88  C        -10.1660  -26.7280   61.5820 C.2   164  TRP164      0.2264
     89  O        -10.0220  -26.3120   62.7460 O.2   164  TRP164     -0.2867
     90  CB       -11.8700  -25.1430   60.7390 C.3   164  TRP164      0.0550
     91  CG       -10.8690  -24.4640   59.9780 C.ar  164  TRP164      0.0003
     92  CD1       -9.6890  -23.8780   60.4430 C.ar  164  TRP164      0.0946
     93  CD2      -10.9110  -24.2660   58.6240 C.ar  164  TRP164      0.0152
     94  NE1       -8.9900  -23.4040   59.4280 N.ar  164  TRP164     -0.2442
     95  CE2       -9.7160  -23.5860   58.2760 C.ar  164  TRP164      0.0810
     96  CE3      -11.8190  -24.5750   57.6450 C.ar  164  TRP164      0.0012
     97  CZ2       -9.4180  -23.2020   56.9870 C.ar  164  TRP164      0.0191
     98  CZ3      -11.5210  -24.1820   56.3520 C.ar  164  TRP164      0.0001
     99  CH2      -10.3420  -23.4940   56.0340 C.ar  164  TRP164      0.0015
    100  N        -13.2290  -27.8710   56.0570 N.3   169  TRP169     -0.1241
    101  CA       -14.0300  -28.3540   57.1500 C.3   169  TRP169      0.1605
    102  C        -14.1750  -29.8620   57.0160 C.2   169  TRP169      0.2264
    103  O        -14.3010  -30.3970   55.9220 O.2   169  TRP169     -0.2867
    104  CB       -15.3890  -27.6930   57.1470 C.3   169  TRP169      0.0550
    105  CG       -15.3340  -26.2130   57.4970 C.ar  169  TRP169      0.0003
    106  CD1      -15.2210  -25.1700   56.6430 C.ar  169  TRP169      0.0946
    107  CD2      -15.3440  -25.6530   58.8260 C.ar  169  TRP169      0.0152
    108  NE1      -15.1780  -23.9880   57.3400 N.ar  169  TRP169     -0.2442
    109  CE2      -15.2590  -24.2600   58.6810 C.ar  169  TRP169      0.0810
    110  CE3      -15.4720  -26.1950   60.1150 C.ar  169  TRP169      0.0012
    111  CZ2      -15.2650  -23.3960   59.7730 C.ar  169  TRP169      0.0191
    112  CZ3      -15.4680  -25.3460   61.1840 C.ar  169  TRP169      0.0001
    113  CH2      -15.3820  -23.9580   61.0210 C.ar  169  TRP169      0.0015
@<TRIPOS>BOND
     1    69    66    1
     2    53    50    1
     3    53    54    1
     4    66    65    1
     5    66    67    1
     6    68    67    2
     7    64    63    2
     8    56    54   ar
     9    56    58   ar
    10    50    51    1
    11    50    49    1
    12    63    65   am
    13    63    62    1
    14    54    55   ar
    15    51    52    2
    16    58    59   ar
    17    61    62    1
    18    55    57   ar
    19    59    57   ar
    20    59    60    1
    21   103   102    2
    22    99    98   ar
    23    99    97   ar
    24   100   101    1
    25    98    96   ar
    26    29    28    2
    27   106   108   ar
    28   106   105   ar
    29    97    95   ar
    30   102   101    1
    31   104   101    1
    32   104   105    1
    33    48    46   ar
    34   108   109   ar
    35    33    32   ar
    36    40    39    1
    37    26    27    1
    38   105   107   ar
    39    28    27    1
    40    96    93   ar
    41    39    36    1
    42    38    37    2
    43    30    27    1
    44    30    31    1
    45    95    93   ar
    46    95    94   ar
    47    35    36    1
    48    46    45    1
    49    46    47   ar
    50    45    42    1
    51    32    31    1
    52    32    34   ar
    53    93    91   ar
    54   109   107   ar
    55   109   111   ar
    56    36    37    1
    57   107   110   ar
    58    25    23    1
    59    41    42    1
    60    94    92   ar
    61    44    43    2
    62    42    43    1
    63   111   113   ar
    64    23    22    2
    65    23    24    1
    66    22    21    1
    67    91    92   ar
    68    91    90    1
    69   110   112   ar
    70    21    20    1
    71    90    87    1
    72    87    88    1
    73    87    86    1
    74   113   112   ar
    75    88    89    2
    76    20    19    1
    77    85    83    1
    78    76    74    1
    79    19    16    1
    80    12    14   ar
    81    12    10   ar
    82    16    17    1
    83    16    15    1
    84    14    13   ar
    85    73    72    2
    86    17    18    2
    87    83    82    1
    88    10     9   ar
    89    10     8   ar
    90     9     7   ar
    91    82    84    1
    92    82    79    1
    93    74    71    1
    94    74    75    1
    95    70    71    1
    96    13    11   ar
    97    81    80    2
    98    72    71    1
    99    75    77    1
   100    78    79    1
   101     8    11   ar
   102     8     6   ar
   103    79    80    1
   104     7     6   ar
   105     6     5    1
   106     4     3    2
   107     5     2    1
   108     1     2    1
   109     3     2    1
