@<TRIPOS>MOLECULE
tmp/4csdB01.pdb
 116 113 0 0 0
SMALL
GASTEIGER

@<TRIPOS>ATOM
      1  N        -12.0120  -10.5090   73.4670 N.3    53  TRP53      -0.1241
      2  CA       -10.5700  -10.7260   73.4700 C.3    53  TRP53       0.1605
      3  C         -9.9180   -9.5590   74.1820 C.2    53  TRP53       0.2264
      4  O        -10.4190   -8.4390   74.1970 O.2    53  TRP53      -0.2867
      5  CB        -9.9620  -10.9000   72.0660 C.3    53  TRP53       0.0550
      6  CG       -10.0620   -9.6880   71.2150 C.ar   53  TRP53       0.0003
      7  CD1       -9.1140   -8.7480   71.0590 C.ar   53  TRP53       0.0946
      8  CD2      -11.2140   -9.2300   70.4740 C.ar   53  TRP53       0.0152
      9  NE1       -9.5750   -7.7370   70.2680 N.ar   53  TRP53      -0.2442
     10  CE2      -10.8670   -8.0000   69.8970 C.ar   53  TRP53       0.0810
     11  CE3      -12.4840   -9.7670   70.2210 C.ar   53  TRP53       0.0012
     12  CZ2      -11.7490   -7.2750   69.1130 C.ar   53  TRP53       0.0191
     13  CZ3      -13.3530   -9.0410   69.4550 C.ar   53  TRP53       0.0001
     14  CH2      -12.9750   -7.7920   68.9220 C.ar   53  TRP53       0.0015
     15  N        -17.6360   -8.1440   71.3870 N.3    62  ARG62      -0.1245
     16  CA       -18.5480   -8.0420   70.2670 C.3    62  ARG62       0.1563
     17  C        -19.7730   -8.8680   70.5440 C.2    62  ARG62       0.2260
     18  O        -19.6990  -10.0670   70.8070 O.2    62  ARG62      -0.2867
     19  CB       -17.8760   -8.5080   68.9740 C.3    62  ARG62       0.0307
     20  CG       -16.6380   -7.7300   68.5680 C.3    62  ARG62       0.0489
     21  CD       -16.9390   -6.2980   68.1610 C.3    62  ARG62       0.2205
     22  NE       -15.7470   -5.5500   67.7710 N.pl3  62  ARG62      -0.0865
     23  CZ       -14.9890   -4.8120   68.5670 C.cat  62  ARG62       0.5346
     24  NH1      -15.2470   -4.7650   69.8710 N.pl3  62  ARG62       0.1354
     25  NH2      -13.9480   -4.1860   68.0760 N.pl3  62  ARG62       0.1354
     26  N        -24.0010   -5.9060   65.0280 N.3    73  GLU73      -0.1245
     27  CA       -22.8430   -6.1000   65.9000 C.3    73  GLU73       0.1567
     28  C        -22.6710   -4.8610   66.7670 C.2    73  GLU73       0.2260
     29  O        -22.6120   -3.7510   66.2660 O.2    73  GLU73      -0.2867
     30  CB       -21.5900   -6.3100   65.0570 C.3    73  GLU73       0.0388
     31  CG       -20.3210   -6.4670   65.8330 C.3    73  GLU73       0.1160
     32  CD       -19.1000   -6.4180   64.9200 C.2    73  GLU73       0.3649
     33  OE1      -19.0140   -5.5180   64.0870 O.co2  73  GLU73      -0.2457
     34  OE2      -18.2070   -7.2740   65.0260 O.co2  73  GLU73      -0.2457
     35  N        -20.1970   -3.1790   69.7540 N.3    75  CYS75      -0.1235
     36  CA       -18.7970   -3.2110   70.0680 C.3    75  CYS75       0.1677
     37  C        -18.4910   -2.4670   71.3470 C.2    75  CYS75       0.2270
     38  O        -18.8870   -1.3160   71.5100 O.2    75  CYS75      -0.2867
     39  CB       -17.9760   -2.5350   68.9830 C.3    75  CYS75       0.0956
     40  SG       -18.2450   -3.1860   67.2980 S.3    75  CYS75      -0.0801
     41  N        -14.9710   -1.3220   73.1680 N.3    77  ASP77      -0.1239
     42  CA       -13.5530   -1.2010   73.0310 C.3    77  ASP77       0.1674
     43  C        -13.0150   -0.2790   74.1130 C.2    77  ASP77       0.2266
     44  O        -11.9830    0.3660   73.9330 O.2    77  ASP77      -0.2867
     45  CB       -13.2140   -0.6870   71.6380 C.3    77  ASP77       0.1410
     46  CG       -13.6730   -1.6540   70.5600 C.2    77  ASP77       0.3668
     47  OD1      -13.0860   -2.7540   70.4520 O.co2  77  ASP77      -0.2456
     48  OD2      -14.6520   -1.3360   69.8580 O.co2  77  ASP77      -0.2456
     49  N        -21.5910    0.8680   67.1720 N.3    83  LYS83      -0.1231
     50  CA       -22.0860    0.0000   66.1060 C.3    83  LYS83       0.1693
     51  C        -20.9310   -0.4710   65.2680 C.2    83  LYS83       0.2593
     52  O        -20.0770    0.2850   64.8490 O.2    83  LYS83      -0.2718
     53  CB       -23.0890    0.7410   65.2300 C.3    83  LYS83       0.0285
     54  CG       -24.0390   -0.2450   64.5360 C.3    83  LYS83       0.0035
     55  CD       -25.2930    0.4440   63.9770 C.3    83  LYS83       0.0206
     56  CE       -26.4750    0.4390   64.9440 C.3    83  LYS83       0.1093
     57  NZ       -27.7680    0.8500   64.2960 N.3    83  LYS83      -0.1314
     58  N        -20.8920   -1.7990   65.0600 N.am   84  GLY84      -0.1942
     59  CA       -19.8360   -2.3980   64.2550 C.3    84  GLY84       0.2014
     60  C        -20.1150   -2.5270   62.7780 C.2    84  GLY84       0.2638
     61  O        -21.2450   -2.3560   62.3620 O.2    84  GLY84      -0.2714
     62  N        -19.0970   -2.9100   62.0300 N.am   85  ALA85      -0.1977
     63  CA       -19.1690   -3.0290   60.5800 C.3    85  ALA85       0.1597
     64  C        -19.8650   -4.2920   60.0960 C.2    85  ALA85       0.2287
     65  O        -20.1440   -4.4280   58.9120 O.2    85  ALA85      -0.2864
     66  CB       -17.7790   -2.9660   59.9970 C.3    85  ALA85       0.0319
     67  N         -5.6410   -9.3860   66.4150 N.3   101  VAL101     -0.1231
     68  CA        -6.0660   -8.5800   65.2820 C.3   101  VAL101      0.1678
     69  C         -7.4670   -7.9980   65.5360 C.2   101  VAL101      0.2434
     70  O         -7.6760   -6.8000   65.3850 O.2   101  VAL101     -0.2733
     71  CB        -5.9730   -9.3130   63.9160 C.3   101  VAL101      0.0265
     72  CG1       -6.5670   -8.4520   62.8060 C.3   101  VAL101      0.0020
     73  CG2       -4.5110   -9.6620   63.5970 C.3   101  VAL101      0.0020
     74  N         -8.4460   -8.7930   65.9280 N.am  102  PRO102     -0.2729
     75  CA        -8.5090  -10.2530   65.9730 C.3   102  PRO102      0.1401
     76  C         -9.0180  -10.8110   64.6710 C.2   102  PRO102      0.2269
     77  O         -9.4080  -10.0720   63.7900 O.2   102  PRO102     -0.2865
     78  CB        -9.5500  -10.4920   67.0760 C.3   102  PRO102      0.0296
     79  CG       -10.5630   -9.4440   66.7460 C.3   102  PRO102      0.0237
     80  CD        -9.7560   -8.2350   66.3260 C.3   102  PRO102      0.0939
     81  N        -12.3710  -13.0100   63.7330 N.3   104  ILE104     -0.1245
     82  CA       -13.6960  -13.3520   64.2680 C.3   104  ILE104      0.1561
     83  C        -14.4200  -14.2060   63.2410 C.2   104  ILE104      0.2260
     84  O        -14.3030  -13.9900   62.0300 O.2   104  ILE104     -0.2867
     85  CB       -14.5930  -12.1170   64.5480 C.3   104  ILE104      0.0252
     86  CG1      -13.8670  -11.0950   65.4330 C.3   104  ILE104      0.0019
     87  CG2      -15.9190  -12.5050   65.1770 C.3   104  ILE104      0.0019
     88  CD1      -14.5670   -9.7530   65.5560 C.3   104  ILE104      0.0001
     89  N        -14.0400  -12.1310   59.7850 N.3   119  TRP119     -0.1241
     90  CA       -13.2370  -10.9350   59.8940 C.3   119  TRP119      0.1605
     91  C        -11.8160  -11.3240   60.1910 C.2   119  TRP119      0.2264
     92  O        -11.5620  -12.0740   61.1200 O.2   119  TRP119     -0.2867
     93  CB       -13.7480  -10.0920   61.0750 C.3   119  TRP119      0.0550
     94  CG       -12.9430   -8.8580   61.3620 C.ar  119  TRP119      0.0003
     95  CD1      -11.8900   -8.7500   62.1870 C.ar  119  TRP119      0.0946
     96  CD2      -13.1140   -7.5840   60.7550 C.ar  119  TRP119      0.0152
     97  NE1      -11.4000   -7.4580   62.1990 N.ar  119  TRP119     -0.2442
     98  CE2      -12.1390   -6.7220   61.3280 C.ar  119  TRP119      0.0810
     99  CE3      -14.0340   -7.0700   59.8400 C.ar  119  TRP119      0.0012
    100  CZ2      -12.0280   -5.3790   60.9690 C.ar  119  TRP119      0.0191
    101  CZ3      -13.9380   -5.7380   59.5250 C.ar  119  TRP119      0.0001
    102  CH2      -12.9480   -4.9190   60.0840 C.ar  119  TRP119      0.0015
    103  N        -15.4270   -7.6640   56.5020 N.3   124  TRP124     -0.1241
    104  CA       -16.1790   -8.8940   56.6220 C.3   124  TRP124      0.1605
    105  C        -16.3450   -9.5680   55.2750 C.2   124  TRP124      0.2264
    106  O        -16.4950   -8.9280   54.2570 O.2   124  TRP124     -0.2867
    107  CB       -17.5720   -8.6510   57.2150 C.3   124  TRP124      0.0550
    108  CG       -17.5240   -8.2960   58.6660 C.ar  124  TRP124      0.0003
    109  CD1      -17.4440   -7.0490   59.2150 C.ar  124  TRP124      0.0946
    110  CD2      -17.4270   -9.2270   59.7570 C.ar  124  TRP124      0.0152
    111  NE1      -17.3510   -7.1290   60.5760 N.ar  124  TRP124     -0.2442
    112  CE2      -17.3340   -8.4470   60.9400 C.ar  124  TRP124      0.0810
    113  CE3      -17.4530  -10.6220   59.8580 C.ar  124  TRP124      0.0012
    114  CZ2      -17.2870   -9.0180   62.1940 C.ar  124  TRP124      0.0191
    115  CZ3      -17.3960  -11.1930   61.1010 C.ar  124  TRP124      0.0001
    116  CH2      -17.3310  -10.4050   62.2670 C.ar  124  TRP124      0.0015
@<TRIPOS>BOND
     1   106   105    2
     2   105   104    1
     3   103   104    1
     4   104   107    1
     5   107   108    1
     6   108   109   ar
     7   108   110   ar
     8    65    64    2
     9   109   111   ar
    10   101    99   ar
    11   101   102   ar
    12   110   113   ar
    13   110   112   ar
    14    89    90    1
    15    99    96   ar
    16   113   115   ar
    17    90    91    1
    18    90    93    1
    19    66    63    1
    20   102   100   ar
    21    64    63    1
    22    91    92    2
    23   111   112   ar
    24    63    62    1
    25    96    98   ar
    26    96    94   ar
    27   112   114   ar
    28   100    98   ar
    29    93    94    1
    30   115   116   ar
    31    98    97   ar
    32    94    95   ar
    33    84    83    2
    34    62    60   am
    35    95    97   ar
    36   114   116   ar
    37    61    60    2
    38    60    59    1
    39    72    71    1
    40    83    82    1
    41    73    71    1
    42    81    82    1
    43    77    76    2
    44    71    68    1
    45    55    54    1
    46    55    56    1
    47    33    32   ar
    48    59    58    1
    49    82    85    1
    50    57    56    1
    51    54    53    1
    52    85    87    1
    53    85    86    1
    54    76    75    1
    55    52    51    2
    56    32    34   ar
    57    32    31    1
    58    26    27    1
    59    30    31    1
    60    30    27    1
    61    58    51   am
    62    53    50    1
    63    51    50    1
    64    68    69    1
    65    68    67    1
    66    70    69    2
    67    86    88    1
    68    69    74   am
    69    27    28    1
    70    74    75    1
    71    74    80    1
    72    75    78    1
    73    50    49    1
    74    29    28    2
    75    80    79    1
    76    79    78    1
    77    40    39    1
    78    22    21    1
    79    22    23    2
    80    25    23    1
    81    21    20    1
    82    23    24    1
    83    20    19    1
    84    14    12   ar
    85    14    13   ar
    86    19    16    1
    87    39    36    1
    88    12    10   ar
    89    13    11   ar
    90    35    36    1
    91    48    46   ar
    92    10     9   ar
    93    10     8   ar
    94    36    37    1
    95    11     8   ar
    96    16    17    1
    97    16    15    1
    98     9     7   ar
    99    47    46   ar
   100     8     6   ar
   101    17    18    2
   102    46    45    1
   103     7     6   ar
   104     6     5    1
   105    37    38    2
   106    45    42    1
   107     5     2    1
   108    42    41    1
   109    42    43    1
   110     1     2    1
   111     2     3    1
   112    44    43    2
   113     3     4    2
