@<TRIPOS>MOLECULE
tmp/4csdB03.pdb
 99 97 0 0 0
SMALL
GASTEIGER

@<TRIPOS>ATOM
      1  N         -9.6790  -22.6990   69.4860 N.3   141  TRP141     -0.1241
      2  CA        -8.4680  -22.5630   70.2730 C.3   141  TRP141      0.1605
      3  C         -7.2740  -22.4910   69.3200 C.2   141  TRP141      0.2264
      4  O         -7.3010  -23.0170   68.2120 O.2   141  TRP141     -0.2867
      5  CB        -8.2830  -23.7180   71.3150 C.3   141  TRP141      0.0550
      6  CG        -8.0850  -25.0780   70.6650 C.ar  141  TRP141      0.0003
      7  CD1       -6.8770  -25.7030   70.4200 C.ar  141  TRP141      0.0946
      8  CD2       -9.0810  -25.9360   70.1120 C.ar  141  TRP141      0.0152
      9  NE1       -7.0820  -26.8870   69.7570 N.ar  141  TRP141     -0.2442
     10  CE2       -8.4220  -27.0580   69.5680 C.ar  141  TRP141      0.0810
     11  CE3      -10.4740  -25.8970   70.0770 C.ar  141  TRP141      0.0012
     12  CZ2       -9.1080  -28.0520   68.9310 C.ar  141  TRP141      0.0191
     13  CZ3      -11.1410  -26.9140   69.4820 C.ar  141  TRP141      0.0001
     14  CH2      -10.4560  -27.9770   68.9110 C.ar  141  TRP141      0.0015
     15  N        -14.3330  -25.6710   66.2090 N.3   150  ARG150     -0.1245
     16  CA       -15.3230  -26.7230   66.2480 C.3   150  ARG150      0.1563
     17  C        -16.7170  -26.1030   66.2390 C.2   150  ARG150      0.2260
     18  O        -17.0530  -25.3020   67.1230 O.2   150  ARG150     -0.2867
     19  CB       -15.1560  -27.6170   67.4680 C.3   150  ARG150      0.0307
     20  CG       -13.8140  -28.3570   67.5030 C.3   150  ARG150      0.0489
     21  CD       -13.6750  -29.3860   66.4010 C.3   150  ARG150      0.2205
     22  NE       -12.3870  -30.0840   66.4400 N.pl3 150  ARG150     -0.0865
     23  CZ       -11.2760  -29.7240   65.8360 C.cat 150  ARG150      0.5346
     24  NH1      -11.2500  -28.5960   65.1300 N.pl3 150  ARG150      0.1354
     25  NH2      -10.1750  -30.4340   65.9450 N.pl3 150  ARG150      0.1354
     26  N        -20.5300  -32.3840   64.5980 N.3   161  GLU161     -0.1245
     27  CA       -19.3840  -31.4870   64.8010 C.3   161  GLU161      0.1567
     28  C        -18.6070  -31.3150   63.5170 C.2   161  GLU161      0.2260
     29  O        -18.2880  -32.2860   62.8510 O.2   161  GLU161     -0.2867
     30  CB       -18.5060  -32.0940   65.8770 C.3   161  GLU161      0.0388
     31  CG       -17.1810  -31.3460   66.1650 C.3   161  GLU161      0.1160
     32  CD       -16.2850  -32.1580   67.0530 C.2   161  GLU161      0.3649
     33  OE1      -16.0260  -33.3260   66.6880 O.co2 161  GLU161     -0.2457
     34  OE2      -15.8030  -31.6600   68.0670 O.co2 161  GLU161     -0.2457
     35  N        -15.1530  -29.4730   61.8750 N.3   163  CYS163     -0.1235
     36  CA       -13.8400  -29.1650   62.3570 C.3   163  CYS163      0.1677
     37  C        -13.0680  -28.4130   61.3030 C.2   163  CYS163      0.2270
     38  O        -13.0210  -28.8070   60.1540 O.2   163  CYS163     -0.2867
     39  CB       -13.0820  -30.4550   62.5990 C.3   163  CYS163      0.0956
     40  SG       -13.8530  -31.6440   63.7200 S.3   163  CYS163     -0.0801
     41  N        -16.2930  -34.2090   62.4330 N.3   172  GLY172     -0.1210
     42  CA       -15.6610  -34.6900   63.6470 C.3   172  GLY172      0.1956
     43  C        -16.3310  -35.8660   64.3260 C.2   172  GLY172      0.2611
     44  O        -17.3890  -36.3010   63.9010 O.2   172  GLY172     -0.2717
     45  N        -15.7070  -36.3180   65.3990 N.am  173  ALA173     -0.1979
     46  CA       -16.1020  -37.5500   66.0960 C.3   173  ALA173      0.1597
     47  C        -17.2180  -37.3460   67.0930 C.2   173  ALA173      0.2287
     48  O        -17.7680  -38.2990   67.6160 O.2   173  ALA173     -0.2864
     49  CB       -14.8790  -38.1410   66.7680 C.3   173  ALA173      0.0319
     50  N         -4.7560  -29.6080   74.4130 N.3   192  VAL192     -0.1231
     51  CA        -5.1140  -30.9380   74.0230 C.3   192  VAL192      0.1678
     52  C         -6.0740  -30.9440   72.8210 C.2   192  VAL192      0.2434
     53  O         -5.8390  -31.6460   71.8490 O.2   192  VAL192     -0.2733
     54  CB        -5.5930  -31.8040   75.2260 C.3   192  VAL192      0.0265
     55  CG1       -6.1230  -33.1700   74.7490 C.3   192  VAL192      0.0020
     56  CG2       -4.4420  -31.9680   76.2140 C.3   192  VAL192      0.0020
     57  N         -7.1930  -30.2020   72.8740 N.am  193  PRO193     -0.2729
     58  CA        -7.7370  -29.4670   74.0030 C.3   193  PRO193      0.1401
     59  C         -8.7150  -30.3370   74.7880 C.2   193  PRO193      0.2269
     60  O         -9.0260  -31.4410   74.3750 O.2   193  PRO193     -0.2865
     61  CB        -8.5660  -28.3870   73.3250 C.3   193  PRO193      0.0296
     62  CG        -9.1740  -29.1380   72.2030 C.3   193  PRO193      0.0237
     63  CD        -8.1220  -30.1280   71.7310 C.3   193  PRO193      0.0939
     64  N        -12.7280  -30.1520   75.5640 N.3   195  ILE195     -0.1245
     65  CA       -13.9380  -29.5080   75.0690 C.3   195  ILE195      0.1561
     66  C        -15.0830  -29.9820   75.9570 C.2   195  ILE195      0.2260
     67  O        -15.1600  -31.1680   76.3330 O.2   195  ILE195     -0.2867
     68  CB       -14.2570  -29.8450   73.5880 C.3   195  ILE195      0.0252
     69  CG1      -13.0680  -29.5470   72.6990 C.3   195  ILE195      0.0019
     70  CG2      -15.5210  -29.1370   73.0980 C.3   195  ILE195      0.0019
     71  CD1      -13.2000  -30.0440   71.2740 C.3   195  ILE195      0.0001
     72  N        -14.6530  -34.0490   75.8550 N.3   210  TRP210     -0.1241
     73  CA       -13.4750  -34.5270   75.1440 C.3   210  TRP210      0.1605
     74  C        -12.2630  -34.0600   75.9220 C.2   210  TRP210      0.2264
     75  O        -12.1360  -32.8740   76.2300 O.2   210  TRP210     -0.2867
     76  CB       -13.4150  -33.9000   73.7370 C.3   210  TRP210      0.0550
     77  CG       -12.2050  -34.2450   72.9520 C.ar  210  TRP210      0.0003
     78  CD1      -11.0190  -33.5680   72.8980 C.ar  210  TRP210      0.0946
     79  CD2      -12.0480  -35.3790   72.0800 C.ar  210  TRP210      0.0152
     80  NE1      -10.1390  -34.2060   72.0550 N.ar  210  TRP210     -0.2442
     81  CE2      -10.7390  -35.3250   71.5470 C.ar  210  TRP210      0.0810
     82  CE3      -12.9000  -36.4030   71.6580 C.ar  210  TRP210      0.0012
     83  CZ2      -10.2660  -36.2730   70.6320 C.ar  210  TRP210      0.0191
     84  CZ3      -12.4250  -37.3240   70.7390 C.ar  210  TRP210      0.0001
     85  CH2      -11.1170  -37.2420   70.2570 C.ar  210  TRP210      0.0015
     86  N        -15.0400  -39.0880   73.2150 N.3   215  TRP215     -0.1241
     87  CA       -16.1630  -38.3520   73.8360 C.3   215  TRP215      0.1605
     88  C        -16.8160  -39.2170   74.9110 C.2   215  TRP215      0.2264
     89  O        -17.0620  -40.4080   74.6740 O.2   215  TRP215     -0.2867
     90  CB       -17.2200  -37.9760   72.8040 C.3   215  TRP215      0.0550
     91  CG       -16.7460  -36.8780   71.8990 C.ar  215  TRP215      0.0003
     92  CD1      -16.1450  -37.0320   70.6920 C.ar  215  TRP215      0.0946
     93  CD2      -16.7790  -35.4820   72.1720 C.ar  215  TRP215      0.0152
     94  NE1      -15.8210  -35.8060   70.1780 N.ar  215  TRP215     -0.2442
     95  CE2      -16.2000  -34.8390   71.0780 C.ar  215  TRP215      0.0810
     96  CE3      -17.2570  -34.7110   73.2470 C.ar  215  TRP215      0.0012
     97  CZ2      -16.0840  -33.4570   71.0230 C.ar  215  TRP215      0.0191
     98  CZ3      -17.1490  -33.3540   73.2060 C.ar  215  TRP215      0.0001
     99  CH2      -16.5970  -32.7310   72.0860 C.ar  215  TRP215      0.0015
@<TRIPOS>BOND
     1    38    37    2
     2    37    36    1
     3    35    36    1
     4    36    39    1
     5    41    42    1
     6    39    40    1
     7    29    28    2
     8    28    27    1
     9    42    43    1
    10    44    43    2
    11    43    45   am
    12    26    27    1
    13    27    30    1
    14    24    23    1
    15    45    46    1
    16    23    25    1
    17    23    22    2
    18    30    31    1
    19    46    49    1
    20    46    47    1
    21    31    32    1
    22    15    16    1
    23    17    16    1
    24    17    18    2
    25    16    19    1
    26    21    22    1
    27    21    20    1
    28    33    32   ar
    29    32    34   ar
    30    47    48    2
    31    19    20    1
    32     4     3    2
    33    14    12   ar
    34    14    13   ar
    35    12    10   ar
    36     3     2    1
    37    13    11   ar
    38     1     2    1
    39    10     9   ar
    40    10     8   ar
    41     9     7   ar
    42    11     8   ar
    43     8     6   ar
    44    94    92   ar
    45    94    95   ar
    46    85    83   ar
    47    85    84   ar
    48     2     5    1
    49     7     6   ar
    50    83    81   ar
    51     6     5    1
    52    92    91   ar
    53    84    82   ar
    54    97    95   ar
    55    97    99   ar
    56    95    93   ar
    57    71    69    1
    58    81    80   ar
    59    81    79   ar
    60    82    79   ar
    61    63    62    1
    62    63    57    1
    63    53    52    2
    64    91    93   ar
    65    91    90    1
    66    80    78   ar
    67    79    77   ar
    68    99    98   ar
    69    93    96   ar
    70    62    61    1
    71    69    68    1
    72    90    87    1
    73    52    57   am
    74    52    51    1
    75    57    58    1
    76    78    77   ar
    77    77    76    1
    78    70    68    1
    79    98    96   ar
    80    86    87    1
    81    61    58    1
    82    68    65    1
    83    76    73    1
    84    87    88    1
    85    58    59    1
    86    51    50    1
    87    51    54    1
    88    60    59    2
    89    89    88    2
    90    55    54    1
    91    65    64    1
    92    65    66    1
    93    73    72    1
    94    73    74    1
    95    54    56    1
    96    74    75    2
    97    66    67    2
