@<TRIPOS>MOLECULE
tmp/4cseB00.pdb
 102 98 0 0 0
SMALL
GASTEIGER

@<TRIPOS>ATOM
      1  N          0.8860  -50.2480  -20.0790 N.3     9  LYS9       -0.1245
      2  CA         0.8770  -51.2140  -21.1670 C.3     9  LYS9        0.1561
      3  C          0.7560  -52.6580  -20.6790 C.2     9  LYS9        0.2260
      4  O          1.5190  -53.1050  -19.8310 O.2     9  LYS9       -0.2867
      5  CB         2.1210  -51.0470  -22.0190 C.3     9  LYS9        0.0271
      6  CG         2.4470  -52.2540  -22.8740 C.3     9  LYS9        0.0035
      7  CD         3.6720  -51.9650  -23.7160 C.3     9  LYS9        0.0206
      8  CE         4.1680  -53.1960  -24.4300 C.3     9  LYS9        0.1093
      9  NZ         5.4460  -52.8890  -25.1240 N.3     9  LYS9       -0.1314
     10  N         -2.4620  -56.2290  -27.7710 N.3    16  LYS16      -0.1245
     11  CA        -1.7640  -55.2190  -26.9910 C.3    16  LYS16       0.1561
     12  C         -2.7950  -54.2360  -26.4640 C.2    16  LYS16       0.2260
     13  O         -3.5630  -53.6560  -27.2390 O.2    16  LYS16      -0.2867
     14  CB        -0.7740  -54.4640  -27.8810 C.3    16  LYS16       0.0271
     15  CG         0.7060  -54.6190  -27.5520 C.3    16  LYS16       0.0035
     16  CD         1.5560  -53.9940  -28.6810 C.3    16  LYS16       0.0206
     17  CE         3.0550  -53.9300  -28.3560 C.3    16  LYS16       0.1093
     18  NZ         3.8520  -53.3330  -29.4750 N.3    16  LYS16      -0.1314
     19  N         -3.1020  -50.7350  -24.2080 N.3    18  PHE18      -0.1241
     20  CA        -2.6540  -49.5970  -23.4240 C.3    18  PHE18       0.1605
     21  C         -3.8070  -48.9620  -22.6450 C.2    18  PHE18       0.2264
     22  O         -4.8620  -48.6330  -23.2150 O.2    18  PHE18      -0.2867
     23  CB        -2.0290  -48.5530  -24.3290 C.3    18  PHE18       0.0534
     24  CG        -0.8900  -49.0640  -25.1290 C.ar   18  PHE18      -0.0203
     25  CD1        0.3950  -49.0150  -24.6280 C.ar   18  PHE18      -0.0042
     26  CD2       -1.0960  -49.5970  -26.3850 C.ar   18  PHE18      -0.0042
     27  CE1        1.4640  -49.4900  -25.3750 C.ar   18  PHE18      -0.0003
     28  CE2       -0.0360  -50.0660  -27.1340 C.ar   18  PHE18      -0.0003
     29  CZ         1.2430  -50.0150  -26.6280 C.ar   18  PHE18      -0.0000
     30  N          0.9370  -49.3510  -32.4010 N.3    48  ASP48      -0.1225
     31  CA         2.0510  -49.4820  -31.4850 C.3    48  ASP48       0.1805
     32  C          3.2910  -48.8480  -32.1010 C.2    48  ASP48       0.2598
     33  O          3.2090  -48.2010  -33.1510 O.2    48  ASP48      -0.2718
     34  CB         2.2900  -50.9360  -31.0680 C.3    48  ASP48       0.1424
     35  CG         2.5420  -51.8530  -32.2370 C.2    48  ASP48       0.3668
     36  OD1        2.9270  -51.3640  -33.3180 O.co2  48  ASP48      -0.2456
     37  OD2        2.3490  -53.0760  -32.0680 O.co2  48  ASP48      -0.2456
     38  N          4.4370  -49.0260  -31.4490 N.am   49  ALA49      -0.1966
     39  CA         5.6680  -48.3980  -31.9060 C.3    49  ALA49       0.1728
     40  C          6.1370  -49.1040  -33.1520 C.2    49  ALA49       0.2616
     41  O          6.6730  -48.4760  -34.0610 O.2    49  ALA49      -0.2715
     42  CB         6.7220  -48.4580  -30.8350 C.3    49  ALA49       0.0334
     43  N          5.9180  -50.4150  -33.1890 N.am   50  LYS50      -0.1977
     44  CA         6.2870  -51.2190  -34.3460 C.3    50  LYS50       0.1596
     45  C          5.5900  -50.6970  -35.5930 C.2    50  LYS50       0.2287
     46  O          6.2400  -50.2480  -36.5380 O.2    50  LYS50      -0.2864
     47  CB         5.9550  -52.6960  -34.1140 C.3    50  LYS50       0.0298
     48  CG         6.9250  -53.3990  -33.1680 C.3    50  LYS50       0.0038
     49  CD         6.4410  -54.7950  -32.7730 C.3    50  LYS50       0.0206
     50  CE         7.5440  -55.6110  -32.0750 C.3    50  LYS50       0.1093
     51  NZ         8.0220  -55.0050  -30.8000 N.3    50  LYS50      -0.1314
     52  N          3.1810  -53.1160  -17.7920 N.3   100  ARG100     -0.1245
     53  CA         4.3300  -52.2570  -17.6360 C.3   100  ARG100      0.1563
     54  C          3.8430  -50.8250  -17.7310 C.2   100  ARG100      0.2260
     55  O          2.8920  -50.5270  -18.4530 O.2   100  ARG100     -0.2867
     56  CB         5.3500  -52.5450  -18.7420 C.3   100  ARG100      0.0307
     57  CG         5.2840  -53.9750  -19.3020 C.3   100  ARG100      0.0489
     58  CD         6.1480  -54.1120  -20.5560 C.3   100  ARG100      0.2205
     59  NE         5.6830  -55.1500  -21.4790 N.pl3 100  ARG100     -0.0865
     60  CZ         6.1450  -55.3060  -22.7210 C.cat 100  ARG100      0.5346
     61  NH1        7.0800  -54.4870  -23.1930 N.pl3 100  ARG100      0.1354
     62  NH2        5.6680  -56.2730  -23.4980 N.pl3 100  ARG100      0.1354
     63  N          4.9650  -47.3870  -19.1520 N.3   102  LEU102     -0.1231
     64  CA         5.9670  -46.8550  -20.0650 C.3   102  LEU102      0.1693
     65  C          6.7170  -45.7180  -19.3900 C.2   102  LEU102      0.2592
     66  O          6.1120  -44.9230  -18.6690 O.2   102  LEU102     -0.2718
     67  CB         5.3110  -46.3480  -21.3510 C.3   102  LEU102      0.0284
     68  CG         4.4920  -47.3570  -22.1570 C.3   102  LEU102      0.0019
     69  CD1        4.2220  -46.8350  -23.5610 C.3   102  LEU102      0.0001
     70  CD2        5.1890  -48.7130  -22.1980 C.3   102  LEU102      0.0001
     71  N          8.0300  -45.6440  -19.6100 N.am  103  LYS103     -0.1966
     72  CA         8.8270  -44.5580  -19.0440 C.3   103  LYS103      0.1728
     73  C          8.5630  -43.2540  -19.8060 C.2   103  LYS103      0.2616
     74  O          8.2850  -42.2150  -19.2040 O.2   103  LYS103     -0.2715
     75  CB        10.3250  -44.9080  -19.0340 C.3   103  LYS103      0.0311
     76  CG        11.1450  -43.9360  -18.2370 C.3   103  LYS103      0.0038
     77  CD        12.6360  -44.2120  -18.3960 C.3   103  LYS103      0.0206
     78  CE        13.1520  -43.8620  -19.7960 C.3   103  LYS103      0.1093
     79  NZ        12.5050  -44.6110  -20.8960 N.3   103  LYS103     -0.1314
     80  N          8.6240  -43.3220  -21.1320 N.am  104  TYR104     -0.1960
     81  CA         8.4470  -42.1340  -21.9620 C.3   104  TYR104      0.1771
     82  C          6.9780  -41.7560  -22.1710 C.2   104  TYR104      0.2619
     83  O          6.5430  -40.6790  -21.7580 O.2   104  TYR104     -0.2715
     84  CB         9.1360  -42.3170  -23.3150 C.3   104  TYR104      0.0574
     85  CG         9.0480  -41.1250  -24.2300 C.ar  104  TYR104     -0.0198
     86  CD1        9.6110  -39.9190  -23.8900 C.ar  104  TYR104     -0.0009
     87  CD2        8.3940  -41.1950  -25.4170 C.ar  104  TYR104     -0.0009
     88  CE1        9.5380  -38.8020  -24.7090 C.ar  104  TYR104      0.0417
     89  CE2        8.2970  -40.0790  -26.2500 C.ar  104  TYR104      0.0417
     90  CZ         8.9020  -38.9280  -25.9160 C.ar  104  TYR104      0.1957
     91  OH         8.7820  -37.8300  -26.7680 O.3   104  TYR104     -0.2866
     92  N          6.2200  -42.6410  -22.8150 N.am  105  ARG105     -0.1977
     93  CA         4.8520  -42.3270  -23.2240 C.3   105  ARG105      0.1597
     94  C          3.9050  -42.0840  -22.0550 C.2   105  ARG105      0.2287
     95  O          3.9220  -42.8170  -21.0650 O.2   105  ARG105     -0.2864
     96  CB         4.2950  -43.4300  -24.1310 C.3   105  ARG105      0.0334
     97  CG         4.8540  -43.3130  -25.5520 C.3   105  ARG105      0.0492
     98  CD         4.2260  -44.4010  -26.4280 C.3   105  ARG105      0.2205
     99  NE         4.5630  -44.1760  -27.8590 N.pl3 105  ARG105     -0.0865
    100  CZ         5.6460  -44.7290  -28.3900 C.cat 105  ARG105      0.5346
    101  NH1        6.5150  -45.4530  -27.7180 N.pl3 105  ARG105      0.1354
    102  NH2        5.9130  -44.4810  -29.6800 N.pl3 105  ARG105      0.1354
@<TRIPOS>BOND
     1    46    45    2
     2    45    44    1
     3    44    47    1
     4    44    43    1
     5    47    48    1
     6    41    40    2
     7    36    35   ar
     8    43    40   am
     9    48    49    1
    10    40    39    1
    11    33    32    2
    12    49    50    1
    13    30    31    1
    14    35    37   ar
    15    35    34    1
    16    32    31    1
    17    32    38   am
    18    50    51    1
    19    39    38    1
    20    39    42    1
    21    31    34    1
    22   102   100    1
    23    18    17    1
    24    16    17    1
    25    16    15    1
    26   100    99    2
    27   100   101    1
    28    14    15    1
    29    14    11    1
    30    99    98    1
    31    10    11    1
    32    13    12    2
    33    28    29   ar
    34    28    26   ar
    35    11    12    1
    36    91    90    1
    37    29    27   ar
    38    98    97    1
    39    26    24   ar
    40    89    90   ar
    41    89    87   ar
    42    90    88   ar
    43    97    96    1
    44    87    85   ar
    45    27    25   ar
    46    24    25   ar
    47    24    23    1
    48     9     8    1
    49    88    86   ar
    50     8     7    1
    51    23    20    1
    52    85    86   ar
    53    85    84    1
    54    19    20    1
    55    96    93    1
    56     7     6    1
    57    69    68    1
    58    62    60    1
    59    20    21    1
    60    84    81    1
    61    93    92    1
    62    93    94    1
    63    22    21    2
    64    61    60    1
    65     6     5    1
    66    92    82   am
    67    60    59    2
    68    70    68    1
    69    82    81    1
    70    82    83    2
    71    68    67    1
    72    94    95    2
    73     5     2    1
    74    81    80    1
    75    59    58    1
    76    67    64    1
    77     2     3    1
    78     2     1    1
    79    80    73   am
    80    79    78    1
    81     3     4    2
    82    58    57    1
    83    64    65    1
    84    64    63    1
    85    73    74    2
    86    73    72    1
    87    78    77    1
    88    71    65   am
    89    71    72    1
    90    65    66    2
    91    57    56    1
    92    72    75    1
    93    75    76    1
    94    56    53    1
    95    55    54    2
    96    77    76    1
    97    52    53    1
    98    54    53    1
