@<TRIPOS>MOLECULE
tmp/4cseA00.pdb
 126 122 0 0 0
SMALL
GASTEIGER

@<TRIPOS>ATOM
      1  N         10.2070  -24.9930   -6.1520 N.3    11  LYS11      -0.1245
      2  CA         9.7950  -25.3600   -7.5300 C.3    11  LYS11       0.1561
      3  C          8.8480  -26.5810   -7.6160 C.2    11  LYS11       0.2260
      4  O          9.2160  -27.6860   -7.2010 O.2    11  LYS11      -0.2867
      5  CB        11.0150  -25.5930   -8.4380 C.3    11  LYS11       0.0271
      6  CG        10.7260  -26.3950   -9.7170 C.3    11  LYS11       0.0035
      7  CD        11.9410  -26.4880  -10.6420 C.3    11  LYS11       0.0206
      8  CE        11.7390  -27.5350  -11.7380 C.3    11  LYS11       0.1093
      9  NZ        12.8850  -27.6510  -12.7060 N.3    11  LYS11      -0.1314
     10  N          5.3280  -25.4320  -15.3120 N.3    18  LYS18      -0.1245
     11  CA         6.0710  -25.1670  -14.0780 C.3    18  LYS18       0.1561
     12  C          5.3280  -24.1230  -13.2760 C.2    18  LYS18       0.2260
     13  O          4.5610  -23.3270  -13.8230 O.2    18  LYS18      -0.2867
     14  CB         7.4840  -24.6600  -14.3710 C.3    18  LYS18       0.0271
     15  CG         8.4940  -25.7320  -14.7100 C.3    18  LYS18       0.0035
     16  CD         9.6630  -25.1610  -15.5190 C.3    18  LYS18       0.0206
     17  CE        10.6950  -26.2420  -15.8370 C.3    18  LYS18       0.1093
     18  NZ        11.7850  -25.7670  -16.7320 N.3    18  LYS18      -0.1314
     19  N          6.0980  -21.6470   -9.5480 N.3    20  PHE20      -0.1241
     20  CA         7.0500  -21.3140   -8.4900 C.3    20  PHE20       0.1605
     21  C          6.4430  -20.5290   -7.3120 C.2    20  PHE20       0.2264
     22  O          5.7710  -19.5130   -7.5230 O.2    20  PHE20      -0.2867
     23  CB         8.2210  -20.5060   -9.0840 C.3    20  PHE20       0.0534
     24  CG         9.0770  -21.2750  -10.0650 C.ar   20  PHE20      -0.0203
     25  CD1       10.0510  -22.1460   -9.6190 C.ar   20  PHE20      -0.0042
     26  CD2        8.9120  -21.1040  -11.4330 C.ar   20  PHE20      -0.0042
     27  CE1       10.8190  -22.8390  -10.5100 C.ar   20  PHE20      -0.0003
     28  CE2        9.6840  -21.7980  -12.3320 C.ar   20  PHE20      -0.0003
     29  CZ        10.6350  -22.6660  -11.8730 C.ar   20  PHE20      -0.0000
     30  N         10.7940  -16.5270  -16.5480 N.3    48  LEU48      -0.1231
     31  CA        11.4060  -17.4930  -17.4560 C.3    48  LEU48       0.1693
     32  C         12.2200  -18.5490  -16.7100 C.2    48  LEU48       0.2592
     33  O         12.9360  -18.2360  -15.7640 O.2    48  LEU48      -0.2718
     34  CB        12.2950  -16.7770  -18.4650 C.3    48  LEU48       0.0284
     35  CG        11.5580  -15.9640  -19.5170 C.3    48  LEU48       0.0019
     36  CD1       12.4640  -14.9230  -20.0830 C.3    48  LEU48       0.0001
     37  CD2       11.0510  -16.8670  -20.6200 C.3    48  LEU48       0.0001
     38  N         12.1050  -19.8010  -17.1350 N.am   49  ASP49      -0.1960
     39  CA        12.9200  -20.8480  -16.5540 C.3    49  ASP49       0.1840
     40  C         14.3240  -20.7720  -17.1280 C.2    49  ASP49       0.2622
     41  O         14.6760  -19.8110  -17.8070 O.2    49  ASP49      -0.2715
     42  CB        12.3100  -22.2310  -16.7970 C.3    49  ASP49       0.1450
     43  CG        12.1060  -22.5440  -18.2730 C.2    49  ASP49       0.3671
     44  OD1       12.6710  -21.8410  -19.1350 O.co2  49  ASP49      -0.2456
     45  OD2       11.3730  -23.5100  -18.5760 O.co2  49  ASP49      -0.2456
     46  N         15.1210  -21.8010  -16.8790 N.am   50  ALA50      -0.1963
     47  CA        16.5070  -21.7940  -17.3180 C.3    50  ALA50       0.1728
     48  C         16.5870  -21.8470  -18.8300 C.2    50  ALA50       0.2616
     49  O         17.4430  -21.1980  -19.4330 O.2    50  ALA50      -0.2715
     50  CB        17.2610  -22.9640  -16.7130 C.3    50  ALA50       0.0334
     51  N         15.6910  -22.6160  -19.4470 N.am   51  LYS51      -0.1977
     52  CA        15.7890  -22.8720  -20.8800 C.3    51  LYS51       0.1596
     53  C         15.1240  -21.7600  -21.6580 C.2    51  LYS51       0.2287
     54  O         14.8980  -21.8860  -22.8580 O.2    51  LYS51      -0.2864
     55  CB        15.1950  -24.2350  -21.2360 C.3    51  LYS51       0.0298
     56  CG        15.3360  -25.2360  -20.1050 C.3    51  LYS51       0.0038
     57  CD        15.3870  -26.6660  -20.6030 C.3    51  LYS51       0.0206
     58  CE        15.5970  -27.6340  -19.4380 C.3    51  LYS51       0.1093
     59  NZ        15.8480  -29.0410  -19.8810 N.3    51  LYS51      -0.1314
     60  N         10.6320  -29.0490   -5.0410 N.3   101  ARG101     -0.1231
     61  CA        12.0820  -28.9290   -4.9000 C.3   101  ARG101      0.1694
     62  C         12.4930  -27.4840   -4.5600 C.2   101  ARG101      0.2592
     63  O         11.8030  -26.5270   -4.9170 O.2   101  ARG101     -0.2718
     64  CB        12.7980  -29.4340   -6.1570 C.3   101  ARG101      0.0321
     65  CG        12.2090  -28.9040   -7.4760 C.3   101  ARG101      0.0489
     66  CD        12.8930  -29.5200   -8.6650 C.3   101  ARG101      0.2205
     67  NE        14.3520  -29.4540   -8.4890 N.pl3 101  ARG101     -0.0865
     68  CZ        15.2250  -30.0980   -9.2520 C.cat 101  ARG101      0.5346
     69  NH1       14.8020  -30.8480  -10.2430 N.pl3 101  ARG101      0.1354
     70  NH2       16.5260  -30.0040   -9.0120 N.pl3 101  ARG101      0.1354
     71  N         13.6060  -27.3360   -3.8450 N.am  102  MET102     -0.1965
     72  CA        14.0820  -26.0170   -3.4180 C.3   102  MET102      0.1736
     73  C         15.3420  -25.5870   -4.1670 C.2   102  MET102      0.2616
     74  O         16.3430  -26.3160   -4.2150 O.2   102  MET102     -0.2715
     75  CB        14.3350  -26.0040   -1.9120 C.3   102  MET102      0.0427
     76  CG        15.0070  -24.7550   -1.3870 C.3   102  MET102      0.0599
     77  SD        14.8100  -24.6340    0.3980 S.3   102  MET102     -0.1393
     78  CE        15.0660  -26.3450    0.8760 C.3   102  MET102      0.0692
     79  N         15.2900  -24.4020   -4.7570 N.am  103  LEU103     -0.1963
     80  CA        16.3690  -23.9500   -5.6080 C.3   103  LEU103      0.1728
     81  C         17.5980  -23.6230   -4.7730 C.2   103  LEU103      0.2616
     82  O         17.5010  -22.9360   -3.7530 O.2   103  LEU103     -0.2715
     83  CB        15.9210  -22.7430   -6.4190 C.3   103  LEU103      0.0311
     84  CG        14.8580  -23.0650   -7.4600 C.3   103  LEU103      0.0022
     85  CD1       14.6040  -21.8630   -8.3330 C.3   103  LEU103      0.0001
     86  CD2       15.2930  -24.2570   -8.2880 C.3   103  LEU103      0.0001
     87  N         18.7530  -24.1180   -5.2070 N.am  104  LYS104     -0.1963
     88  CA        19.9750  -24.0040   -4.4270 C.3   104  LYS104      0.1728
     89  C         20.6220  -22.6170   -4.5350 C.2   104  LYS104      0.2616
     90  O         21.0880  -22.0720   -3.5370 O.2   104  LYS104     -0.2715
     91  CB        20.9510  -25.1220   -4.8250 C.3   104  LYS104      0.0311
     92  CG        20.4370  -26.5240   -4.4990 C.3   104  LYS104      0.0038
     93  CD        21.3330  -27.6260   -5.0600 C.3   104  LYS104      0.0206
     94  CE        22.3960  -28.0690   -4.0730 C.3   104  LYS104      0.1093
     95  NZ        23.3540  -27.0050   -3.6730 N.3   104  LYS104     -0.1314
     96  N         20.6300  -22.0330   -5.7310 N.am  105  TYR105     -0.1960
     97  CA        21.3940  -20.8040   -5.9450 C.3   105  TYR105      0.1771
     98  C         20.5080  -19.5870   -6.1500 C.2   105  TYR105      0.2619
     99  O         20.7640  -18.7410   -7.0120 O.2   105  TYR105     -0.2715
    100  CB        22.3680  -20.9760   -7.1110 C.3   105  TYR105      0.0574
    101  CG        23.0710  -22.2950   -7.0300 C.ar  105  TYR105     -0.0198
    102  CD1       23.6960  -22.6870   -5.8610 C.ar  105  TYR105     -0.0009
    103  CD2       23.0460  -23.1760   -8.0910 C.ar  105  TYR105     -0.0009
    104  CE1       24.3040  -23.8990   -5.7630 C.ar  105  TYR105      0.0417
    105  CE2       23.6540  -24.3890   -8.0090 C.ar  105  TYR105      0.0417
    106  CZ        24.2810  -24.7500   -6.8410 C.ar  105  TYR105      0.1957
    107  OH        24.8940  -25.9760   -6.7540 O.3   105  TYR105     -0.2866
    108  N         19.4740  -19.4870   -5.3280 N.am  106  ARG106     -0.1977
    109  CA        18.5060  -18.4310   -5.5000 C.3   106  ARG106      0.1597
    110  C         17.5740  -18.3140   -4.3130 C.2   106  ARG106      0.2287
    111  O         17.2900  -19.2970   -3.6290 O.2   106  ARG106     -0.2864
    112  CB        17.7060  -18.7200   -6.7390 C.3   106  ARG106      0.0334
    113  CG        17.1480  -17.5060   -7.3180 C.3   106  ARG106      0.0492
    114  CD        16.0140  -17.8850   -8.1530 C.3   106  ARG106      0.2205
    115  NE        16.4410  -18.4410   -9.4100 N.pl3 106  ARG106     -0.0865
    116  CZ        16.7090  -17.6940  -10.4580 C.cat 106  ARG106      0.5346
    117  NH1       16.6230  -16.3770  -10.3660 N.pl3 106  ARG106      0.1354
    118  NH2       17.0650  -18.2660  -11.5880 N.pl3 106  ARG106      0.1354
    119  N         12.3040  -15.8700   -7.4100 N.3   109  LEU109     -0.1245
    120  CA        12.1920  -15.7510   -8.8640 C.3   109  LEU109      0.1561
    121  C         11.5380  -14.4300   -9.2570 C.2   109  LEU109      0.2260
    122  O         10.4250  -14.1580   -8.8500 O.2   109  LEU109     -0.2867
    123  CB        11.3430  -16.8830   -9.3950 C.3   109  LEU109      0.0270
    124  CG        11.7570  -17.5230  -10.7090 C.3   109  LEU109      0.0019
    125  CD1       12.4660  -16.5500  -11.5940 C.3   109  LEU109      0.0001
    126  CD2       12.6240  -18.7040  -10.4290 C.3   109  LEU109      0.0001
@<TRIPOS>BOND
     1    54    53    2
     2    53    52    1
     3    55    52    1
     4    55    56    1
     5    52    51    1
     6    37    35    1
     7    57    56    1
     8    57    58    1
     9    36    35    1
    10    59    58    1
    11    35    34    1
    12    51    48   am
    13    49    48    2
    14    44    43   ar
    15    48    47    1
    16    45    43   ar
    17    34    31    1
    18    43    42    1
    19    41    40    2
    20    31    32    1
    21    31    30    1
    22    47    46    1
    23    47    50    1
    24    38    32   am
    25    38    39    1
    26    40    46   am
    27    40    39    1
    28    42    39    1
    29    18    17    1
    30    32    33    2
    31    17    16    1
    32    16    15    1
    33    10    11    1
    34    15    14    1
    35    14    11    1
    36    11    12    1
    37    13    12    2
    38     9     8    1
    39    28    29   ar
    40    28    26   ar
    41    29    27   ar
    42     8     7    1
    43   125   124    1
    44   118   116    1
    45    26    24   ar
    46   124   126    1
    47   124   123    1
    48     7     6    1
    49    27    25   ar
    50   116   117    1
    51   116   115    2
    52    69    68    1
    53    24    25   ar
    54    24    23    1
    55     6     5    1
    56    19    20    1
    57   115   114    1
    58   123   120    1
    59   121   120    1
    60   121   122    2
    61    68    70    1
    62    68    67    2
    63    23    20    1
    64   120   119    1
    65    66    67    1
    66    66    65    1
    67    20    21    1
    68     5     2    1
    69    85    84    1
    70    86    84    1
    71   114   113    1
    72   103   105   ar
    73   103   101   ar
    74   105   106   ar
    75     3     2    1
    76     3     4    2
    77     2     1    1
    78    22    21    2
    79    65    64    1
    80    84    83    1
    81   113   112    1
    82   100   101    1
    83   100    97    1
    84   101   102   ar
    85    99    98    2
    86   106   107    1
    87   106   104   ar
    88   112   109    1
    89    83    80    1
    90    64    61    1
    91    98    97    1
    92    98   108   am
    93    97    96    1
    94   102   104   ar
    95    96    89   am
    96    80    81    1
    97    80    79    1
    98   109   108    1
    99   109   110    1
   100    87    81   am
   101    87    88    1
   102    93    92    1
   103    93    94    1
   104    60    61    1
   105    63    62    2
   106    61    62    1
   107    91    92    1
   108    91    88    1
   109    81    82    2
   110    79    73   am
   111    62    71   am
   112    89    88    1
   113    89    90    2
   114   110   111    2
   115    74    73    2
   116    73    72    1
   117    94    95    1
   118    71    72    1
   119    72    75    1
   120    75    76    1
   121    76    77    1
   122    77    78    1
