@<TRIPOS>MOLECULE
tmp/4cshA00.pdb
 90 88 0 0 0
SMALL
GASTEIGER

@<TRIPOS>ATOM
      1  N         12.8380   20.2980   65.7580 N.3    35  PHE35      -0.1241
      2  CA        13.3050   18.9580   65.3890 C.3    35  PHE35       0.1605
      3  C         14.6080   18.6430   66.1180 C.2    35  PHE35       0.2264
      4  O         15.3170   19.5290   66.6000 O.2    35  PHE35      -0.2867
      5  CB        13.4550   18.8460   63.8710 C.3    35  PHE35       0.0534
      6  CG        12.1590   19.0710   63.1350 C.ar   35  PHE35      -0.0203
      7  CD1       11.1400   18.1210   63.1960 C.ar   35  PHE35      -0.0042
      8  CD2       11.9320   20.2200   62.4220 C.ar   35  PHE35      -0.0042
      9  CE1        9.9150   18.3550   62.5640 C.ar   35  PHE35      -0.0003
     10  CE2       10.7330   20.4400   61.7760 C.ar   35  PHE35      -0.0003
     11  CZ         9.7140   19.4950   61.8500 C.ar   35  PHE35      -0.0000
     12  N         13.1930   22.0650   57.7280 N.3    49  TYR49      -0.1241
     13  CA        12.5750   20.9470   58.4780 C.3    49  TYR49       0.1605
     14  C         13.4980   19.7610   58.8340 C.2    49  TYR49       0.2264
     15  O         12.9820   18.6590   59.1720 O.2    49  TYR49      -0.2867
     16  CB        11.3210   20.3680   57.7640 C.3    49  TYR49       0.0534
     17  CG        10.4110   21.4150   57.2060 C.ar   49  TYR49      -0.0201
     18  CD1        9.7950   22.3480   58.0470 C.ar   49  TYR49      -0.0009
     19  CD2       10.1750   21.4980   55.8300 C.ar   49  TYR49      -0.0009
     20  CE1        9.0010   23.3730   57.5240 C.ar   49  TYR49       0.0417
     21  CE2        9.3780   22.4890   55.2940 C.ar   49  TYR49       0.0417
     22  CZ         8.7820   23.4320   56.1320 C.ar   49  TYR49       0.1957
     23  OH         8.0200   24.4300   55.5590 O.3    49  TYR49      -0.2866
     24  N         13.4980   15.0050   56.6950 N.3    52  GLN52      -0.1231
     25  CA        12.1440   14.5000   56.4920 C.3    52  GLN52       0.1698
     26  C         12.1400   13.2970   55.5490 C.2    52  GLN52       0.2592
     27  O         13.1440   13.0080   54.8560 O.2    52  GLN52      -0.2718
     28  CB        11.2590   15.6490   55.9410 C.3    52  GLN52       0.0381
     29  CG        11.1450   16.8650   56.8760 C.3    52  GLN52       0.0905
     30  CD        10.1620   16.6610   58.0170 C.2    52  GLN52       0.2608
     31  OE1        9.0720   16.0510   57.8230 O.2    52  GLN52      -0.2717
     32  NE2       10.5060   17.1520   59.1940 N.am   52  GLN52      -0.0878
     33  N         10.9800   12.6570   55.4370 N.am   53  CYS53      -0.1956
     34  CA        10.8590   11.5040   54.6020 C.3    53  CYS53       0.1843
     35  C         11.1080   11.8520   53.1280 C.2    53  CYS53       0.2625
     36  O         11.8650   11.1520   52.4460 O.2    53  CYS53      -0.2714
     37  CB         9.4960   10.8150   54.8080 C.3    53  CYS53       0.0997
     38  SG         8.0100   11.7780   54.3270 S.3    53  CYS53      -0.0797
     39  N         10.5590   12.9750   52.6610 N.am   54  GLN54      -0.1977
     40  CA        10.7090   13.3420   51.2430 C.3    54  GLN54       0.1601
     41  C         12.1710   13.7160   50.8580 C.2    54  GLN54       0.2287
     42  O         12.5860   13.5100   49.7210 O.2    54  GLN54      -0.2864
     43  CB         9.7280   14.4310   50.8320 C.3    54  GLN54       0.0394
     44  CG         9.8320   14.8080   49.3500 C.3    54  GLN54       0.0908
     45  CD         9.4950   13.6980   48.4130 C.2    54  GLN54       0.2608
     46  OE1        8.7270   12.8060   48.7640 O.2    54  GLN54      -0.2717
     47  NE2       10.0750   13.7150   47.2280 N.am   54  GLN54      -0.0878
     48  N          7.1250   19.3960   46.3580 N.3    73  GLY73      -0.1210
     49  CA         5.9870   19.0740   47.2250 C.3    73  GLY73       0.1956
     50  C          6.3090   18.0420   48.3140 C.2    73  GLY73       0.2612
     51  O          7.4400   17.6040   48.4570 O.2    73  GLY73      -0.2717
     52  N          5.2840   17.6810   49.0470 N.am   74  ASN74      -0.1960
     53  CA         5.3460   16.7510   50.1440 C.3    74  ASN74       0.1819
     54  C          5.2510   15.3140   49.6400 C.2    74  ASN74       0.2621
     55  O          5.0490   15.0690   48.4540 O.2    74  ASN74      -0.2715
     56  CB         4.1460   17.0260   51.0650 C.3    74  ASN74       0.1195
     57  CG         4.3220   18.3000   51.8610 C.2    74  ASN74       0.2630
     58  OD1        5.4160   18.6120   52.3770 O.2    74  ASN74      -0.2716
     59  ND2        3.2540   19.0690   51.9350 N.am   74  ASN74      -0.0877
     60  N          5.4220   14.3830   50.5520 N.am   75  ALA75      -0.1977
     61  CA         5.3510   12.9460   50.2000 C.3    75  ALA75       0.1597
     62  C          4.1030   12.6370   49.4040 C.2    75  ALA75       0.2287
     63  O          4.1770   11.9890   48.3370 O.2    75  ALA75      -0.2864
     64  CB         5.4150   12.1380   51.4490 C.3    75  ALA75       0.0319
     65  N          0.1090   14.8610   55.2140 N.3   114  TRP114     -0.1227
     66  CA         1.3380   15.1410   54.4320 C.3   114  TRP114      0.1737
     67  C          1.8440   13.9970   53.5390 C.2   114  TRP114      0.2596
     68  O          2.6950   14.1970   52.6670 O.2   114  TRP114     -0.2718
     69  CB         2.4750   15.5390   55.3720 C.3   114  TRP114      0.0564
     70  CG         2.2060   16.7720   56.1060 C.ar  114  TRP114      0.0003
     71  CD1        2.2550   18.0390   55.6190 C.ar  114  TRP114      0.0946
     72  CD2        1.8630   16.8730   57.4870 C.ar  114  TRP114      0.0152
     73  NE1        1.9600   18.9170   56.6090 N.ar  114  TRP114     -0.2442
     74  CE2        1.6960   18.2250   57.7660 C.ar  114  TRP114      0.0810
     75  CE3        1.6680   15.9420   58.5010 C.ar  114  TRP114      0.0012
     76  CZ2        1.3760   18.6890   59.0350 C.ar  114  TRP114      0.0191
     77  CZ3        1.3290   16.3930   59.7630 C.ar  114  TRP114      0.0001
     78  CH2        1.1990   17.7640   60.0210 C.ar  114  TRP114      0.0015
     79  N          1.3140   12.7860   53.7900 N.am  115  GLY115     -0.1957
     80  CA         1.8600   11.6020   53.2610 C.3   115  GLY115      0.1869
     81  C          3.1240   11.1440   54.0070 C.2   115  GLY115      0.2309
     82  O          3.6830   11.8580   54.8270 O.2   115  GLY115     -0.2863
     83  N         12.5030    9.7350   58.9850 N.3   135  ASN135     -0.1240
     84  CA        11.4980   10.4480   59.7970 C.3   135  ASN135      0.1653
     85  C         10.2240    9.6950   60.1360 C.2   135  ASN135      0.2266
     86  O          9.1870   10.3100   60.3650 O.2   135  ASN135     -0.2867
     87  CB        11.1330   11.8150   59.2090 C.3   135  ASN135      0.1155
     88  CG        10.5320   12.7450   60.2490 C.2   135  ASN135      0.2627
     89  OD1       10.8620   12.6610   61.4120 O.2   135  ASN135     -0.2716
     90  ND2        9.6470   13.5840   59.8250 N.am  135  ASN135     -0.0877
@<TRIPOS>BOND
     1    48    49    1
     2    49    50    1
     3    47    45   am
     4    50    51    2
     5    50    52   am
     6    63    62    2
     7    45    46    2
     8    45    44    1
     9    55    54    2
    10    52    53    1
    11    44    43    1
    12    62    61    1
    13    54    53    1
    14    54    60   am
    15    42    41    2
    16    53    56    1
    17    61    60    1
    18    61    64    1
    19    43    40    1
    20    41    40    1
    21    56    57    1
    22    40    39    1
    23    57    59   am
    24    57    58    2
    25    36    35    2
    26    39    35   am
    27    68    67    2
    28    35    34    1
    29    80    79    1
    30    80    81    1
    31    67    79   am
    32    67    66    1
    33    81    82    2
    34    38    37    1
    35    66    65    1
    36    66    69    1
    37    34    37    1
    38    34    33    1
    39    27    26    2
    40    21    19   ar
    41    21    22   ar
    42    69    70    1
    43    33    26   am
    44    26    25    1
    45    23    22    1
    46    71    70   ar
    47    71    73   ar
    48    19    17   ar
    49    28    25    1
    50    28    29    1
    51    70    72   ar
    52    22    20   ar
    53    25    24    1
    54    73    74   ar
    55    29    30    1
    56    17    16    1
    57    17    18   ar
    58    72    74   ar
    59    72    75   ar
    60    20    18   ar
    61    12    13    1
    62    16    13    1
    63    74    76   ar
    64    31    30    2
    65    30    32   am
    66    13    14    1
    67    75    77   ar
    68    14    15    2
    69    83    84    1
    70    76    78   ar
    71    87    84    1
    72    87    88    1
    73    77    78   ar
    74    84    85    1
    75    90    88   am
    76    85    86    2
    77    88    89    2
    78    10    11   ar
    79    10     8   ar
    80    11     9   ar
    81     8     6   ar
    82     9     7   ar
    83     6     7   ar
    84     6     5    1
    85     5     2    1
    86     2     1    1
    87     2     3    1
    88     3     4    2
