@<TRIPOS>MOLECULE
tmp/4csiA01.pdb
 110 106 0 0 0
SMALL
GASTEIGER

@<TRIPOS>ATOM
      1  N         14.4470   40.0290   62.1080 N.3   143  ALA143     -0.1245
      2  CA        14.6080   40.3290   63.5180 C.3   143  ALA143      0.1562
      3  C         14.0910   39.2250   64.4190 C.2   143  ALA143      0.2260
      4  O         13.0780   38.5880   64.1140 O.2   143  ALA143     -0.2867
      5  CB        13.9160   41.6480   63.8210 C.3   143  ALA143      0.0290
      6  N         13.4010   39.1200   68.5600 N.3   145  TYR145     -0.1241
      7  CA        13.4350   40.0160   69.6960 C.3   145  TYR145      0.1605
      8  C         12.3170   39.7430   70.6850 C.2   145  TYR145      0.2264
      9  O         11.4200   38.9580   70.4080 O.2   145  TYR145     -0.2867
     10  CB        13.4080   41.4850   69.2640 C.3   145  TYR145      0.0534
     11  CG        12.2030   41.9450   68.4380 C.ar  145  TYR145     -0.0201
     12  CD1       12.1100   41.6460   67.0820 C.ar  145  TYR145     -0.0009
     13  CD2       11.1970   42.7250   69.0120 C.ar  145  TYR145     -0.0009
     14  CE1       11.0520   42.0910   66.3100 C.ar  145  TYR145      0.0417
     15  CE2       10.1260   43.1910   68.2410 C.ar  145  TYR145      0.0417
     16  CZ        10.0630   42.8760   66.8950 C.ar  145  TYR145      0.1957
     17  OH         9.0010   43.3370   66.1360 O.3   145  TYR145     -0.2866
     18  N          0.4560   43.6100   69.8480 N.3   171  TYR171     -0.1241
     19  CA         1.8280   44.0250   69.6120 C.3   171  TYR171      0.1605
     20  C          2.1030   45.3810   70.2600 C.2   171  TYR171      0.2264
     21  O          1.2030   46.2390   70.3710 O.2   171  TYR171     -0.2867
     22  CB         2.1230   44.1150   68.1150 C.3   171  TYR171      0.0534
     23  CG         3.5850   44.4150   67.8740 C.ar  171  TYR171     -0.0201
     24  CD1        4.5670   43.5160   68.2890 C.ar  171  TYR171     -0.0009
     25  CD2        3.9940   45.6420   67.3160 C.ar  171  TYR171     -0.0009
     26  CE1        5.9180   43.7960   68.0940 C.ar  171  TYR171      0.0417
     27  CE2        5.3400   45.9140   67.1030 C.ar  171  TYR171      0.0417
     28  CZ         6.2930   44.9990   67.5030 C.ar  171  TYR171      0.1957
     29  OH         7.6530   45.2760   67.3230 O.3   171  TYR171     -0.2866
     30  N          5.9830   47.8730   70.9720 N.3   173  ASP173     -0.1239
     31  CA         7.4260   47.8850   71.1570 C.3   173  ASP173      0.1674
     32  C          7.9070   49.2720   71.5650 C.2   173  ASP173      0.2266
     33  O          7.0990   50.1650   71.8530 O.2   173  ASP173     -0.2867
     34  CB         8.1710   47.3330   69.9200 C.3   173  ASP173      0.1410
     35  CG         8.0590   48.2180   68.6910 C.2   173  ASP173      0.3668
     36  OD1        7.9350   49.4630   68.8250 O.co2 173  ASP173     -0.2456
     37  OD2        8.1600   47.6530   67.5680 O.co2 173  ASP173     -0.2456
     38  N          9.2020   51.6150   70.1210 N.3   175  GLN175     -0.1245
     39  CA         8.9890   52.7060   69.1510 C.3   175  GLN175      0.1566
     40  C          7.5860   53.2690   69.2360 C.2   175  GLN175      0.2260
     41  O          7.2580   54.2270   68.5190 O.2   175  GLN175     -0.2867
     42  CB         9.2000   52.2410   67.6960 C.3   175  GLN175      0.0367
     43  CG        10.5600   51.6450   67.4050 C.3   175  GLN175      0.0905
     44  CD        11.7040   52.5860   67.7550 C.2   175  GLN175      0.2608
     45  OE1       11.7650   53.7090   67.2690 O.2   175  GLN175     -0.2717
     46  NE2       12.6120   52.1270   68.5850 N.am  175  GLN175     -0.0878
     47  N         11.3070   46.5560   75.2730 N.3   212  GLU212     -0.1245
     48  CA        11.7320   45.7580   74.1410 C.3   212  GLU212      0.1567
     49  C         13.1940   45.4030   74.3270 C.2   212  GLU212      0.2260
     50  O         13.9890   46.2830   74.5340 O.2   212  GLU212     -0.2867
     51  CB        11.5900   46.5860   72.8770 C.3   212  GLU212      0.0388
     52  CG        11.9020   45.8360   71.5910 C.3   212  GLU212      0.1160
     53  CD        11.7340   46.6880   70.3500 C.2   212  GLU212      0.3649
     54  OE1       11.3400   47.8790   70.4620 O.co2 212  GLU212     -0.2457
     55  OE2       12.0670   46.1860   69.2390 O.co2 212  GLU212     -0.2457
     56  N         15.9030   43.8440   72.0110 N.3   214  ASP214     -0.1239
     57  CA        16.2190   43.4400   70.6540 C.3   214  ASP214      0.1674
     58  C         17.4490   42.5690   70.6570 C.2   214  ASP214      0.2266
     59  O         18.5690   43.0420   70.5600 O.2   214  ASP214     -0.2867
     60  CB        16.3950   44.6640   69.7720 C.3   214  ASP214      0.1410
     61  CG        15.1080   45.3600   69.5380 C.2   214  ASP214      0.3668
     62  OD1       14.1210   44.6610   69.2240 O.co2 214  ASP214     -0.2456
     63  OD2       15.0770   46.5980   69.7040 O.co2 214  ASP214     -0.2456
     64  N         18.6830   42.3640   65.6100 N.3   217  GLU217     -0.1245
     65  CA        18.1940   43.1200   64.4770 C.3   217  GLU217      0.1567
     66  C         19.3130   43.0500   63.4860 C.2   217  GLU217      0.2260
     67  O         20.4360   43.4360   63.7930 O.2   217  GLU217     -0.2867
     68  CB        17.8400   44.5390   64.8770 C.3   217  GLU217      0.0388
     69  CG        16.5640   44.4810   65.7260 C.3   217  GLU217      0.1160
     70  CD        16.0780   45.8440   66.1560 C.2   217  GLU217      0.3649
     71  OE1       16.8090   46.5330   66.8730 O.co2 217  GLU217     -0.2457
     72  OE2       14.9550   46.2140   65.7800 O.co2 217  GLU217     -0.2457
     73  N         15.8500   48.3070   75.1780 N.3   228  HIS228     -0.1241
     74  CA        15.0800   49.5510   75.2010 C.3   228  HIS228      0.1621
     75  C         14.2060   49.5380   76.4570 C.2   228  HIS228      0.2264
     76  O         13.2010   48.8320   76.4840 O.2   228  HIS228     -0.2867
     77  CB        14.0950   49.6150   74.0250 C.3   228  HIS228      0.0745
     78  CG        14.7310   49.6560   72.6720 C.ar  228  HIS228      0.0817
     79  ND1       14.8350   50.8170   71.9270 N.ar  228  HIS228     -0.2268
     80  CD2       15.2330   48.6670   71.8990 C.ar  228  HIS228      0.1154
     81  CE1       15.3710   50.5370   70.7500 C.ar  228  HIS228      0.1986
     82  NE2       15.6360   49.2390   70.7120 N.ar  228  HIS228     -0.2212
     83  N         11.2140   42.4870   57.6970 N.3   371  TRP371     -0.1241
     84  CA        10.6110   43.8000   57.3990 C.3   371  TRP371      0.1605
     85  C         11.5910   44.7560   56.7160 C.2   371  TRP371      0.2264
     86  O         12.8210   44.6470   56.9060 O.2   371  TRP371     -0.2867
     87  CB         9.9790   44.4430   58.6710 C.3   371  TRP371      0.0550
     88  CG        10.9820   44.7930   59.7780 C.ar  371  TRP371      0.0003
     89  CD1       11.6090   43.9070   60.6410 C.ar  371  TRP371      0.0946
     90  CD2       11.4600   46.1040   60.1440 C.ar  371  TRP371      0.0152
     91  NE1       12.4340   44.5920   61.5010 N.ar  371  TRP371     -0.2442
     92  CE2       12.3690   45.9340   61.2210 C.ar  371  TRP371      0.0810
     93  CE3       11.2010   47.4070   59.6750 C.ar  371  TRP371      0.0012
     94  CZ2       13.0340   47.0130   61.8200 C.ar  371  TRP371      0.0191
     95  CZ3       11.8650   48.4820   60.2740 C.ar  371  TRP371      0.0001
     96  CH2       12.7650   48.2760   61.3380 C.ar  371  TRP371      0.0015
     97  N         19.8600   53.2180   59.9570 N.3   380  TRP380     -0.1241
     98  CA        20.2440   53.1280   61.3750 C.3   380  TRP380      0.1605
     99  C         20.9150   51.7990   61.7250 C.2   380  TRP380      0.2264
    100  O         21.7010   51.7210   62.6740 O.2   380  TRP380     -0.2867
    101  CB        19.0050   53.3080   62.2640 C.3   380  TRP380      0.0550
    102  CG        17.9190   52.2860   62.0410 C.ar  380  TRP380      0.0003
    103  CD1       16.8810   52.3630   61.1620 C.ar  380  TRP380      0.0946
    104  CD2       17.7750   51.0340   62.7270 C.ar  380  TRP380      0.0152
    105  NE1       16.0980   51.2190   61.2510 N.ar  380  TRP380     -0.2442
    106  CE2       16.6330   50.3950   62.2030 C.ar  380  TRP380      0.0810
    107  CE3       18.5220   50.3830   63.7210 C.ar  380  TRP380      0.0012
    108  CZ2       16.1940   49.1440   62.6600 C.ar  380  TRP380      0.0191
    109  CZ3       18.0890   49.1340   64.1750 C.ar  380  TRP380      0.0001
    110  CH2       16.9330   48.5310   63.6390 C.ar  380  TRP380      0.0015
@<TRIPOS>BOND
     1    85    86    2
     2    85    84    1
     3    84    83    1
     4    84    87    1
     5    87    88    1
     6    93    90   ar
     7    93    95   ar
     8    88    90   ar
     9    88    89   ar
    10    97    98    1
    11    90    92   ar
    12    95    96   ar
    13    89    91   ar
    14   103   105   ar
    15   103   102   ar
    16    92    91   ar
    17    92    94   ar
    18   105   106   ar
    19    96    94   ar
    20    98    99    1
    21    98   101    1
    22    99   100    2
    23   102   101    1
    24   102   104   ar
    25     1     2    1
    26   106   108   ar
    27   106   104   ar
    28   108   110   ar
    29   104   107   ar
    30    66    67    2
    31    66    65    1
    32     2     5    1
    33     2     3    1
    34   110   109   ar
    35   107   109   ar
    36     4     3    2
    37    65    68    1
    38    65    64    1
    39    68    69    1
    40    69    70    1
    41    72    70   ar
    42    17    16    1
    43    70    71   ar
    44    14    16   ar
    45    14    12   ar
    46    16    15   ar
    47    12    11   ar
    48    27    25   ar
    49    27    28   ar
    50    45    44    2
    51    25    23   ar
    52    29    28    1
    53    43    42    1
    54    43    44    1
    55    28    26   ar
    56    37    35   ar
    57    42    39    1
    58    44    46   am
    59    23    22    1
    60    23    24   ar
    61    26    24   ar
    62    22    19    1
    63    15    13   ar
    64    11    13   ar
    65    11    10    1
    66    41    40    2
    67     6     7    1
    68    35    36   ar
    69    35    34    1
    70    39    40    1
    71    39    38    1
    72    62    61   ar
    73    55    53   ar
    74    10     7    1
    75    61    63   ar
    76    61    60    1
    77    19    18    1
    78    19    20    1
    79     7     8    1
    80    60    57    1
    81    34    31    1
    82    20    21    2
    83    53    54   ar
    84    53    52    1
    85     9     8    2
    86    59    58    2
    87    57    58    1
    88    57    56    1
    89    82    81   ar
    90    82    80   ar
    91    81    79   ar
    92    30    31    1
    93    31    32    1
    94    32    33    2
    95    52    51    1
    96    80    78   ar
    97    79    78   ar
    98    78    77    1
    99    51    48    1
   100    77    74    1
   101    48    49    1
   102    48    47    1
   103    49    50    2
   104    73    74    1
   105    74    75    1
   106    75    76    2
