@<TRIPOS>MOLECULE
tmp/4csjA01.pdb
 204 192 0 0 0
SMALL
GASTEIGER

@<TRIPOS>ATOM
      1  N         40.6400   18.4110    2.7040 N.3    31  MET31      -0.1245
      2  CA        39.2560   17.9620    2.7150 C.3    31  MET31       0.1570
      3  C         39.1430   16.5910    3.3480 C.2    31  MET31       0.2261
      4  O         38.3200   16.4130    4.2400 O.2    31  MET31      -0.2867
      5  CB        38.6450   17.9920    1.3060 C.3    31  MET31       0.0387
      6  CG        38.3370   19.3840    0.7960 C.3    31  MET31       0.0595
      7  SD        37.6960   19.3220   -0.9130 S.3    31  MET31      -0.1393
      8  CE        35.9950   18.7400   -0.6600 C.3    31  MET31       0.0692
      9  N         39.7940   16.7840    7.0770 N.3    34  LEU34      -0.1231
     10  CA        38.6620   17.4440    7.7410 C.3    34  LEU34       0.1693
     11  C         37.4390   16.5290    7.8690 C.2    34  LEU34       0.2592
     12  O         36.7510   16.5820    8.8840 O.2    34  LEU34      -0.2718
     13  CB        38.2960   18.7910    7.0890 C.3    34  LEU34       0.0284
     14  CG        39.3120   19.9190    7.2610 C.3    34  LEU34       0.0019
     15  CD1       38.8250   21.1930    6.5970 C.3    34  LEU34       0.0001
     16  CD2       39.6210   20.1490    8.7110 C.3    34  LEU34       0.0001
     17  N         37.2270   15.6400    6.8850 N.am   35  ASN35      -0.1974
     18  CA        36.1410   14.6640    6.9400 C.3    35  ASN35       0.1688
     19  C         36.3930   13.6600    8.0510 C.2    35  ASN35       0.2292
     20  O         35.4800   13.4090    8.8340 O.2    35  ASN35      -0.2864
     21  CB        35.9390   13.9690    5.5780 C.3    35  ASN35       0.1181
     22  CG        35.2900   14.8600    4.5760 C.2    35  ASN35       0.2629
     23  OD1       34.8250   15.9520    4.9040 O.2    35  ASN35      -0.2716
     24  ND2       35.2920   14.4520    3.3220 N.am   35  ASN35      -0.0877
     25  N         38.3830   14.1150   10.6930 N.3    37  LEU37      -0.1231
     26  CA        38.2630   14.9230   11.9040 C.3    37  LEU37       0.1693
     27  C         36.7790   15.1300   12.2540 C.2    37  LEU37       0.2592
     28  O         36.3920   14.9740   13.4130 O.2    37  LEU37      -0.2718
     29  CB        38.9910   16.2880   11.7400 C.3    37  LEU37       0.0284
     30  CG        38.9260   17.2580   12.9520 C.3    37  LEU37       0.0019
     31  CD1       39.5000   16.6010   14.2630 C.3    37  LEU37       0.0001
     32  CD2       39.5830   18.5990   12.6170 C.3    37  LEU37       0.0001
     33  N         35.9640   15.4080   11.2330 N.am   38  GLY38      -0.1957
     34  CA        34.5290   15.6130   11.3680 C.3    38  GLY38       0.1869
     35  C         33.7870   14.4470   11.9940 C.2    38  GLY38       0.2309
     36  O         32.8740   14.6620   12.7890 O.2    38  GLY38      -0.2863
     37  N         34.5300   14.5480   15.6900 N.3    41  GLN41      -0.1245
     38  CA        33.7930   15.6390   16.3190 C.3    41  GLN41       0.1566
     39  C         32.3520   15.2050   16.5500 C.2    41  GLN41       0.2260
     40  O         31.7940   15.5090   17.6020 O.2    41  GLN41      -0.2867
     41  CB        33.8120   16.9250   15.4630 C.3    41  GLN41       0.0367
     42  CG        35.2020   17.4250   15.0220 C.3    41  GLN41       0.0905
     43  CD        36.0010   18.1610   16.0780 C.2    41  GLN41       0.2608
     44  OE1       35.7960   18.0280   17.2880 O.2    41  GLN41      -0.2717
     45  NE2       36.9440   18.9660   15.6350 N.am   41  GLN41      -0.0878
     46  N         23.8160   18.2970   12.9780 N.3    71  TRP71      -0.1227
     47  CA        25.2550   17.9880   12.9500 C.3    71  TRP71       0.1737
     48  C         26.1510   19.1130   12.3640 C.2    71  TRP71       0.2595
     49  O         27.0650   19.5660   13.0580 O.2    71  TRP71      -0.2718
     50  CB        25.5180   16.6540   12.2520 C.3    71  TRP71       0.0564
     51  CG        25.4130   16.6730   10.7580 C.ar   71  TRP71       0.0003
     52  CD1       24.2730   16.7250   10.0140 C.ar   71  TRP71       0.0946
     53  CD2       26.4960   16.5780    9.8270 C.ar   71  TRP71       0.0152
     54  NE1       24.5820   16.7020    8.6750 N.ar   71  TRP71      -0.2442
     55  CE2       25.9370   16.5530    8.5330 C.ar   71  TRP71       0.0810
     56  CE3       27.8940   16.5200    9.9610 C.ar   71  TRP71       0.0012
     57  CZ2       26.7220   16.4680    7.3770 C.ar   71  TRP71       0.0191
     58  CZ3       28.6680   16.4460    8.8120 C.ar   71  TRP71       0.0001
     59  CH2       28.0810   16.4180    7.5420 C.ar   71  TRP71       0.0015
     60  N         25.8680   19.5820   11.1200 N.am   72  MET72      -0.1979
     61  CA        26.6710   20.6230   10.4550 C.3    72  MET72       0.1605
     62  C         26.5000   21.9950   11.1110 C.2    72  MET72       0.2287
     63  O         27.4520   22.7700   11.1570 O.2    72  MET72      -0.2864
     64  CB        26.3990   20.6550    8.9270 C.3    72  MET72       0.0413
     65  CG        27.3260   21.5930    8.1380 C.3    72  MET72       0.0598
     66  SD        29.1100   21.2060    8.2490 S.3    72  MET72      -0.1393
     67  CE        29.2260   19.8390    7.1020 C.3    72  MET72       0.0692
     68  N         28.6810   21.8890   14.2630 N.3    75  MET75      -0.1230
     69  CA        30.0850   21.9210   13.8580 C.3    75  MET75       0.1702
     70  C         30.5450   23.2730   13.3370 C.2    75  MET75       0.2592
     71  O         31.5990   23.7470   13.7640 O.2    75  MET75      -0.2718
     72  CB        30.3810   20.8000   12.8690 C.3    75  MET75       0.0401
     73  CG        30.3520   19.4220   13.5540 C.3    75  MET75       0.0596
     74  SD        31.4890   18.2390   12.8560 S.3    75  MET75      -0.1393
     75  CE        30.9610   18.2300   11.1620 C.3    75  MET75       0.0692
     76  N         29.7650   23.9110   12.4520 N.am   76  ALA76      -0.1980
     77  CA        30.1140   25.2440   11.9550 C.3    76  ALA76       0.1597
     78  C         30.0400   26.2850   13.1000 C.2    76  ALA76       0.2287
     79  O         30.8900   27.1700   13.1570 O.2    76  ALA76      -0.2864
     80  CB        29.1860   25.6420   10.8170 C.3    76  ALA76       0.0319
     81  N         30.4030   25.6820   16.5570 N.3    78  ALA78      -0.1231
     82  CA        31.5440   25.3770   17.4260 C.3    78  ALA78       0.1694
     83  C         32.8740   25.8520   16.7890 C.2    78  ALA78       0.2591
     84  O         33.7070   26.4500   17.4770 O.2    78  ALA78      -0.2718
     85  CB        31.5920   23.8820   17.7560 C.3    78  ALA78       0.0304
     86  N         33.0340   25.6430   15.4740 N.am   79  LEU79      -0.1980
     87  CA        34.2240   26.0730   14.7370 C.3    79  LEU79       0.1596
     88  C         34.3290   27.5990   14.6500 C.2    79  LEU79       0.2287
     89  O         35.4210   28.1480   14.8140 O.2    79  LEU79      -0.2864
     90  CB        34.2640   25.4330   13.3510 C.3    79  LEU79       0.0297
     91  CG        35.2820   26.0070   12.3510 C.3    79  LEU79       0.0022
     92  CD1       36.6990   25.6010   12.7190 C.3    79  LEU79       0.0001
     93  CD2       34.9380   25.5900   10.9490 C.3    79  LEU79       0.0001
     94  N         35.4170   28.7420   18.0940 N.3    82  ARG82      -0.1245
     95  CA        36.8210   28.4020   18.2710 C.3    82  ARG82       0.1563
     96  C         37.7100   29.2950   17.4450 C.2    82  ARG82       0.2260
     97  O         38.7810   29.6590   17.9020 O.2    82  ARG82      -0.2867
     98  CB        37.0940   26.9240   17.9960 C.3    82  ARG82       0.0307
     99  CG        38.3130   26.4280   18.7680 C.3    82  ARG82       0.0489
    100  CD        38.5740   24.9750   18.5680 C.3    82  ARG82       0.2205
    101  NE        37.6200   24.1350   19.2950 N.pl3  82  ARG82      -0.0865
    102  CZ        37.5940   22.8110   19.1980 C.cat  82  ARG82       0.5346
    103  NH1       38.4720   22.1790   18.4340 N.pl3  82  ARG82       0.1354
    104  NH2       36.6990   22.1100   19.8710 N.pl3  82  ARG82       0.1354
    105  N         40.0530   27.6770   12.6000 N.3    93  CYS93      -0.1221
    106  CA        40.8000   26.8570   13.5230 C.3    93  CYS93       0.1808
    107  C         40.1030   25.5110   13.7520 C.2    93  CYS93       0.2601
    108  O         39.5180   25.2660   14.8110 O.2    93  CYS93      -0.2717
    109  CB        41.0630   27.6170   14.8280 C.3    93  CYS93       0.0970
    110  SG        41.9190   29.2090   14.5910 S.3    93  CYS93      -0.0800
    111  N         40.1560   24.6350   12.7240 N.am   94  PHE94      -0.1976
    112  CA        39.5630   23.2860   12.7730 C.3    94  PHE94       0.1639
    113  C         40.2180   22.4550   13.8700 C.2    94  PHE94       0.2290
    114  O         39.5480   21.7160   14.5840 O.2    94  PHE94      -0.2864
    115  CB        39.7280   22.5780   11.4190 C.3    94  PHE94       0.0560
    116  CG        38.7630   23.0530   10.3600 C.ar   94  PHE94      -0.0200
    117  CD1       37.4760   22.5160   10.2750 C.ar   94  PHE94      -0.0042
    118  CD2       39.1400   24.0230    9.4370 C.ar   94  PHE94      -0.0042
    119  CE1       36.5970   22.9240    9.2700 C.ar   94  PHE94      -0.0003
    120  CE2       38.2520   24.4410    8.4430 C.ar   94  PHE94      -0.0003
    121  CZ        36.9830   23.8980    8.3740 C.ar   94  PHE94      -0.0000
    122  N         39.2330   26.0890   -1.8480 N.3   110  MET110     -0.1245
    123  CA        39.2770   26.2930   -0.3980 C.3   110  MET110      0.1570
    124  C         38.3930   27.4460    0.0790 C.2   110  MET110      0.2261
    125  O         37.4980   27.2060    0.8900 O.2   110  MET110     -0.2867
    126  CB        40.7210   26.4480    0.1060 C.3   110  MET110      0.0387
    127  CG        40.8860   26.1380    1.5930 C.3   110  MET110      0.0595
    128  SD        40.3420   24.4790    2.0780 S.3   110  MET110     -0.1393
    129  CE        41.6060   23.4610    1.3040 C.3   110  MET110      0.0692
    130  N         34.5530   27.0740    0.1560 N.3   113  GLN113     -0.1231
    131  CA        34.1740   26.1270    1.2090 C.3   113  GLN113      0.1698
    132  C         34.2700   26.7980    2.5920 C.2   113  GLN113      0.2592
    133  O         33.4270   26.5640    3.4520 O.2   113  GLN113     -0.2718
    134  CB        35.0830   24.8770    1.1460 C.3   113  GLN113      0.0381
    135  CG        34.8350   23.9820   -0.0800 C.3   113  GLN113      0.0905
    136  CD        35.8490   22.8630   -0.2140 C.2   113  GLN113      0.2608
    137  OE1       35.8760   21.9050    0.5650 O.2   113  GLN113     -0.2717
    138  NE2       36.6770   22.9270   -1.2380 N.am  113  GLN113     -0.0878
    139  N         35.2740   27.6670    2.7790 N.am  114  CYS114     -0.1970
    140  CA        35.5620   28.3610    4.0320 C.3   114  CYS114      0.1712
    141  C         34.7170   29.6030    4.3290 C.2   114  CYS114      0.2296
    142  O         34.5190   29.9040    5.5060 O.2   114  CYS114     -0.2864
    143  CB        37.0400   28.7100    4.0780 C.3   114  CYS114      0.0983
    144  SG        38.1250   27.2850    4.2760 S.3   114  CYS114     -0.0798
    145  N         31.6130   29.7070    6.8380 N.3   117  MET117     -0.1245
    146  CA        32.0340   29.4530    8.2110 C.3   117  MET117      0.1570
    147  C         32.7660   30.6870    8.7170 C.2   117  MET117      0.2261
    148  O         32.5920   31.0650    9.8760 O.2   117  MET117     -0.2867
    149  CB        32.8790   28.1740    8.2980 C.3   117  MET117      0.0387
    150  CG        32.0340   26.9080    8.1560 C.3   117  MET117      0.0595
    151  SD        32.9210   25.3200    8.0360 S.3   117  MET117     -0.1393
    152  CE        34.0530   25.6690    6.7330 C.3   117  MET117      0.0692
    153  N         26.8370   24.7570    3.1770 N.3   203  LEU203     -0.1245
    154  CA        27.8690   23.7770    3.5380 C.3   203  LEU203      0.1561
    155  C         27.4660   22.3740    3.0610 C.2   203  LEU203      0.2260
    156  O         28.2980   21.6500    2.5330 O.2   203  LEU203     -0.2867
    157  CB        28.1900   23.7960    5.0440 C.3   203  LEU203      0.0270
    158  CG        28.7490   25.1120    5.6190 C.3   203  LEU203      0.0019
    159  CD1       28.8090   25.0540    7.1360 C.3   203  LEU203      0.0001
    160  CD2       30.1250   25.4580    5.0360 C.3   203  LEU203      0.0001
    161  N         28.1600   21.3740   -0.8300 N.3   206  TYR206     -0.1227
    162  CA        29.5150   20.8770   -1.1090 C.3   206  TYR206      0.1736
    163  C         29.6900   19.4670   -0.5210 C.2   206  TYR206      0.2595
    164  O         30.1680   18.5590   -1.1960 O.2   206  TYR206     -0.2718
    165  CB        30.5980   21.8380   -0.5510 C.3   206  TYR206      0.0548
    166  CG        30.4910   23.2680   -1.0490 C.ar  206  TYR206     -0.0200
    167  CD1       30.3170   23.5480   -2.4060 C.ar  206  TYR206     -0.0009
    168  CD2       30.5970   24.3440   -0.1700 C.ar  206  TYR206     -0.0009
    169  CE1       30.2200   24.8630   -2.8690 C.ar  206  TYR206      0.0417
    170  CE2       30.4920   25.6620   -0.6220 C.ar  206  TYR206      0.0417
    171  CZ        30.3120   25.9170   -1.9750 C.ar  206  TYR206      0.1957
    172  OH        30.2130   27.2140   -2.4330 O.3   206  TYR206     -0.2866
    173  N         29.2620   19.2910    0.7350 N.am  207  CYS207     -0.1970
    174  CA        29.3280   18.0270    1.4570 C.3   207  CYS207      0.1712
    175  C         28.6090   16.8880    0.6980 C.2   207  CYS207      0.2296
    176  O         29.2080   15.8350    0.4700 O.2   207  CYS207     -0.2864
    177  CB        28.7740   18.2010    2.8670 C.3   207  CYS207      0.0983
    178  SG        28.8000   16.6890    3.8490 S.3   207  CYS207     -0.0798
    179  N         30.4560   15.9740   -2.8300 N.3   210  THR210     -0.1218
    180  CA        31.7000   15.2100   -2.6270 C.3   210  THR210      0.1862
    181  C         31.4360   13.8070   -2.1140 C.2   210  THR210      0.2287
    182  O         32.2250   12.8830   -2.3810 O.2   210  THR210     -0.2866
    183  CB        32.6860   15.9740   -1.7230 C.3   210  THR210      0.1770
    184  OG1       32.1560   16.0530   -0.4040 O.3   210  THR210     -0.2211
    185  CG2       32.9800   17.3720   -2.2310 C.3   210  THR210      0.0375
    186  N         34.6420    9.7060    3.5370 N.3   220  PHE220     -0.1241
    187  CA        33.9080   10.1300    4.7100 C.3   220  PHE220      0.1605
    188  C         33.9510    8.9720    5.6970 C.2   220  PHE220      0.2264
    189  O         33.7900    7.8240    5.2770 O.2   220  PHE220     -0.2867
    190  CB        32.4530   10.5180    4.3800 C.3   220  PHE220      0.0534
    191  CG        32.3140   11.8890    3.7590 C.ar  220  PHE220     -0.0203
    192  CD1       32.5410   12.0820    2.3970 C.ar  220  PHE220     -0.0042
    193  CD2       31.9790   12.9900    4.5380 C.ar  220  PHE220     -0.0042
    194  CE1       32.3970   13.3410    1.8240 C.ar  220  PHE220     -0.0003
    195  CE2       31.8220   14.2520    3.9630 C.ar  220  PHE220     -0.0003
    196  CZ        32.0270   14.4170    2.6070 C.ar  220  PHE220     -0.0000
    197  N         29.9560    9.9880    9.5590 N.3   224  LEU224     -0.1245
    198  CA        29.4470   10.9780    8.6300 C.3   224  LEU224      0.1561
    199  C         28.7250   10.3450    7.4860 C.2   224  LEU224      0.2260
    200  O         27.6720   10.8510    7.1210 O.2   224  LEU224     -0.2867
    201  CB        30.5390   11.9590    8.1660 C.3   224  LEU224      0.0270
    202  CG        31.2190   12.7750    9.2910 C.3   224  LEU224      0.0019
    203  CD1       32.1490   13.7970    8.7210 C.3   224  LEU224      0.0001
    204  CD2       30.1970   13.4150   10.2610 C.3   224  LEU224      0.0001
@<TRIPOS>BOND
     1   169   167   ar
     2   169   171   ar
     3   179   180    1
     4   180   181    1
     5   180   183    1
     6   172   171    1
     7   167   166   ar
     8   182   181    2
     9   185   183    1
    10   171   170   ar
    11   122   123    1
    12   183   184    1
    13   138   136   am
    14   164   163    2
    15   162   161    1
    16   162   165    1
    17   162   163    1
    18   166   165    1
    19   166   168   ar
    20     7     8    1
    21     7     6    1
    22   170   168   ar
    23   163   173   am
    24   123   124    1
    25   123   126    1
    26   136   135    1
    27   136   137    2
    28   135   134    1
    29   124   125    2
    30   126   127    1
    31   130   131    1
    32   176   175    2
    33   175   174    1
    34   173   174    1
    35     6     5    1
    36   134   131    1
    37   131   132    1
    38   129   128    1
    39     5     2    1
    40   174   177    1
    41   127   128    1
    42   194   192   ar
    43   194   196   ar
    44   192   191   ar
    45   156   155    2
    46   132   139   am
    47   132   133    2
    48   196   195   ar
    49     1     2    1
    50     2     3    1
    51   139   140    1
    52   177   178    1
    53   155   154    1
    54   153   154    1
    55    24    22   am
    56     3     4    2
    57   186   187    1
    58   154   157    1
    59   191   190    1
    60   191   193   ar
    61   195   193   ar
    62   140   143    1
    63   140   141    1
    64   143   144    1
    65   141   142    2
    66   190   187    1
    67    22    23    2
    68    22    21    1
    69   187   188    1
    70   160   158    1
    71   157   158    1
    72   189   188    2
    73    21    18    1
    74   158   159    1
    75    15    14    1
    76   152   151    1
    77   145   146    1
    78    17    18    1
    79    17    11   am
    80    18    19    1
    81     9    10    1
    82    13    14    1
    83    13    10    1
    84    67    66    1
    85   200   199    2
    86    14    16    1
    87    57    59   ar
    88    57    55   ar
    89   199   198    1
    90    59    58   ar
    91    10    11    1
    92    11    12    2
    93   151   150    1
    94    19    20    2
    95    65    66    1
    96    65    64    1
    97   150   149    1
    98   201   198    1
    99   201   202    1
   100   146   149    1
   101   146   147    1
   102   121   120   ar
   103   121   119   ar
   104   120   118   ar
   105    55    54   ar
   106    55    53   ar
   107   198   197    1
   108    54    52   ar
   109   147   148    2
   110   203   202    1
   111    58    56   ar
   112    64    61    1
   113   119   117   ar
   114   202   204    1
   115   118   116   ar
   116    53    56   ar
   117    53    51   ar
   118    52    51   ar
   119   117   116   ar
   120   116   115    1
   121    61    62    1
   122    61    60    1
   123    25    26    1
   124    51    50    1
   125    80    77    1
   126    93    91    1
   127    62    63    2
   128    60    48   am
   129    75    74    1
   130    33    34    1
   131    33    27   am
   132    34    35    1
   133   115   112    1
   134    29    26    1
   135    29    30    1
   136    26    27    1
   137    77    76    1
   138    77    78    1
   139    35    36    2
   140    50    47    1
   141    27    28    2
   142    91    92    1
   143    91    90    1
   144    48    47    1
   145    48    49    2
   146    76    70   am
   147   105   106    1
   148    32    30    1
   149   111   112    1
   150   111   107   am
   151   112   113    1
   152    74    73    1
   153    72    73    1
   154    72    69    1
   155    47    46    1
   156    30    31    1
   157    78    79    2
   158    70    71    2
   159    70    69    1
   160    90    87    1
   161   106   107    1
   162   106   109    1
   163   107   108    2
   164    69    68    1
   165   113   114    2
   166   110   109    1
   167    88    87    1
   168    88    89    2
   169    87    86    1
   170    42    41    1
   171    42    43    1
   172    41    38    1
   173    86    83   am
   174    45    43   am
   175    37    38    1
   176    43    44    2
   177    38    39    1
   178    39    40    2
   179    81    82    1
   180    83    82    1
   181    83    84    2
   182    82    85    1
   183    96    97    2
   184    96    95    1
   185    98    95    1
   186    98    99    1
   187    94    95    1
   188   103   102    1
   189   100    99    1
   190   100   101    1
   191   102   101    2
   192   102   104    1
