@<TRIPOS>MOLECULE
tmp/4csmA01.pdb
 134 122 0 0 0
SMALL
GASTEIGER

@<TRIPOS>ATOM
      1  N         41.6630   19.2550   45.0660 N.3    12  LEU12      -0.1245
      2  CA        40.8460   19.5210   43.8810 C.3    12  LEU12       0.1561
      3  C         41.0870   20.8620   43.1710 C.2    12  LEU12       0.2260
      4  O         41.2300   20.9230   41.9350 O.2    12  LEU12      -0.2867
      5  CB        39.3730   19.3670   44.2510 C.3    12  LEU12       0.0270
      6  CG        38.3810   19.3960   43.0930 C.3    12  LEU12       0.0019
      7  CD1       38.7610   18.3570   42.0460 C.3    12  LEU12       0.0001
      8  CD2       36.9820   19.1430   43.6200 C.3    12  LEU12       0.0001
      9  N         42.5860   21.1980   39.4170 N.3    16  ARG16      -0.1245
     10  CA        41.9210   21.9220   38.3480 C.3    16  ARG16       0.1563
     11  C         42.8510   22.9690   37.7710 C.2    16  ARG16       0.2260
     12  O         42.9550   23.1210   36.5480 O.2    16  ARG16      -0.2867
     13  CB        40.6400   22.5750   38.8610 C.3    16  ARG16       0.0307
     14  CG        39.5200   21.5870   39.1540 C.3    16  ARG16       0.0489
     15  CD        38.2270   22.2770   39.6110 C.3    16  ARG16       0.2205
     16  NE        37.0880   21.3570   39.5610 N.pl3  16  ARG16      -0.0865
     17  CZ        36.2890   21.0730   40.5880 C.cat  16  ARG16       0.5346
     18  NH1       36.4770   21.6490   41.7740 N.pl3  16  ARG16       0.1354
     19  NH2       35.2880   20.2130   40.4220 N.pl3  16  ARG16       0.1354
     20  N         45.1580   21.5280   35.4320 N.3    19  LEU19      -0.1245
     21  CA        44.4170   21.2210   34.2080 C.3    19  LEU19       0.1561
     22  C         44.3010   22.4550   33.3300 C.2    19  LEU19       0.2260
     23  O         44.3960   22.3850   32.0880 O.2    19  LEU19      -0.2867
     24  CB        43.0290   20.6870   34.5510 C.3    19  LEU19       0.0270
     25  CG        43.0750   19.2810   35.1420 C.3    19  LEU19       0.0019
     26  CD1       41.7380   18.8570   35.6580 C.3    19  LEU19       0.0001
     27  CD2       43.5730   18.3170   34.0790 C.3    19  LEU19       0.0001
     28  N         46.6810   14.8700   30.8950 N.3   157  ARG157     -0.1245
     29  CA        45.4530   15.5780   31.2610 C.3   157  ARG157      0.1563
     30  C         44.3430   14.5790   31.5830 C.2   157  ARG157      0.2260
     31  O         43.8290   14.5210   32.7010 O.2   157  ARG157     -0.2867
     32  CB        45.0170   16.4370   30.0660 C.3   157  ARG157      0.0307
     33  CG        43.8650   17.4500   30.2770 C.3   157  ARG157      0.0489
     34  CD        42.5520   16.8610   30.8060 C.3   157  ARG157      0.2205
     35  NE        41.3800   17.6320   30.3820 N.pl3 157  ARG157     -0.0865
     36  CZ        40.7100   18.5100   31.1200 C.cat 157  ARG157      0.5346
     37  NH1       41.0730   18.7730   32.3600 N.pl3 157  ARG157      0.1354
     38  NH2       39.6400   19.1030   30.6150 N.pl3 157  ARG157      0.1354
     39  N         41.6730   13.3820   40.6270 N.3   164  VAL164     -0.1245
     40  CA        40.4100   14.0610   40.8750 C.3   164  VAL164      0.1561
     41  C         39.5170   13.0940   41.6080 C.2   164  VAL164      0.2260
     42  O         38.9940   13.3950   42.6950 O.2   164  VAL164     -0.2867
     43  CB        39.7060   14.4000   39.5470 C.3   164  VAL164      0.0252
     44  CG1       38.3860   15.0890   39.8070 C.3   164  VAL164      0.0019
     45  CG2       40.6010   15.2590   38.6870 C.3   164  VAL164      0.0019
     46  N         38.0610   13.4940   45.3230 N.3   168  LYS168     -0.1245
     47  CA        36.6280   13.5570   45.5880 C.3   168  LYS168      0.1561
     48  C         36.2390   12.4590   46.5690 C.2   168  LYS168      0.2260
     49  O         35.5410   12.7050   47.5560 O.2   168  LYS168     -0.2867
     50  CB        35.8310   13.3900   44.2780 C.3   168  LYS168      0.0271
     51  CG        36.0060   14.5240   43.2840 C.3   168  LYS168      0.0035
     52  CD        35.2290   14.3030   41.9960 C.3   168  LYS168      0.0206
     53  CE        35.4720   15.4720   41.0290 C.3   168  LYS168      0.1093
     54  NZ        34.9330   15.2680   39.6500 N.3   168  LYS168     -0.1314
     55  N         29.9620   13.0690   40.4810 N.3   192  ILE192     -0.1231
     56  CA        31.2630   13.6460   40.1310 C.3   192  ILE192      0.1692
     57  C         31.1650   14.7670   39.0850 C.2   192  ILE192      0.2593
     58  O         31.9770   15.6920   39.0920 O.2   192  ILE192     -0.2718
     59  CB        32.3340   12.5600   39.7040 C.3   192  ILE192      0.0266
     60  CG1       31.9310   11.7260   38.4670 C.3   192  ILE192      0.0019
     61  CG2       32.5860   11.6180   40.8570 C.3   192  ILE192      0.0020
     62  CD1       32.0650   12.3930   37.1070 C.3   192  ILE192      0.0001
     63  N         30.1540   14.7120   38.2150 N.am  193  THR193     -0.1939
     64  CA        30.0070   15.7280   37.1710 C.3   193  THR193      0.2028
     65  C         29.6380   17.0830   37.7490 C.2   193  THR193      0.2642
     66  O         28.6940   17.1990   38.5310 O.2   193  THR193     -0.2714
     67  CB        28.9210   15.3470   36.0910 C.3   193  THR193      0.1808
     68  OG1       29.2590   14.0990   35.4470 O.3   193  THR193     -0.2208
     69  CG2       28.7910   16.4670   35.0290 C.3   193  THR193      0.0379
     70  N         30.4230   18.0950   37.3860 N.am  194  ASN194     -0.1971
     71  CA        30.1880   19.4900   37.7800 C.3   194  ASN194      0.1688
     72  C         30.1510   20.3250   36.4820 C.2   194  ASN194      0.2292
     73  O         31.1750   20.8640   36.0130 O.2   194  ASN194     -0.2864
     74  CB        31.2910   19.9880   38.7150 C.3   194  ASN194      0.1181
     75  CG        31.1340   21.4590   39.0710 C.2   194  ASN194      0.2629
     76  OD1       30.8150   22.3050   38.2110 O.2   194  ASN194     -0.2716
     77  ND2       31.3710   21.7790   40.3380 N.am  194  ASN194     -0.0877
     78  N         31.8860   23.9570   36.1680 N.3   197  VAL197     -0.1231
     79  CA        33.3230   24.0260   35.9420 C.3   197  VAL197      0.1692
     80  C         33.5930   23.8080   34.4740 C.2   197  VAL197      0.2591
     81  O         34.2650   24.6180   33.8110 O.2   197  VAL197     -0.2718
     82  CB        34.0830   22.9450   36.7250 C.3   197  VAL197      0.0266
     83  CG1       35.5060   22.8520   36.2190 C.3   197  VAL197      0.0020
     84  CG2       34.1030   23.2850   38.1850 C.3   197  VAL197      0.0020
     85  N         33.0690   22.6940   33.9770 N.am  198  GLU198     -0.1979
     86  CA        33.2750   22.3780   32.5870 C.3   198  GLU198      0.1602
     87  C         32.6420   23.3940   31.6750 C.2   198  GLU198      0.2287
     88  O         33.0590   23.5680   30.5270 O.2   198  GLU198     -0.2864
     89  CB        32.9380   20.9200   32.2540 C.3   198  GLU198      0.0415
     90  CG        31.7210   20.2960   32.8770 C.3   198  GLU198      0.1163
     91  CD        31.6110   18.8110   32.4830 C.2   198  GLU198      0.3649
     92  OE1       31.3640   18.5370   31.2790 O.co2 198  GLU198     -0.2457
     93  OE2       31.7980   17.9210   33.3580 O.co2 198  GLU198     -0.2457
     94  N         35.4300   26.1630   31.3060 N.3   201  ILE201     -0.1245
     95  CA        36.5130   25.5850   30.5100 C.3   201  ILE201      0.1561
     96  C         36.2750   25.8740   29.0330 C.2   201  ILE201      0.2260
     97  O         37.1010   26.5360   28.3830 O.2   201  ILE201     -0.2867
     98  CB        36.5820   24.0680   30.6950 C.3   201  ILE201      0.0252
     99  CG1       36.9330   23.7170   32.1430 C.3   201  ILE201      0.0019
    100  CG2       37.5770   23.4550   29.7100 C.3   201  ILE201      0.0019
    101  CD1       37.0200   22.2230   32.3820 C.3   201  ILE201      0.0001
    102  N         36.8470   16.0300   27.7990 N.3   235  ILE235     -0.1245
    103  CA        36.0620   16.0190   29.0310 C.3   235  ILE235      0.1561
    104  C         35.3370   14.6930   29.2810 C.2   235  ILE235      0.2260
    105  O         35.2550   14.2150   30.4300 O.2   235  ILE235     -0.2867
    106  CB        35.0380   17.1640   29.0580 C.3   235  ILE235      0.0252
    107  CG1       35.7460   18.5030   28.8410 C.3   235  ILE235      0.0019
    108  CG2       34.3440   17.1880   30.4260 C.3   235  ILE235      0.0019
    109  CD1       34.8230   19.6640   28.8280 C.3   235  ILE235      0.0001
    110  N         37.8560   11.8960   30.3740 N.3   238  THR238     -0.1203
    111  CA        38.4260   12.1590   31.6860 C.3   238  THR238      0.1994
    112  C         37.4510   11.5780   32.7210 C.2   238  THR238      0.2617
    113  O         37.8660   10.9200   33.6920 O.2   238  THR238     -0.2717
    114  CB        38.6050   13.6470   31.9300 C.3   238  THR238      0.1784
    115  OG1       39.3840   14.2080   30.8630 O.3   238  THR238     -0.2211
    116  CG2       39.3270   13.8540   33.2480 C.3   238  THR238      0.0376
    117  N         36.1520   11.7760   32.4760 N.am  239  LYS239     -0.1979
    118  CA        35.1420   11.2310   33.3740 C.3   239  LYS239      0.1596
    119  C         35.0960    9.7090   33.3730 C.2   239  LYS239      0.2287
    120  O         34.9400    9.1150   34.4470 O.2   239  LYS239     -0.2864
    121  CB        33.7740   11.8730   33.1660 C.3   239  LYS239      0.0298
    122  CG        33.7130   13.2460   33.8300 C.3   239  LYS239      0.0038
    123  CD        32.3810   13.9750   33.6820 C.3   239  LYS239      0.0206
    124  CE        32.0920   14.3550   32.2500 C.3   239  LYS239      0.1093
    125  NZ        30.9040   15.2420   32.1290 N.3   239  LYS239     -0.1314
    126  N         37.5860    8.6550   35.6740 N.3   242  GLU242     -0.1245
    127  CA        37.0780    8.9370   37.0020 C.3   242  GLU242      0.1567
    128  C         36.2180    7.8200   37.5930 C.2   242  GLU242      0.2260
    129  O         36.4830    7.3560   38.7260 O.2   242  GLU242     -0.2867
    130  CB        36.3360   10.2640   37.0050 C.3   242  GLU242      0.0388
    131  CG        37.2380   11.4380   36.6600 C.3   242  GLU242      0.1160
    132  CD        36.5530   12.7740   36.8850 C.2   242  GLU242      0.3649
    133  OE1       36.3900   13.1840   38.0670 O.co2 242  GLU242     -0.2457
    134  OE2       36.1650   13.4060   35.8770 O.co2 242  GLU242     -0.2457
@<TRIPOS>BOND
     1   102   103    1
     2    97    96    2
     3   109   107    1
     4   107   106    1
     5   103   106    1
     6   103   104    1
     7    96    95    1
     8   106   108    1
     9   104   105    2
    10   100    98    1
    11    32    33    1
    12    32    29    1
    13    33    34    1
    14   110   111    1
    15    35    34    1
    16    35    36    2
    17    95    98    1
    18    95    94    1
    19    88    87    2
    20    38    36    1
    21    98    99    1
    22   115   114    1
    23    28    29    1
    24    36    37    1
    25    29    30    1
    26    92    91   ar
    27    30    31    2
    28    87    86    1
    29   111   114    1
    30   111   112    1
    31   114   116    1
    32    23    22    2
    33   125   124    1
    34    99   101    1
    35   124   123    1
    36    89    86    1
    37    89    90    1
    38   117   112   am
    39   117   118    1
    40    91    90    1
    41    91    93   ar
    42    86    85    1
    43   112   113    2
    44   121   118    1
    45   121   122    1
    46    22    21    1
    47   119   118    1
    48   119   120    2
    49   123   122    1
    50    81    80    2
    51    85    80   am
    52    27    25    1
    53    21    24    1
    54    21    20    1
    55    80    79    1
    56    24    25    1
    57    69    67    1
    58    25    26    1
    59    68    67    1
    60   126   127    1
    61   134   132   ar
    62    79    78    1
    63    79    82    1
    64    73    72    2
    65    67    64    1
    66    83    82    1
    67    72    71    1
    68    12    11    2
    69   131   132    1
    70   131   130    1
    71    82    84    1
    72   132   133   ar
    73   127   130    1
    74   127   128    1
    75    62    60    1
    76    64    65    1
    77    64    63    1
    78    70    65   am
    79    70    71    1
    80   128   129    2
    81    65    66    2
    82    11    10    1
    83    71    74    1
    84    76    75    2
    85    63    57   am
    86    10    13    1
    87    10     9    1
    88    60    59    1
    89    45    43    1
    90    74    75    1
    91    13    14    1
    92    75    77   am
    93    57    58    2
    94    57    56    1
    95    14    15    1
    96    43    44    1
    97    43    40    1
    98    16    15    1
    99    16    17    2
   100    54    53    1
   101    59    56    1
   102    59    61    1
   103    56    55    1
   104    19    17    1
   105    17    18    1
   106    39    40    1
   107    40    41    1
   108    53    52    1
   109    41    42    2
   110     4     3    2
   111    52    51    1
   112     7     6    1
   113     6     8    1
   114     6     5    1
   115     3     2    1
   116    51    50    1
   117     2     5    1
   118     2     1    1
   119    50    47    1
   120    46    47    1
   121    47    48    1
   122    48    49    2
