@<TRIPOS>MOLECULE
tmp/4csmA00.pdb
 94 90 0 0 0
SMALL
GASTEIGER

@<TRIPOS>ATOM
      1  N         54.5960   16.4530   44.0130 N.3     3  PHE3       -0.1241
      2  CA        54.3590   15.0020   44.0930 C.3     3  PHE3        0.1605
      3  C         54.8730   14.1950   45.2880 C.2     3  PHE3        0.2264
      4  O         54.7330   12.9670   45.3290 O.2     3  PHE3       -0.2867
      5  CB        54.7070   14.2750   42.7870 C.3     3  PHE3        0.0534
      6  CG        53.5910   14.2700   41.7630 C.ar    3  PHE3       -0.0203
      7  CD1       52.2980   14.6330   42.1090 C.ar    3  PHE3       -0.0042
      8  CD2       53.8470   13.9200   40.4360 C.ar    3  PHE3       -0.0042
      9  CE1       51.2830   14.6540   41.1480 C.ar    3  PHE3       -0.0003
     10  CE2       52.8380   13.9380   39.4740 C.ar    3  PHE3       -0.0003
     11  CZ        51.5600   14.3040   39.8220 C.ar    3  PHE3       -0.0000
     12  N         61.9980    8.2070   26.6490 N.3    71  HIS71      -0.1241
     13  CA        61.4720    8.8450   27.8540 C.3    71  HIS71       0.1621
     14  C         61.5210    7.9090   29.0400 C.2    71  HIS71       0.2264
     15  O         61.6920    8.3400   30.1980 O.2    71  HIS71      -0.2867
     16  CB        60.0520    9.3450   27.6460 C.3    71  HIS71       0.0745
     17  CG        59.9510   10.4750   26.6740 C.ar   71  HIS71       0.0817
     18  ND1       59.0930   11.5370   26.8490 N.ar   71  HIS71      -0.2268
     19  CD2       60.5890   10.6960   25.5020 C.ar   71  HIS71       0.1154
     20  CE1       59.2020   12.3620   25.8240 C.ar   71  HIS71       0.1986
     21  NE2       60.1040   11.8760   24.9910 N.ar   71  HIS71      -0.2212
     22  N         64.6830    8.2860   30.8470 N.3    74  ILE74      -0.1231
     23  CA        64.8530    9.4190   31.7530 C.3    74  ILE74       0.1692
     24  C         63.8140    9.4180   32.8860 C.2    74  ILE74       0.2592
     25  O         63.5090   10.4680   33.4690 O.2    74  ILE74      -0.2718
     26  CB        64.9270   10.7700   30.9870 C.3    74  ILE74       0.0266
     27  CG1       63.6550   11.0340   30.1890 C.3    74  ILE74       0.0019
     28  CG2       66.1030   10.7460   30.0100 C.3    74  ILE74       0.0020
     29  CD1       63.7160   12.3130   29.3610 C.3    74  ILE74       0.0001
     30  N         63.3260    8.2100   33.1970 N.am   75  ARG75      -0.1966
     31  CA        62.3440    7.9180   34.2460 C.3    75  ARG75       0.1729
     32  C         60.9270    8.5000   34.0830 C.2    75  ARG75       0.2616
     33  O         60.2090    8.6720   35.0860 O.2    75  ARG75      -0.2715
     34  CB        62.8260    8.4010   35.6070 C.3    75  ARG75       0.0348
     35  CG        64.2280    8.1290   36.0470 C.3    75  ARG75       0.0492
     36  CD        64.1480    8.5510   37.4860 C.3    75  ARG75       0.2205
     37  NE        65.3720    8.9940   38.1340 N.pl3  75  ARG75      -0.0865
     38  CZ        65.7330   10.2710   38.2200 C.cat  75  ARG75       0.5346
     39  NH1       65.0490   11.2150   37.5720 N.pl3  75  ARG75       0.1354
     40  NH2       66.8420   10.5870   38.8680 N.pl3  75  ARG75       0.1354
     41  N         60.4780    8.7340   32.8560 N.am   76  ARG76      -0.1977
     42  CA        59.1680    9.3540   32.6730 C.3    76  ARG76       0.1597
     43  C         57.9620    8.6690   33.3330 C.2    76  ARG76       0.2287
     44  O         57.3740    9.1860   34.2920 O.2    76  ARG76      -0.2864
     45  CB        58.8960    9.6490   31.1810 C.3    76  ARG76       0.0334
     46  CG        57.5850   10.3830   30.9900 C.3    76  ARG76       0.0492
     47  CD        57.2910   10.9200   29.5980 C.3    76  ARG76       0.2205
     48  NE        55.9930   11.6150   29.6190 N.pl3  76  ARG76      -0.0865
     49  CZ        55.5620   12.5070   28.7250 C.cat  76  ARG76       0.5346
     50  NH1       56.3200   12.8860   27.7040 N.pl3  76  ARG76       0.1354
     51  NH2       54.3610   13.0370   28.8710 N.pl3  76  ARG76       0.1354
     52  N         56.4520    7.9840   37.0050 N.3    79  SER79      -0.1217
     53  CA        55.6110    8.9960   37.6370 C.3    79  SER79       0.1889
     54  C         54.1020    8.6750   37.5130 C.2    79  SER79       0.2288
     55  O         53.5980    8.3410   36.4310 O.2    79  SER79      -0.2866
     56  CB        55.9240   10.3710   37.0300 C.3    79  SER79       0.2089
     57  OG        55.2550   11.4100   37.7340 O.3    79  SER79      -0.2183
     58  N         51.5000   10.5290   37.2550 N.3    81  ASP81      -0.1225
     59  CA        50.6730   11.3030   36.3550 C.3    81  ASP81       0.1805
     60  C         51.0230   11.0020   34.8980 C.2    81  ASP81       0.2597
     61  O         50.4230   11.5690   33.9700 O.2    81  ASP81      -0.2718
     62  CB        50.7850   12.7930   36.6610 C.3    81  ASP81       0.1424
     63  CG        52.1550   13.3500   36.3720 C.2    81  ASP81       0.3668
     64  OD1       53.1430   12.5770   36.3430 O.co2  81  ASP81      -0.2456
     65  OD2       52.2390   14.5790   36.1760 O.co2  81  ASP81      -0.2456
     66  N         51.9730   10.0900   34.7090 N.am   82  GLU82      -0.1979
     67  CA        52.4140    9.7110   33.3790 C.3    82  GLU82       0.1602
     68  C         52.0690    8.2490   33.1160 C.2    82  GLU82       0.2287
     69  O         52.5410    7.3420   33.8180 O.2    82  GLU82      -0.2864
     70  CB        53.9240    9.9200   33.2550 C.3    82  GLU82       0.0415
     71  CG        54.4010   11.3560   33.5030 C.3    82  GLU82       0.1163
     72  CD        53.9470   12.3510   32.4380 C.2    82  GLU82       0.3649
     73  OE1       53.4740   11.9210   31.3610 O.co2  82  GLU82      -0.2457
     74  OE2       54.0880   13.5770   32.6680 O.co2  82  GLU82      -0.2457
     75  N         63.3410    7.7270   41.9950 N.3    98  ILE98      -0.1245
     76  CA        62.6920    8.6910   42.8670 C.3    98  ILE98       0.1561
     77  C         61.6240    7.8390   43.5170 C.2    98  ILE98       0.2260
     78  O         60.8590    7.1330   42.8400 O.2    98  ILE98      -0.2867
     79  CB        62.0260    9.8070   42.0750 C.3    98  ILE98       0.0252
     80  CG1       63.0230   10.3760   41.0560 C.3    98  ILE98       0.0019
     81  CG2       61.5450   10.8930   43.0450 C.3    98  ILE98       0.0019
     82  CD1       62.4250   11.3610   40.0760 C.3    98  ILE98       0.0001
     83  N         58.5600    8.0460   44.9390 N.3   100  TYR100     -0.1241
     84  CA        57.3070    8.8020   45.0980 C.3   100  TYR100      0.1605
     85  C         56.4090    8.1210   46.1390 C.2   100  TYR100      0.2264
     86  O         56.0250    6.9630   45.9580 O.2   100  TYR100     -0.2867
     87  CB        56.5110    8.8360   43.7790 C.3   100  TYR100      0.0534
     88  CG        57.2090    9.3910   42.5460 C.ar  100  TYR100     -0.0201
     89  CD1       57.3810   10.7660   42.3640 C.ar  100  TYR100     -0.0009
     90  CD2       57.6310    8.5390   41.5230 C.ar  100  TYR100     -0.0009
     91  CE1       57.9560   11.2780   41.1830 C.ar  100  TYR100      0.0417
     92  CE2       58.2040    9.0390   40.3470 C.ar  100  TYR100      0.0417
     93  CZ        58.3650   10.4070   40.1810 C.ar  100  TYR100      0.1957
     94  OH        58.9430   10.8950   39.0260 O.3   100  TYR100     -0.2866
@<TRIPOS>BOND
     1    21    19   ar
     2    21    20   ar
     3    19    17   ar
     4    20    18   ar
     5    12    13    1
     6    17    18   ar
     7    17    16    1
     8    16    13    1
     9    50    49    1
    10    13    14    1
    11    49    51    1
    12    49    48    2
    13    14    15    2
    14    29    27    1
    15    47    48    1
    16    47    46    1
    17    28    26    1
    18    27    26    1
    19    22    23    1
    20    26    23    1
    21    46    45    1
    22    45    42    1
    23    73    72   ar
    24    23    24    1
    25    72    74   ar
    26    72    71    1
    27    42    41    1
    28    42    43    1
    29    41    32   am
    30    24    30   am
    31    24    25    2
    32    68    67    1
    33    68    69    2
    34    30    31    1
    35    70    67    1
    36    70    71    1
    37    43    44    2
    38    67    66    1
    39    61    60    2
    40    32    31    1
    41    32    33    2
    42    31    34    1
    43    66    60   am
    44    60    59    1
    45    34    35    1
    46    35    36    1
    47    65    63   ar
    48    64    63   ar
    49    59    62    1
    50    59    58    1
    51    63    62    1
    52    55    54    2
    53    52    53    1
    54    56    53    1
    55    56    57    1
    56    36    37    1
    57    54    53    1
    58    39    38    1
    59    37    38    2
    60    38    40    1
    61    94    93    1
    62    10    11   ar
    63    10     8   ar
    64    11     9   ar
    65    82    80    1
    66    93    92   ar
    67    93    91   ar
    68    92    90   ar
    69     8     6   ar
    70    80    79    1
    71     9     7   ar
    72    91    89   ar
    73    90    88   ar
    74     6     7   ar
    75     6     5    1
    76    75    76    1
    77    79    76    1
    78    79    81    1
    79    89    88   ar
    80    88    87    1
    81     5     2    1
    82    78    77    2
    83    76    77    1
    84    87    84    1
    85     1     2    1
    86     2     3    1
    87    83    84    1
    88    84    85    1
    89     3     4    2
    90    86    85    2
