@<TRIPOS>MOLECULE
tmp/4cssA00.pdb
 126 120 0 0 0
SMALL
GASTEIGER

@<TRIPOS>ATOM
      1  N         -0.4020   51.2320   -8.7150 N.3     1  PHE1       -0.1241
      2  CA         0.5480   51.9510   -7.8430 C.3     1  PHE1        0.1605
      3  C          1.7650   52.3180   -8.6650 C.2     1  PHE1        0.2264
      4  O          2.3680   51.4640   -9.2960 O.2     1  PHE1       -0.2867
      5  CB         0.9440   51.0800   -6.6550 C.3     1  PHE1        0.0534
      6  CG         1.9150   51.7620   -5.7400 C.ar    1  PHE1       -0.0203
      7  CD1        3.2740   51.6540   -5.9460 C.ar    1  PHE1       -0.0042
      8  CD2        1.4590   52.5080   -4.6670 C.ar    1  PHE1       -0.0042
      9  CE1        4.1800   52.2780   -5.1080 C.ar    1  PHE1       -0.0003
     10  CE2        2.3470   53.1420   -3.8250 C.ar    1  PHE1       -0.0003
     11  CZ         3.7140   53.0370   -4.0290 C.ar    1  PHE1       -0.0000
     12  N          3.8930   51.1770  -12.6860 N.3    13  ILE13      -0.1245
     13  CA         3.3800   49.9160  -12.1830 C.3    13  ILE13       0.1561
     14  C          4.4040   48.8350  -12.3900 C.2    13  ILE13       0.2260
     15  O          4.9830   48.6990  -13.4660 O.2    13  ILE13      -0.2867
     16  CB         2.0820   49.5430  -12.9200 C.3    13  ILE13       0.0252
     17  CG1        0.9650   50.4550  -12.4230 C.3    13  ILE13       0.0019
     18  CG2        1.7640   48.0440  -12.7850 C.3    13  ILE13       0.0019
     19  CD1       -0.3620   50.2300  -13.1100 C.3    13  ILE13       0.0001
     20  N         -2.0160   55.3450   -5.4620 N.3    46  ASN46      -0.1225
     21  CA        -2.7710   54.1250   -5.7150 C.3    46  ASN46       0.1785
     22  C         -3.6170   54.3340   -6.9800 C.2    46  ASN46       0.2597
     23  O         -4.2820   55.3550   -7.1470 O.2    46  ASN46      -0.2718
     24  CB        -3.6490   53.8950   -4.4710 C.3    46  ASN46       0.1169
     25  CG        -4.5480   52.6930   -4.5220 C.2    46  ASN46       0.2627
     26  OD1       -5.0520   52.2720   -5.5650 O.2    46  ASN46      -0.2716
     27  ND2       -4.8140   52.1470   -3.3360 N.am   46  ASN46      -0.0877
     28  N         -3.5510   53.3790   -7.9000 N.am   47  ASP47      -0.1960
     29  CA        -4.2280   53.4880   -9.1970 C.3    47  ASP47       0.1840
     30  C         -5.6740   52.9970   -9.1980 C.2    47  ASP47       0.2622
     31  O         -6.3700   53.1830  -10.2010 O.2    47  ASP47      -0.2715
     32  CB        -3.4090   52.7530  -10.2630 C.3    47  ASP47       0.1450
     33  CG        -2.1950   53.5580  -10.6940 C.2    47  ASP47       0.3671
     34  OD1       -2.3730   54.7440  -11.0730 O.co2  47  ASP47      -0.2456
     35  OD2       -1.0730   53.0180  -10.6380 O.co2  47  ASP47      -0.2456
     36  N         -6.1350   52.3600   -8.1250 N.am   48  TYR48      -0.1974
     37  CA        -7.5230   51.9110   -8.0890 C.3    48  TYR48       0.1639
     38  C         -8.0060   51.8560   -6.6470 C.2    48  TYR48       0.2290
     39  O         -8.3400   50.8070   -6.1180 O.2    48  TYR48      -0.2864
     40  CB        -7.7200   50.5980   -8.8280 C.3    48  TYR48       0.0560
     41  CG        -9.1620   50.4880   -9.2890 C.ar   48  TYR48      -0.0198
     42  CD1       -9.6680   51.2980  -10.3090 C.ar   48  TYR48      -0.0009
     43  CD2      -10.0460   49.6530   -8.6670 C.ar   48  TYR48      -0.0009
     44  CE1      -10.9860   51.2460  -10.6960 C.ar   48  TYR48       0.0417
     45  CE2      -11.3760   49.5810   -9.0500 C.ar   48  TYR48       0.0417
     46  CZ       -11.8300   50.3840  -10.0690 C.ar   48  TYR48       0.1957
     47  OH       -13.1450   50.3430  -10.4700 O.3    48  TYR48      -0.2866
     48  N        -11.2370   50.0120   -4.8000 N.3    51  THR51      -0.1203
     49  CA       -11.2840   48.6410   -4.3190 C.3    51  THR51       0.1994
     50  C         -9.9830   48.0970   -3.7660 C.2    51  THR51       0.2617
     51  O        -10.0140   47.1090   -3.0350 O.2    51  THR51      -0.2717
     52  CB       -11.8060   47.6710   -5.3760 C.3    51  THR51       0.1784
     53  OG1      -10.9200   47.6380   -6.4650 O.3    51  THR51      -0.2211
     54  CG2      -13.1220   48.0950   -5.8960 C.3    51  THR51       0.0376
     55  N         -8.8650   48.7310   -4.0610 N.am   52  ILE52      -0.1979
     56  CA        -7.5720   48.1860   -3.6760 C.3    52  ILE52       0.1595
     57  C         -6.9210   49.0920   -2.6420 C.2    52  ILE52       0.2287
     58  O         -6.9370   50.3170   -2.8000 O.2    52  ILE52      -0.2864
     59  CB        -6.6450   48.0510   -4.8970 C.3    52  ILE52       0.0276
     60  CG1       -7.3160   47.1730   -5.9640 C.3    52  ILE52       0.0022
     61  CG2       -5.3120   47.5030   -4.4720 C.3    52  ILE52       0.0022
     62  CD1       -6.4670   46.9570   -7.2310 C.3    52  ILE52       0.0001
     63  N         -3.1530   49.7520   -1.1310 N.3    54  ASP54      -0.1239
     64  CA        -1.7320   49.5210   -1.3190 C.3    54  ASP54       0.1674
     65  C         -0.9760   49.6820    0.0060 C.2    54  ASP54       0.2266
     66  O         -1.2870   50.5560    0.8040 O.2    54  ASP54      -0.2867
     67  CB        -1.1800   50.5100   -2.3530 C.3    54  ASP54       0.1410
     68  CG        -1.6350   50.2170   -3.7610 C.2    54  ASP54       0.3668
     69  OD1       -1.8110   49.0270   -4.0660 O.co2  54  ASP54      -0.2456
     70  OD2       -1.8110   51.1850   -4.5340 O.co2  54  ASP54      -0.2456
     71  N          6.1520   47.4840   -2.4190 N.3   130  GLN130     -0.1245
     72  CA         4.7290   47.6940   -2.5420 C.3   130  GLN130      0.1566
     73  C          3.9970   46.3730   -2.7510 C.2   130  GLN130      0.2260
     74  O          4.3230   45.5870   -3.6420 O.2   130  GLN130     -0.2867
     75  CB         4.4240   48.6480   -3.7010 C.3   130  GLN130      0.0367
     76  CG         2.9260   48.8470   -3.9410 C.3   130  GLN130      0.0905
     77  CD         2.4360   48.2030   -5.2090 C.2   130  GLN130      0.2608
     78  OE1        3.1220   48.2050   -6.2320 O.2   130  GLN130     -0.2717
     79  NE2        1.2350   47.6340   -5.1540 N.am  130  GLN130     -0.0878
     80  N         -0.3760   44.7890   -1.8060 N.3   132  ASN132     -0.1240
     81  CA        -1.7440   45.2710   -1.7140 C.3   132  ASN132      0.1653
     82  C         -2.6360   44.2100   -1.0470 C.2   132  ASN132      0.2266
     83  O         -2.1470   43.1600   -0.6290 O.2   132  ASN132     -0.2867
     84  CB        -2.2710   45.6600   -3.1000 C.3   132  ASN132      0.1155
     85  CG        -2.2650   44.4850   -4.0550 C.2   132  ASN132      0.2627
     86  OD1       -2.6650   43.3930   -3.6690 O.2   132  ASN132     -0.2716
     87  ND2       -1.8090   44.6850   -5.2760 N.am  132  ASN132     -0.0877
     88  N         -5.2720   42.8850   -2.6680 N.3   134  TYR134     -0.1227
     89  CA        -6.0690   42.5240   -3.8210 C.3   134  TYR134      0.1736
     90  C         -5.5440   41.2860   -4.5450 C.2   134  TYR134      0.2595
     91  O         -6.3160   40.4120   -4.9290 O.2   134  TYR134     -0.2718
     92  CB        -6.1310   43.7140   -4.7690 C.3   134  TYR134      0.0548
     93  CG        -6.9920   43.4900   -5.9610 C.ar  134  TYR134     -0.0200
     94  CD1       -8.3830   43.4490   -5.8300 C.ar  134  TYR134     -0.0009
     95  CD2       -6.4360   43.3290   -7.2130 C.ar  134  TYR134     -0.0009
     96  CE1       -9.1960   43.2500   -6.8950 C.ar  134  TYR134      0.0417
     97  CE2       -7.2610   43.1260   -8.3140 C.ar  134  TYR134      0.0417
     98  CZ        -8.6400   43.0930   -8.1300 C.ar  134  TYR134      0.1957
     99  OH        -9.4820   42.8890   -9.1860 O.3   134  TYR134     -0.2866
    100  N         -4.2330   41.2570   -4.8030 N.am  135  ASN135     -0.1974
    101  CA        -3.5780   40.1940   -5.5430 C.3   135  ASN135      0.1688
    102  C         -2.2370   39.9100   -4.8890 C.2   135  ASN135      0.2292
    103  O         -2.0150   40.3260   -3.7490 O.2   135  ASN135     -0.2864
    104  CB        -3.4690   40.5300   -7.0380 C.3   135  ASN135      0.1181
    105  CG        -2.6310   41.7680   -7.2980 C.2   135  ASN135      0.2629
    106  OD1       -1.7550   42.0860   -6.5150 O.2   135  ASN135     -0.2716
    107  ND2       -2.8800   42.4540   -8.4030 N.am  135  ASN135     -0.0877
    108  N          0.8210   40.8840   -6.0280 N.3   137  ASP137     -0.1239
    109  CA         1.8720   41.7860   -6.4490 C.3   137  ASP137      0.1674
    110  C          2.8110   42.1060   -5.2860 C.2   137  ASP137      0.2266
    111  O          2.3880   42.3960   -4.1640 O.2   137  ASP137     -0.2867
    112  CB         1.2890   43.0860   -6.9790 C.3   137  ASP137      0.1410
    113  CG         0.5340   42.9360   -8.2960 C.2   137  ASP137      0.3668
    114  OD1        0.6090   41.8730   -8.9330 O.co2 137  ASP137     -0.2456
    115  OD2       -0.1150   43.9630   -8.6840 O.co2 137  ASP137     -0.2456
    116  N          6.3010   44.3730   -5.4290 N.3   139  PHE139     -0.1241
    117  CA         7.1660   45.0910   -6.3510 C.3   139  PHE139      0.1605
    118  C          8.1530   45.9700   -5.6010 C.2   139  PHE139      0.2264
    119  O          7.8560   46.5270   -4.5540 O.2   139  PHE139     -0.2867
    120  CB         6.3130   45.9810   -7.2560 C.3   139  PHE139      0.0534
    121  CG         5.3770   45.2380   -8.1530 C.ar  139  PHE139     -0.0203
    122  CD1        5.7930   44.1380   -8.8830 C.ar  139  PHE139     -0.0042
    123  CD2        4.0750   45.6910   -8.3080 C.ar  139  PHE139     -0.0042
    124  CE1        4.9040   43.5020   -9.7520 C.ar  139  PHE139     -0.0003
    125  CE2        3.2040   45.0780   -9.1960 C.ar  139  PHE139     -0.0003
    126  CZ         3.6190   43.9710   -9.9050 C.ar  139  PHE139     -0.0000
@<TRIPOS>BOND
     1    15    14    2
     2    19    17    1
     3    16    18    1
     4    16    17    1
     5    16    13    1
     6    12    13    1
     7    14    13    1
     8    34    33   ar
     9    44    42   ar
    10    44    46   ar
    11    33    35   ar
    12    33    32    1
    13    47    46    1
    14    42    41   ar
    15    32    29    1
    16    31    30    2
    17    46    45   ar
    18   126   124   ar
    19   126   125   ar
    20   124   122   ar
    21     4     3    2
    22    41    40    1
    23    41    43   ar
    24    30    29    1
    25    30    36   am
    26    29    28    1
    27   125   123   ar
    28    99    98    1
    29    45    43   ar
    30   114   113   ar
    31   122   121   ar
    32    40    37    1
    33     1     2    1
    34   115   113   ar
    35     3     2    1
    36   107   105   am
    37    97    98   ar
    38    97    95   ar
    39   123   121   ar
    40   113   112    1
    41   121   120    1
    42    98    96   ar
    43    36    37    1
    44    37    38    1
    45    28    22   am
    46     2     5    1
    47   105   104    1
    48   105   106    2
    49   120   117    1
    50    62    60    1
    51    95    93   ar
    52    23    22    2
    53   104   101    1
    54    22    21    1
    55   112   109    1
    56    96    94   ar
    57     5     6    1
    58    38    39    2
    59    53    52    1
    60   109   108    1
    61   109   110    1
    62   117   118    1
    63   117   116    1
    64    78    77    2
    65    60    59    1
    66    93    94   ar
    67    93    92    1
    68     7     6   ar
    69     7     9   ar
    70    54    52    1
    71     6     8   ar
    72    21    20    1
    73    21    24    1
    74   118   119    2
    75    26    25    2
    76   101   102    1
    77   101   100    1
    78    52    49    1
    79   110   111    2
    80    87    85   am
    81    77    79   am
    82    77    76    1
    83     9    11   ar
    84    91    90    2
    85    59    61    1
    86    59    56    1
    87   102   103    2
    88   100    90   am
    89    48    49    1
    90    92    89    1
    91     8    10   ar
    92    90    89    1
    93    70    68   ar
    94    25    24    1
    95    25    27   am
    96    49    50    1
    97    69    68   ar
    98    55    50   am
    99    55    56    1
   100    85    86    2
   101    85    84    1
   102    11    10   ar
   103    76    75    1
   104    89    88    1
   105    50    51    2
   106    68    67    1
   107    75    72    1
   108    56    57    1
   109    74    73    2
   110    84    81    1
   111    58    57    2
   112    73    72    1
   113    72    71    1
   114    67    64    1
   115    80    81    1
   116    81    82    1
   117    64    63    1
   118    64    65    1
   119    82    83    2
   120    65    66    2
