@<TRIPOS>MOLECULE
tmp/4cstA00.pdb
 119 113 0 0 0
SMALL
GASTEIGER

@<TRIPOS>ATOM
      1  N         -0.5260    4.7650    8.5600 N.3     1  PHE1       -0.1241
      2  CA         0.4320    4.0590    7.6890 C.3     1  PHE1        0.1605
      3  C          1.6610    3.7090    8.5040 C.2     1  PHE1        0.2264
      4  O          2.2410    4.5810    9.1580 O.2     1  PHE1       -0.2867
      5  CB         0.8300    4.9440    6.5060 C.3     1  PHE1        0.0534
      6  CG         1.8260    4.2840    5.5930 C.ar    1  PHE1       -0.0203
      7  CD1        3.1860    4.4110    5.8190 C.ar    1  PHE1       -0.0042
      8  CD2        1.4010    3.5330    4.5100 C.ar    1  PHE1       -0.0042
      9  CE1        4.0950    3.8100    4.9710 C.ar    1  PHE1       -0.0003
     10  CE2        2.3080    2.9320    3.6640 C.ar    1  PHE1       -0.0003
     11  CZ         3.6600    3.0840    3.8850 C.ar    1  PHE1       -0.0000
     12  N          3.7960    4.9040   12.5370 N.3    13  ILE13      -0.1245
     13  CA         3.2370    6.1430   12.0290 C.3    13  ILE13       0.1561
     14  C          4.2500    7.2470   12.2430 C.2    13  ILE13       0.2260
     15  O          4.8140    7.3850   13.3230 O.2    13  ILE13      -0.2867
     16  CB         1.9330    6.4970   12.7650 C.3    13  ILE13       0.0252
     17  CG1        0.8070    5.5940   12.2630 C.3    13  ILE13       0.0019
     18  CG2        1.5710    7.9960   12.6210 C.3    13  ILE13       0.0019
     19  CD1       -0.5530    5.8170   12.9380 C.3    13  ILE13       0.0001
     20  N         -2.0860    0.6360    5.3060 N.3    46  ASN46      -0.1225
     21  CA        -2.8720    1.8480    5.5490 C.3    46  ASN46       0.1785
     22  C         -3.7200    1.6380    6.8010 C.2    46  ASN46       0.2597
     23  O         -4.3830    0.6070    6.9400 O.2    46  ASN46      -0.2718
     24  CB        -3.7150    2.0730    4.2860 C.3    46  ASN46       0.1169
     25  CG        -4.6280    3.2800    4.3290 C.2    46  ASN46       0.2627
     26  OD1       -5.1300    3.6930    5.3630 O.2    46  ASN46      -0.2716
     27  ND2       -4.8900    3.8220    3.1380 N.am   46  ASN46      -0.0877
     28  N         -3.6680    2.6030    7.7150 N.am   47  ASP47      -0.1960
     29  CA        -4.3700    2.4870    8.9980 C.3    47  ASP47       0.1840
     30  C         -5.8060    2.9830    8.9950 C.2    47  ASP47       0.2622
     31  O         -6.4980    2.8140    9.9910 O.2    47  ASP47      -0.2715
     32  CB        -3.5740    3.2180   10.0720 C.3    47  ASP47       0.1450
     33  CG        -2.3680    2.4240   10.5240 C.2    47  ASP47       0.3671
     34  OD1       -2.5490    1.2560   10.9320 O.co2  47  ASP47      -0.2456
     35  OD2       -1.2440    2.9770   10.5030 O.co2  47  ASP47      -0.2456
     36  N         -6.2530    3.6030    7.8980 N.am   48  TYR48      -0.1974
     37  CA        -7.6130    4.1640    7.7980 C.3    48  TYR48       0.1639
     38  C         -8.0550    4.1470    6.3420 C.2    48  TYR48       0.2290
     39  O         -8.3060    5.1910    5.7490 O.2    48  TYR48      -0.2864
     40  CB        -7.6470    5.6060    8.3260 C.3    48  TYR48       0.0560
     41  CG        -9.0300    6.2060    8.6090 C.ar   48  TYR48      -0.0198
     42  CD1      -10.1590    5.4040    8.7380 C.ar   48  TYR48      -0.0009
     43  CD2       -9.1930    7.5770    8.7620 C.ar   48  TYR48      -0.0009
     44  CE1      -11.4020    5.9510    9.0110 C.ar   48  TYR48       0.0417
     45  CE2      -10.4300    8.1290    9.0500 C.ar   48  TYR48       0.0417
     46  CZ       -11.5290    7.3180    9.1670 C.ar   48  TYR48       0.1957
     47  OH       -12.7560    7.8890    9.4360 O.3    48  TYR48      -0.2866
     48  N         -8.9360    7.2900    3.8510 N.3    52  ILE52      -0.1245
     49  CA        -7.6460    7.8190    3.4390 C.3    52  ILE52       0.1561
     50  C         -6.9910    6.8880    2.4240 C.2    52  ILE52       0.2260
     51  O         -6.9860    5.6630    2.6030 O.2    52  ILE52      -0.2867
     52  CB        -6.7110    7.9700    4.6580 C.3    52  ILE52       0.0252
     53  CG1       -7.3850    8.8480    5.7210 C.3    52  ILE52       0.0019
     54  CG2       -5.3640    8.5230    4.2410 C.3    52  ILE52       0.0019
     55  CD1       -6.5350    9.1060    6.9570 C.3    52  ILE52       0.0001
     56  N         -3.2140    6.2220    0.9480 N.3    54  ASP54      -0.1239
     57  CA        -1.7990    6.4770    1.1580 C.3    54  ASP54       0.1674
     58  C         -1.0390    6.3360   -0.1470 C.2    54  ASP54       0.2266
     59  O         -1.3220    5.4640   -0.9570 O.2    54  ASP54      -0.2867
     60  CB        -1.2470    5.4930    2.1880 C.3    54  ASP54       0.1410
     61  CG        -1.7170    5.7940    3.5870 C.2    54  ASP54       0.3668
     62  OD1       -1.8900    6.9830    3.9030 O.co2  54  ASP54      -0.2456
     63  OD2       -1.9170    4.8200    4.3580 O.co2  54  ASP54      -0.2456
     64  N          6.0450    8.5900    2.3450 N.3   133  GLN133     -0.1245
     65  CA         4.6110    8.3740    2.4390 C.3   133  GLN133      0.1566
     66  C          3.8910    9.7000    2.6310 C.2   133  GLN133      0.2260
     67  O          4.2030   10.4800    3.5350 O.2   133  GLN133     -0.2867
     68  CB         4.2860    7.4270    3.5950 C.3   133  GLN133      0.0367
     69  CG         2.8050    7.2170    3.8070 C.3   133  GLN133      0.0905
     70  CD         2.2950    7.8620    5.0750 C.2   133  GLN133      0.2608
     71  OE1        2.9710    7.8480    6.1090 O.2   133  GLN133     -0.2717
     72  NE2        1.0750    8.4090    5.0180 N.am  133  GLN133     -0.0878
     73  N         -0.4880   11.2480    1.6280 N.3   135  ASN135     -0.1240
     74  CA        -1.8400   10.7400    1.5080 C.3   135  ASN135      0.1653
     75  C         -2.7300   11.7830    0.8310 C.2   135  ASN135      0.2266
     76  O         -2.2460   12.8360    0.4170 O.2   135  ASN135     -0.2867
     77  CB        -2.3860   10.3520    2.8850 C.3   135  ASN135      0.1155
     78  CG        -2.4450   11.5240    3.8390 C.2   135  ASN135      0.2627
     79  OD1       -2.8360   12.6110    3.4480 O.2   135  ASN135     -0.2716
     80  ND2       -2.0200   11.3180    5.0850 N.am  135  ASN135     -0.0877
     81  N         -5.3910   13.1550    2.3430 N.3   137  TYR137     -0.1227
     82  CA        -6.2150   13.5320    3.4840 C.3   137  TYR137      0.1736
     83  C         -5.6990   14.7540    4.2420 C.2   137  TYR137      0.2595
     84  O         -6.4760   15.6420    4.5850 O.2   137  TYR137     -0.2718
     85  CB        -6.3170   12.3450    4.4210 C.3   137  TYR137      0.0548
     86  CG        -7.2220   12.5650    5.5920 C.ar  137  TYR137     -0.0200
     87  CD1       -8.5940   12.5830    5.4260 C.ar  137  TYR137     -0.0009
     88  CD2       -6.7110   12.7260    6.8690 C.ar  137  TYR137     -0.0009
     89  CE1       -9.4260   12.7730    6.4830 C.ar  137  TYR137      0.0417
     90  CE2       -7.5440   12.8920    7.9430 C.ar  137  TYR137      0.0417
     91  CZ        -8.9070   12.9240    7.7360 C.ar  137  TYR137      0.1957
     92  OH        -9.7540   13.0970    8.7890 O.3   137  TYR137     -0.2866
     93  N         -4.3980   14.7790    4.5230 N.am  138  ASN138     -0.1974
     94  CA        -3.7790   15.8400    5.2990 C.3   138  ASN138      0.1688
     95  C         -2.4050   16.1230    4.6870 C.2   138  ASN138      0.2292
     96  O         -2.1240   15.7090    3.5620 O.2   138  ASN138     -0.2864
     97  CB        -3.7490   15.4680    6.7910 C.3   138  ASN138      0.1181
     98  CG        -2.8800   14.2580    7.0730 C.2   138  ASN138      0.2629
     99  OD1       -2.0070   13.9420    6.2900 O.2   138  ASN138     -0.2716
    100  ND2       -3.1210   13.5730    8.1830 N.am  138  ASN138     -0.0877
    101  N          0.5970   15.1630    5.8670 N.3   140  ASP140     -0.1239
    102  CA         1.6380   14.2540    6.3140 C.3   140  ASP140      0.1674
    103  C          2.6000   13.9380    5.1710 C.2   140  ASP140      0.2266
    104  O          2.1980   13.6330    4.0490 O.2   140  ASP140     -0.2867
    105  CB         1.0320   12.9520    6.8230 C.3   140  ASP140      0.1410
    106  CG         0.2450   13.0960    8.1150 C.2   140  ASP140      0.3668
    107  OD1        0.3030   14.1630    8.7510 O.co2 140  ASP140     -0.2456
    108  OD2       -0.3920   12.0730    8.5070 O.co2 140  ASP140     -0.2456
    109  N          6.1320   11.7390    5.3160 N.3   142  PHE142     -0.1241
    110  CA         6.9790   11.0280    6.2500 C.3   142  PHE142      0.1605
    111  C          8.0050   10.1560    5.5240 C.2   142  PHE142      0.2264
    112  O          7.7220    9.5700    4.4880 O.2   142  PHE142     -0.2867
    113  CB         6.1360   10.1300    7.1490 C.3   142  PHE142      0.0534
    114  CG         5.1440   10.8540    8.0430 C.ar  142  PHE142     -0.0203
    115  CD1        5.5070   11.9570    8.7860 C.ar  142  PHE142     -0.0042
    116  CD2        3.8510   10.3690    8.1740 C.ar  142  PHE142     -0.0042
    117  CE1        4.5890   12.5740    9.6180 C.ar  142  PHE142     -0.0003
    118  CE2        2.9520   10.9610    9.0340 C.ar  142  PHE142     -0.0003
    119  CZ         3.3230   12.0630    9.7470 C.ar  142  PHE142     -0.0000
@<TRIPOS>BOND
     1    59    58    2
     2    58    57    1
     3    76    75    2
     4    75    74    1
     5    56    57    1
     6    57    60    1
     7    74    73    1
     8    74    77    1
     9    60    61    1
    10    81    82    1
    11    64    65    1
    12    50    51    2
    13    50    49    1
    14    65    66    1
    15    65    68    1
    16    66    67    2
    17    77    78    1
    18    27    25   am
    19    49    48    1
    20    49    52    1
    21    79    78    2
    22    82    83    1
    23    82    85    1
    24    96    95    2
    25    61    62   ar
    26    61    63   ar
    27    68    69    1
    28    10    11   ar
    29    10     8   ar
    30    69    70    1
    31    78    80   am
    32    11     9   ar
    33   104   103    2
    34    54    52    1
    35    83    93   am
    36    83    84    2
    37    24    25    1
    38    24    21    1
    39    25    26    2
    40    85    86    1
    41   112   111    2
    42     8     6   ar
    43    93    94    1
    44    52    53    1
    45    95    94    1
    46     9     7   ar
    47    72    70   am
    48    70    71    2
    49   103   102    1
    50    94    97    1
    51    20    21    1
    52   109   110    1
    53    87    86   ar
    54    87    89   ar
    55   111   110    1
    56    21    22    1
    57    86    88   ar
    58     6     7   ar
    59     6     5    1
    60    53    55    1
    61    39    38    2
    62   101   102    1
    63   110   113    1
    64    99    98    2
    65   102   105    1
    66    38    37    1
    67    89    91   ar
    68     5     2    1
    69    97    98    1
    70    22    23    2
    71    22    28   am
    72   105   106    1
    73    88    90   ar
    74    98   100   am
    75   113   114    1
    76     2     3    1
    77     2     1    1
    78    28    29    1
    79    91    90   ar
    80    91    92    1
    81    37    36    1
    82    37    40    1
    83    36    30   am
    84   114   116   ar
    85   114   115   ar
    86   106   108   ar
    87   106   107   ar
    88   116   118   ar
    89    40    41    1
    90     3     4    2
    91    41    42   ar
    92    41    43   ar
    93    42    44   ar
    94    43    45   ar
    95   115   117   ar
    96    30    29    1
    97    30    31    2
    98    29    32    1
    99    44    46   ar
   100   118   119   ar
   101    45    46   ar
   102    46    47    1
   103   117   119   ar
   104    32    33    1
   105    35    33   ar
   106    33    34   ar
   107    13    14    1
   108    13    12    1
   109    13    16    1
   110    14    15    2
   111    17    16    1
   112    17    19    1
   113    18    16    1
