@<TRIPOS>MOLECULE
tmp/4csvA00.pdb
 225 215 0 0 0
SMALL
GASTEIGER

@<TRIPOS>ATOM
      1  N        -16.7210    6.5470   11.9250 N.3    15  LEU15      -0.1245
      2  CA       -16.9050    5.3670   11.0900 C.3    15  LEU15       0.1561
      3  C        -15.6140    5.0610   10.3380 C.2    15  LEU15       0.2260
      4  O        -15.1810    3.9140   10.2840 O.2    15  LEU15      -0.2867
      5  CB       -18.0990    5.5390   10.1250 C.3    15  LEU15       0.0270
      6  CG       -19.4820    5.5250   10.7880 C.3    15  LEU15       0.0019
      7  CD1      -20.6130    5.7700    9.7910 C.3    15  LEU15       0.0001
      8  CD2      -19.6930    4.2230   11.5420 C.3    15  LEU15       0.0001
      9  N        -15.6890   10.3920    8.3400 N.3    23  VAL23      -0.1245
     10  CA       -17.0910   10.0410    8.3150 C.3    23  VAL23       0.1561
     11  C        -17.4960    9.5040    9.6790 C.2    23  VAL23       0.2260
     12  O        -16.7720    8.7010   10.2650 O.2    23  VAL23      -0.2867
     13  CB       -17.3850    9.0010    7.2140 C.3    23  VAL23       0.0252
     14  CG1      -18.8700    8.7490    7.0940 C.3    23  VAL23       0.0019
     15  CG2      -16.8400    9.5000    5.8810 C.3    23  VAL23       0.0019
     16  N        -25.2060    9.2180    8.2410 N.3    36  ALA36      -0.1231
     17  CA       -23.7480    9.2490    8.0340 C.3    36  ALA36       0.1694
     18  C        -23.3700   10.6460    7.6530 C.2    36  ALA36       0.2592
     19  O        -24.0740   11.2990    6.9050 O.2    36  ALA36      -0.2718
     20  CB       -23.3200    8.3040    6.9290 C.3    36  ALA36       0.0304
     21  N        -22.2220   11.0860    8.1460 N.am   37  VAL37      -0.1966
     22  CA       -21.8210   12.4640    8.0490 C.3    37  VAL37       0.1727
     23  C        -20.3940   12.5080    7.5640 C.2    37  VAL37       0.2616
     24  O        -19.4970   11.9870    8.2230 O.2    37  VAL37      -0.2715
     25  CB       -21.8930   13.1410    9.4160 C.3    37  VAL37       0.0290
     26  CG1      -21.5080   14.6120    9.3060 C.3    37  VAL37       0.0023
     27  CG2      -23.2810   12.9820   10.0230 C.3    37  VAL37       0.0023
     28  N        -20.1970   13.1240    6.4030 N.am   38  LYS38      -0.1977
     29  CA       -18.8770   13.2740    5.8390 C.3    38  LYS38       0.1596
     30  C        -18.4150   14.7090    6.0100 C.2    38  LYS38       0.2287
     31  O        -19.1480   15.6560    5.7290 O.2    38  LYS38      -0.2864
     32  CB       -18.8650   12.8900    4.3660 C.3    38  LYS38       0.0298
     33  CG       -17.4690   12.7510    3.7580 C.3    38  LYS38       0.0038
     34  CD       -17.5010   13.1330    2.2890 C.3    38  LYS38       0.0206
     35  CE       -16.1390   13.0330    1.6380 C.3    38  LYS38       0.1093
     36  NZ       -15.9360   11.6510    1.1570 N.3    38  LYS38      -0.1314
     37  N        -19.3950   17.0880   -4.8940 N.3    53  GLU53      -0.1245
     38  CA       -19.9520   15.7620   -4.5900 C.3    53  GLU53       0.1567
     39  C        -21.4630   15.8180   -4.2680 C.2    53  GLU53       0.2260
     40  O        -22.2490   15.0090   -4.7810 O.2    53  GLU53      -0.2867
     41  CB       -19.2170   15.1200   -3.4210 C.3    53  GLU53       0.0388
     42  CG       -19.8700   13.8130   -3.0100 C.3    53  GLU53       0.1160
     43  CD       -18.9580   12.9000   -2.2280 C.2    53  GLU53       0.3649
     44  OE1      -17.9670   13.3920   -1.6300 O.co2  53  GLU53      -0.2457
     45  OE2      -19.2660   11.6850   -2.2030 O.co2  53  GLU53      -0.2457
     46  N        -23.6160   16.6970   -7.6190 N.3    56  ILE56      -0.1231
     47  CA       -23.9110   15.4580   -8.3680 C.3    56  ILE56       0.1692
     48  C        -25.0710   14.6770   -7.7380 C.2    56  ILE56       0.2591
     49  O        -26.0670   14.3580   -8.4040 O.2    56  ILE56      -0.2718
     50  CB       -22.6550   14.5670   -8.4180 C.3    56  ILE56       0.0266
     51  CG1      -21.6400   15.1800   -9.3820 C.3    56  ILE56       0.0019
     52  CG2      -22.9820   13.1440   -8.8420 C.3    56  ILE56       0.0020
     53  CD1      -20.2010   14.7660   -9.1090 C.3    56  ILE56       0.0001
     54  N        -24.9420   14.4280   -6.4370 N.am   57  MET57      -0.1979
     55  CA       -25.9180   13.6580   -5.6550 C.3    57  MET57       0.1605
     56  C        -27.3490   14.2160   -5.6520 C.2    57  MET57       0.2287
     57  O        -28.3140   13.4570   -5.5160 O.2    57  MET57      -0.2864
     58  CB       -25.4260   13.5240   -4.2080 C.3    57  MET57       0.0413
     59  CG       -24.2070   12.6210   -4.0380 C.3    57  MET57       0.0598
     60  SD       -23.5810   12.4940   -2.3420 S.3    57  MET57      -0.1393
     61  CE       -24.7790   11.3990   -1.5970 C.3    57  MET57       0.0692
     62  N        -29.5350   12.6430   -8.5270 N.3    60  LEU60      -0.1245
     63  CA       -29.6620   11.2000   -8.5790 C.3    60  LEU60       0.1561
     64  C        -30.6540   10.7170   -7.5380 C.2    60  LEU60       0.2260
     65  O        -30.5630   11.0810   -6.3690 O.2    60  LEU60      -0.2867
     66  CB       -28.3100   10.5630   -8.2910 C.3    60  LEU60       0.0270
     67  CG       -27.1640   10.8640   -9.2700 C.3    60  LEU60       0.0019
     68  CD1      -25.8790   10.2200   -8.7670 C.3    60  LEU60       0.0001
     69  CD2      -27.4890   10.3530  -10.6560 C.3    60  LEU60       0.0001
     70  N        -29.1570    3.5540   -4.6990 N.3    65  LEU65      -0.1231
     71  CA       -28.0810    4.5440   -4.5480 C.3    65  LEU65       0.1693
     72  C        -28.2840    5.2170   -3.2090 C.2    65  LEU65       0.2591
     73  O        -29.4270    5.5660   -2.8700 O.2    65  LEU65      -0.2718
     74  CB       -28.1420    5.6630   -5.5920 C.3    65  LEU65       0.0284
     75  CG       -27.8560    5.3620   -7.0530 C.3    65  LEU65       0.0019
     76  CD1      -27.7570    6.6770   -7.8020 C.3    65  LEU65       0.0001
     77  CD2      -26.5830    4.5430   -7.2100 C.3    65  LEU65       0.0001
     78  N        -27.1860    5.4370   -2.4800 N.am   66  VAL66      -0.1980
     79  CA       -27.2290    6.1940   -1.2180 C.3    66  VAL66       0.1595
     80  C        -27.8870    7.5590   -1.4030 C.2    66  VAL66       0.2287
     81  O        -27.4410    8.3580   -2.2270 O.2    66  VAL66      -0.2864
     82  CB       -25.8260    6.4500   -0.5900 C.3    66  VAL66       0.0276
     83  CG1      -25.3280    5.2090    0.1120 C.3    66  VAL66       0.0022
     84  CG2      -24.8280    6.9470   -1.6290 C.3    66  VAL66       0.0022
     85  N        -21.4780   16.8980    4.4930 N.3    80  ILE80      -0.1245
     86  CA       -22.4280   16.2360    3.5940 C.3    80  ILE80       0.1561
     87  C        -23.0440   15.0500    4.3730 C.2    80  ILE80       0.2260
     88  O        -22.3300   14.2000    4.9350 O.2    80  ILE80      -0.2867
     89  CB       -21.7170   15.7080    2.3250 C.3    80  ILE80       0.0252
     90  CG1      -21.0520   16.8570    1.5710 C.3    80  ILE80       0.0019
     91  CG2      -22.6860   14.9400    1.4230 C.3    80  ILE80       0.0019
     92  CD1      -20.1080   16.3950    0.4800 C.3    80  ILE80       0.0001
     93  N        -25.9180   11.8150    4.5880 N.3    82  THR82      -0.1203
     94  CA       -26.7140   10.8510    3.8430 C.3    82  THR82       0.1994
     95  C        -27.3890    9.9160    4.8260 C.2    82  THR82       0.2618
     96  O        -27.1070    9.9600    6.0220 O.2    82  THR82      -0.2717
     97  CB       -25.8320   10.0300    2.8820 C.3    82  THR82       0.1784
     98  OG1      -25.0770    9.0680    3.6210 O.3    82  THR82      -0.2211
     99  CG2      -24.8780   10.9440    2.1010 C.3    82  THR82       0.0376
    100  N        -28.2800    9.0640    4.3360 N.am   83  GLU83      -0.1965
    101  CA       -28.7840    7.9620    5.1530 C.3    83  GLU83       0.1733
    102  C        -27.6510    7.0820    5.6790 C.2    83  GLU83       0.2616
    103  O        -26.5620    7.0250    5.0850 O.2    83  GLU83      -0.2715
    104  CB       -29.7430    7.0770    4.3560 C.3    83  GLU83       0.0429
    105  CG       -29.0880    6.3400    3.1930 C.3    83  GLU83       0.1163
    106  CD       -30.1010    5.5670    2.3480 C.2    83  GLU83       0.3649
    107  OE1      -30.9240    4.8030    2.9110 O.co2  83  GLU83      -0.2457
    108  OE2      -30.0900    5.7330    1.1120 O.co2  83  GLU83      -0.2457
    109  N        -27.9420    6.4110    6.7940 N.am   84  TYR84      -0.1960
    110  CA       -27.0610    5.4560    7.4190 C.3    84  TYR84       0.1771
    111  C        -27.5940    4.0570    7.1370 C.2    84  TYR84       0.2619
    112  O        -28.7960    3.8170    7.1880 O.2    84  TYR84      -0.2715
    113  CB       -26.9970    5.7230    8.9260 C.3    84  TYR84       0.0574
    114  CG       -26.1390    4.7440    9.6970 C.ar   84  TYR84      -0.0198
    115  CD1      -24.7470    4.8950    9.7640 C.ar   84  TYR84      -0.0009
    116  CD2      -26.7220    3.6590   10.3460 C.ar   84  TYR84      -0.0009
    117  CE1      -23.9600    3.9750   10.4630 C.ar   84  TYR84       0.0417
    118  CE2      -25.9530    2.7410   11.0390 C.ar   84  TYR84       0.0417
    119  CZ       -24.5720    2.9000   11.0960 C.ar   84  TYR84       0.1957
    120  OH       -23.8310    1.9670   11.7990 O.3    84  TYR84      -0.2866
    121  N        -26.7020    3.1250    6.8400 N.am   85  MET85      -0.1977
    122  CA       -27.1050    1.7480    6.5030 C.3    85  MET85       0.1605
    123  C        -26.7090    0.8040    7.6340 C.2    85  MET85       0.2287
    124  O        -25.5310    0.5960    7.8980 O.2    85  MET85      -0.2864
    125  CB       -26.4690    1.3420    5.1850 C.3    85  MET85       0.0413
    126  CG       -26.8630    2.2770    4.0420 C.3    85  MET85       0.0598
    127  SD       -28.5950    2.0520    3.5470 S.3    85  MET85      -0.1393
    128  CE       -28.4570    0.6880    2.4050 C.3    85  MET85       0.0692
    129  N        -23.8060   -1.8110    7.4640 N.3    88  GLY88      -0.1210
    130  CA       -22.4780   -1.4140    6.9980 C.3    88  GLY88       0.1956
    131  C        -22.1440   -1.8550    5.5820 C.2    88  GLY88       0.2612
    132  O        -23.0250   -1.9850    4.7550 O.2    88  GLY88      -0.2717
    133  N        -20.8590   -2.0730    5.3060 N.am   89  SER89      -0.1952
    134  CA       -20.4100   -2.3730    3.9470 C.3    89  SER89       0.1924
    135  C        -20.7550   -3.7870    3.5600 C.2    89  SER89       0.2314
    136  O        -20.6980   -4.7230    4.3430 O.2    89  SER89      -0.2863
    137  CB       -18.9120   -2.1620    3.7640 C.3    89  SER89       0.2116
    138  OG       -18.1760   -3.2580    4.2940 O.3    89  SER89      -0.2180
    139  N        -27.2970    4.9860  -12.8750 N.3   117  LEU117     -0.1245
    140  CA       -26.1300    5.8450  -13.1480 C.3   117  LEU117      0.1561
    141  C        -25.7670    5.9310  -14.6150 C.2   117  LEU117      0.2260
    142  O        -25.6330    7.0270  -15.1580 O.2   117  LEU117     -0.2867
    143  CB       -24.9020    5.3430  -12.4170 C.3   117  LEU117      0.0270
    144  CG       -24.8440    5.6290  -10.9220 C.3   117  LEU117      0.0019
    145  CD1      -23.4460    5.3080  -10.4270 C.3   117  LEU117      0.0001
    146  CD2      -25.1910    7.0860  -10.6030 C.3   117  LEU117      0.0001
    147  N        -23.5350    8.9900  -15.9320 N.3   122  PHE122     -0.1227
    148  CA       -22.4290    9.0070  -14.9990 C.3   122  PHE122      0.1736
    149  C        -21.6930    7.6730  -15.0750 C.2   122  PHE122      0.2595
    150  O        -22.2000    6.7090  -15.6370 O.2   122  PHE122     -0.2718
    151  CB       -22.9020    9.2810  -13.5650 C.3   122  PHE122      0.0547
    152  CG       -23.4660   10.6670  -13.3620 C.ar  122  PHE122     -0.0202
    153  CD1      -22.6430   11.7240  -12.9830 C.ar  122  PHE122     -0.0042
    154  CD2      -24.8190   10.9120  -13.5380 C.ar  122  PHE122     -0.0042
    155  CE1      -23.1600   12.9880  -12.7860 C.ar  122  PHE122     -0.0003
    156  CE2      -25.3430   12.1830  -13.3410 C.ar  122  PHE122     -0.0003
    157  CZ       -24.5120   13.2180  -12.9670 C.ar  122  PHE122     -0.0000
    158  N        -20.4720    7.6940  -14.5340 N.am  123  ILE123     -0.1966
    159  CA       -19.5720    6.5510  -14.3470 C.3   123  ILE123      0.1727
    160  C        -19.2530    6.5320  -12.8540 C.2   123  ILE123      0.2616
    161  O        -19.3490    7.5510  -12.1760 O.2   123  ILE123     -0.2715
    162  CB       -18.2720    6.7440  -15.1880 C.3   123  ILE123      0.0290
    163  CG1      -18.4160    6.0600  -16.5360 C.3   123  ILE123      0.0022
    164  CG2      -17.0120    6.2300  -14.4960 C.3   123  ILE123      0.0023
    165  CD1      -19.5030    6.6410  -17.4070 C.3   123  ILE123      0.0001
    166  N        -18.9070    5.3710  -12.3320 N.am  124  HIS124     -0.1959
    167  CA       -18.5490    5.2350  -10.9370 C.3   124  HIS124      0.1787
    168  C        -17.0600    5.4670  -10.7510 C.2   124  HIS124      0.2620
    169  O        -16.6540    6.3800  -10.0030 O.2   124  HIS124     -0.2715
    170  CB       -18.9500    3.8500  -10.4190 C.3   124  HIS124      0.0785
    171  CG       -19.0050    3.7720   -8.9340 C.ar  124  HIS124      0.0821
    172  ND1      -17.8860    3.9070   -8.1330 N.ar  124  HIS124     -0.2267
    173  CD2      -20.0520    3.6050   -8.0940 C.ar  124  HIS124      0.1154
    174  CE1      -18.2420    3.8080   -6.8650 C.ar  124  HIS124      0.1986
    175  NE2      -19.5500    3.6260   -6.8160 N.ar  124  HIS124     -0.2212
    176  N        -16.2740    4.6160  -11.4170 N.am  125  ARG125     -0.1977
    177  CA       -14.8130    4.6790  -11.4940 C.3   125  ARG125      0.1597
    178  C        -14.1130    3.9140  -10.3380 C.2   125  ARG125      0.2287
    179  O        -12.9050    3.6920  -10.3710 O.2   125  ARG125     -0.2864
    180  CB       -14.3190    6.1440  -11.6110 C.3   125  ARG125      0.0334
    181  CG       -13.2550    6.3710  -12.6700 C.3   125  ARG125      0.0492
    182  CD       -12.3300    7.5470  -12.3520 C.3   125  ARG125      0.2205
    183  NE       -10.9040    7.1990  -12.5080 N.pl3 125  ARG125     -0.0865
    184  CZ       -10.1890    6.4410  -11.6610 C.cat 125  ARG125      0.5346
    185  NH1      -10.7420    5.9080  -10.5680 N.pl3 125  ARG125      0.1354
    186  NH2       -8.9050    6.1950  -11.9130 N.pl3 125  ARG125      0.1354
    187  N        -23.3260   -0.6300    0.3900 N.3   133  LEU133     -0.1245
    188  CA       -23.8060   -0.6690    1.7750 C.3   133  LEU133      0.1561
    189  C        -25.0660   -1.5370    1.9550 C.2   133  LEU133      0.2260
    190  O        -25.9360   -1.5960    1.0740 O.2   133  LEU133     -0.2867
    191  CB       -24.0950    0.7540    2.2800 C.3   133  LEU133      0.0270
    192  CG       -22.9160    1.7190    2.3720 C.3   133  LEU133      0.0019
    193  CD1      -23.4400    3.0850    2.7160 C.3   133  LEU133      0.0001
    194  CD2      -21.8850    1.2590    3.3960 C.3   133  LEU133      0.0001
    195  N        -25.4320    1.2520   -3.6880 N.3   142  VAL142     -0.1231
    196  CA       -24.1280    1.6350   -4.1900 C.3   142  VAL142      0.1692
    197  C        -23.7780    3.0090   -3.6400 C.2   142  VAL142      0.2592
    198  O        -24.5860    3.9280   -3.7270 O.2   142  VAL142     -0.2718
    199  CB       -24.1200    1.7750   -5.7220 C.3   142  VAL142      0.0266
    200  CG1      -22.7200    2.1260   -6.2090 C.3   142  VAL142      0.0020
    201  CG2      -24.6480    0.5180   -6.3920 C.3   142  VAL142      0.0020
    202  N        -22.5610    3.1480   -3.1280 N.am  143  ALA143     -0.1966
    203  CA       -22.0430    4.4130   -2.6580 C.3   143  ALA143      0.1728
    204  C        -20.6450    4.5950   -3.2560 C.2   143  ALA143      0.2616
    205  O        -20.1660    3.7290   -4.0020 O.2   143  ALA143     -0.2715
    206  CB       -21.9770    4.4060   -1.1460 C.3   143  ALA143      0.0334
    207  N        -20.0160    5.7200   -2.9380 N.am  144  ASP144     -0.1957
    208  CA       -18.6530    6.0550   -3.3950 C.3   144  ASP144      0.1840
    209  C        -17.8810    6.7580   -2.2770 C.2   144  ASP144      0.2622
    210  O        -18.0890    7.9540   -2.0300 O.2   144  ASP144     -0.2715
    211  CB       -18.7000    6.9640   -4.6200 C.3   144  ASP144      0.1450
    212  CG       -17.3340    7.0840   -5.3280 C.2   144  ASP144      0.3671
    213  OD1      -16.3280    6.4340   -4.9220 O.co2 144  ASP144     -0.2456
    214  OD2      -17.2780    7.8250   -6.3260 O.co2 144  ASP144     -0.2456
    215  N        -17.0040    6.0280   -1.5970 N.am  145  PHE145     -0.1974
    216  CA       -16.2330    6.6190   -0.5070 C.3   145  PHE145      0.1639
    217  C        -14.9000    7.1890   -1.0090 C.2   145  PHE145      0.2290
    218  O        -14.7180    8.4060   -0.9890 O.2   145  PHE145     -0.2864
    219  CB       -16.0130    5.6220    0.6480 C.3   145  PHE145      0.0560
    220  CG       -17.2340    4.8170    1.0190 C.ar  145  PHE145     -0.0200
    221  CD1      -18.5160    5.3410    0.8870 C.ar  145  PHE145     -0.0042
    222  CD2      -17.0920    3.5180    1.5000 C.ar  145  PHE145     -0.0042
    223  CE1      -19.6220    4.5910    1.2220 C.ar  145  PHE145     -0.0003
    224  CE2      -18.2030    2.7640    1.8390 C.ar  145  PHE145     -0.0003
    225  CZ       -19.4670    3.3000    1.6980 C.ar  145  PHE145     -0.0000
@<TRIPOS>BOND
     1   165   163    1
     2   163   162    1
     3   147   148    1
     4   150   149    2
     5   162   164    1
     6   162   159    1
     7   142   141    2
     8   149   148    1
     9   149   158   am
    10   148   151    1
    11   141   140    1
    12   158   159    1
    13   159   160    1
    14   151   152    1
    15   154   152   ar
    16   154   156   ar
    17   152   153   ar
    18   156   157   ar
    19   140   139    1
    20   140   143    1
    21   153   155   ar
    22   157   155   ar
    23   160   166   am
    24   160   161    2
    25   181   182    1
    26   181   180    1
    27   183   182    1
    28   183   184    2
    29   143   144    1
    30   166   167    1
    31   186   184    1
    32   184   185    1
    33   180   177    1
    34   177   176    1
    35   177   178    1
    36   176   168   am
    37   167   168    1
    38   167   170    1
    39   144   146    1
    40   144   145    1
    41   168   169    2
    42    69    67    1
    43   170   171    1
    44   179   178    2
    45    51    53    1
    46    51    50    1
    47    67    68    1
    48    67    66    1
    49   171   172   ar
    50   171   173   ar
    51    52    50    1
    52    63    62    1
    53    63    66    1
    54    63    64    1
    55    50    47    1
    56    49    48    2
    57    47    48    1
    58    47    46    1
    59   172   174   ar
    60   173   175   ar
    61    76    75    1
    62    48    54   am
    63    64    65    2
    64    77    75    1
    65    75    74    1
    66   174   175   ar
    67    54    55    1
    68   201   199    1
    69   214   212   ar
    70   200   199    1
    71   199   196    1
    72    55    56    1
    73    55    58    1
    74    56    57    2
    75    74    71    1
    76   212   213   ar
    77   212   211    1
    78    37    38    1
    79    40    39    2
    80    70    71    1
    81   211   208    1
    82    38    39    1
    83    38    41    1
    84    71    72    1
    85    58    59    1
    86   196   195    1
    87   196   197    1
    88    59    60    1
    89   205   204    2
    90   198   197    2
    91   197   202   am
    92    41    42    1
    93   208   207    1
    94   208   209    1
    95   204   207   am
    96   204   203    1
    97    72    73    2
    98    72    78   am
    99   202   203    1
   100    42    43    1
   101   203   206    1
   102    78    79    1
   103    60    61    1
   104   209   210    2
   105   209   215   am
   106    43    45   ar
   107    43    44   ar
   108    81    80    2
   109    84    82    1
   110   215   216    1
   111    80    79    1
   112    79    82    1
   113   217   218    2
   114   217   216    1
   115    82    83    1
   116   216   219    1
   117   187   188    1
   118    92    90    1
   119   219   220    1
   120   221   220   ar
   121   221   223   ar
   122   220   222   ar
   123   190   189    2
   124   108   106   ar
   125    36    35    1
   126   223   225   ar
   127    91    89    1
   128   222   224   ar
   129    90    89    1
   130    35    34    1
   131   225   224   ar
   132   188   189    1
   133   188   191    1
   134    99    97    1
   135   191   192    1
   136    34    33    1
   137    89    86    1
   138   106   107   ar
   139   106   105    1
   140   192   193    1
   141   192   194    1
   142   128   127    1
   143    97    98    1
   144    97    94    1
   145   105   104    1
   146   127   126    1
   147   135   134    1
   148   135   136    2
   149    86    87    1
   150    86    85    1
   151    33    32    1
   152   137   134    1
   153   137   138    1
   154    94    93    1
   155    94    95    1
   156   134   133    1
   157   126   125    1
   158   100    95   am
   159   100   101    1
   160   104   101    1
   161    32    29    1
   162    87    88    2
   163   132   131    2
   164    95    96    2
   165   103   102    2
   166   101   102    1
   167   125   122    1
   168   133   131   am
   169   131   130    1
   170   102   109   am
   171    31    30    2
   172    29    30    1
   173    29    28    1
   174    15    13    1
   175    28    23   am
   176   122   121    1
   177   122   123    1
   178   109   110    1
   179   121   111   am
   180    19    18    2
   181    20    17    1
   182   130   129    1
   183    14    13    1
   184   111   112    2
   185   111   110    1
   186    13    10    1
   187   110   113    1
   188    23    22    1
   189    23    24    2
   190   123   124    2
   191    18    17    1
   192    18    21   am
   193    17    16    1
   194    22    21    1
   195    22    25    1
   196    10     9    1
   197    10    11    1
   198   113   114    1
   199    26    25    1
   200    25    27    1
   201    11    12    2
   202   114   115   ar
   203   114   116   ar
   204   115   117   ar
   205     7     6    1
   206     5     6    1
   207     5     2    1
   208     4     3    2
   209     3     2    1
   210   116   118   ar
   211   117   119   ar
   212     6     8    1
   213   118   119   ar
   214     2     1    1
   215   119   120    1
