@<TRIPOS>MOLECULE
tmp/4cswA01.pdb
 85 84 0 0 0
SMALL
GASTEIGER

@<TRIPOS>ATOM
      1  N         19.7280   22.1240   38.5030 N.3    36  SER36      -0.1217
      2  CA        18.7330   23.1890   38.5540 C.3    36  SER36       0.1889
      3  C         19.2550   24.4090   39.3130 C.2    36  SER36       0.2288
      4  O         19.8860   24.2620   40.3610 O.2    36  SER36      -0.2866
      5  CB        17.4480   22.6950   39.2120 C.3    36  SER36       0.2089
      6  OG        16.4860   23.7330   39.2410 O.3    36  SER36      -0.2183
      7  N         17.3300   26.6990   40.7060 N.3    38  ILE38      -0.1231
      8  CA        16.4330   26.9600   41.8310 C.3    38  ILE38       0.1692
      9  C         16.0870   25.6660   42.5660 C.2    38  ILE38       0.2593
     10  O         16.2240   24.5740   42.0160 O.2    38  ILE38      -0.2718
     11  CB        15.1290   27.6580   41.3780 C.3    38  ILE38       0.0266
     12  CG1       14.3610   26.7950   40.3730 C.3    38  ILE38       0.0019
     13  CG2       15.4430   29.0210   40.7740 C.3    38  ILE38       0.0020
     14  CD1       12.9330   27.2440   40.1750 C.3    38  ILE38       0.0001
     15  N         15.6520   25.8040   43.8150 N.am   39  THR39      -0.1940
     16  CA        15.2800   24.6630   44.6470 C.3    39  THR39       0.2013
     17  C         13.7570   24.5620   44.7700 C.2    39  THR39       0.2484
     18  O         13.0480   25.5220   44.4680 O.2    39  THR39      -0.2729
     19  CB        15.9050   24.7710   46.0510 C.3    39  THR39       0.1807
     20  OG1       15.2430   25.7960   46.8040 O.3    39  THR39      -0.2208
     21  CG2       17.3890   25.0950   45.9490 C.3    39  THR39       0.0379
     22  N         13.2480   23.3940   45.2040 N.am   40  PRO40      -0.2726
     23  CA        11.8000   23.1960   45.3600 C.3    40  PRO40       0.1402
     24  C         11.1290   24.2410   46.2520 C.2    40  PRO40       0.2269
     25  O          9.9820   24.6100   45.9970 O.2    40  PRO40      -0.2865
     26  CB        11.7080   21.8050   45.9910 C.3    40  PRO40       0.0296
     27  CG        12.9230   21.1020   45.5100 C.3    40  PRO40       0.0237
     28  CD        13.9970   22.1470   45.4490 C.3    40  PRO40       0.0939
     29  N          8.4660   20.1420   40.2970 N.3   122  TYR122     -0.1241
     30  CA         9.1080   19.3340   41.3240 C.3   122  TYR122      0.1605
     31  C          8.2140   18.1680   41.7110 C.2   122  TYR122      0.2264
     32  O          6.9920   18.3010   41.7390 O.2   122  TYR122     -0.2867
     33  CB         9.4380   20.1580   42.5680 C.3   122  TYR122      0.0534
     34  CG         9.7510   19.2770   43.7500 C.ar  122  TYR122     -0.0201
     35  CD1       10.9780   18.6390   43.8570 C.ar  122  TYR122     -0.0009
     36  CD2        8.8080   19.0510   44.7390 C.ar  122  TYR122     -0.0009
     37  CE1       11.2630   17.8150   44.9250 C.ar  122  TYR122      0.0417
     38  CE2        9.0830   18.2310   45.8120 C.ar  122  TYR122      0.0417
     39  CZ        10.3110   17.6140   45.9010 C.ar  122  TYR122      0.1957
     40  OH        10.5910   16.7930   46.9710 O.3   122  TYR122     -0.2866
     41  N         17.2360   17.6130   37.9710 N.3   144  TRP144     -0.1241
     42  CA        17.6490   16.9810   39.2190 C.3   144  TRP144      0.1605
     43  C         17.0100   15.6090   39.3910 C.2   144  TRP144      0.2264
     44  O         15.8490   15.4030   39.0370 O.2   144  TRP144     -0.2867
     45  CB        17.2950   17.8630   40.4200 C.3   144  TRP144      0.0550
     46  CG        17.9920   17.4310   41.6780 C.ar  144  TRP144      0.0003
     47  CD1       17.6200   16.4200   42.5180 C.ar  144  TRP144      0.0946
     48  CD2       19.1900   17.9890   42.2320 C.ar  144  TRP144      0.0152
     49  NE1       18.5100   16.3170   43.5600 N.ar  144  TRP144     -0.2442
     50  CE2       19.4820   17.2700   43.4080 C.ar  144  TRP144      0.0810
     51  CE3       20.0430   19.0290   41.8470 C.ar  144  TRP144      0.0012
     52  CZ2       20.5900   17.5550   44.2010 C.ar  144  TRP144      0.0191
     53  CZ3       21.1420   19.3120   42.6390 C.ar  144  TRP144      0.0001
     54  CH2       21.4040   18.5790   43.8020 C.ar  144  TRP144      0.0015
     55  N         12.7870    9.5640   42.5090 N.3   201  GLU201     -0.1231
     56  CA        13.3550   10.2120   43.6820 C.3   201  GLU201      0.1699
     57  C         12.9730   11.6830   43.6170 C.2   201  GLU201      0.2592
     58  O         12.1870   12.0690   42.7550 O.2   201  GLU201     -0.2718
     59  CB        14.8740   10.0310   43.7300 C.3   201  GLU201      0.0402
     60  CG        15.5990   10.4570   42.4640 C.3   201  GLU201      0.1161
     61  CD        16.9790    9.8350   42.3540 C.2   201  GLU201      0.3649
     62  OE1       17.0790    8.5920   42.4410 O.co2 201  GLU201     -0.2457
     63  OE2       17.9640   10.5850   42.1890 O.co2 201  GLU201     -0.2457
     64  N         13.5100   12.5020   44.5150 N.am  202  ASP202     -0.1960
     65  CA        13.2570   13.9370   44.4490 C.3   202  ASP202      0.1840
     66  C         13.6770   14.4430   43.0760 C.2   202  ASP202      0.2622
     67  O         14.8220   14.2660   42.6590 O.2   202  ASP202     -0.2715
     68  CB        13.9990   14.6870   45.5530 C.3   202  ASP202      0.1450
     69  CG        13.4530   14.3800   46.9360 C.2   202  ASP202      0.3671
     70  OD1       12.3970   13.7190   47.0340 O.co2 202  ASP202     -0.2456
     71  OD2       14.0770   14.8120   47.9280 O.co2 202  ASP202     -0.2456
     72  N         12.7350   15.0640   42.3760 N.am  203  CYS203     -0.1954
     73  CA        12.8860   15.3290   40.9540 C.3   203  CYS203      0.1843
     74  C         12.6100   16.7770   40.5760 C.2   203  CYS203      0.2625
     75  O         11.7070   17.4040   41.1220 O.2   203  CYS203     -0.2714
     76  CB        11.9460   14.4180   40.1720 C.3   203  CYS203      0.0997
     77  SG        12.5010   14.0950   38.5220 S.3   203  CYS203     -0.0797
     78  N         13.4030   17.2970   39.6430 N.am  204  MET204     -0.1977
     79  CA        13.1180   18.5760   39.0020 C.3   204  MET204      0.1605
     80  C         13.2460   18.4170   37.4960 C.2   204  MET204      0.2287
     81  O         14.2820   17.9700   37.0050 O.2   204  MET204     -0.2864
     82  CB        14.0650   19.6730   39.4820 C.3   204  MET204      0.0413
     83  CG        14.0300   19.9220   40.9650 C.3   204  MET204      0.0598
     84  SD        13.2320   21.4570   41.4550 S.3   204  MET204     -0.1393
     85  CE        14.3370   22.6480   40.7330 C.3   204  MET204      0.0692
@<TRIPOS>BOND
     1    81    80    2
     2    80    79    1
     3    41    42    1
     4     1     2    1
     5    77    76    1
     6     2     5    1
     7     2     3    1
     8    79    82    1
     9    79    78    1
    10    44    43    2
    11     5     6    1
    12    42    43    1
    13    42    45    1
    14     3     4    2
    15    82    83    1
    16    78    74   am
    17    76    73    1
    18    14    12    1
    19    29    30    1
    20    12    11    1
    21    45    46    1
    22    74    73    1
    23    74    75    2
    24     7     8    1
    25    85    84    1
    26    13    11    1
    27    73    72    1
    28    83    84    1
    29    30    31    1
    30    30    33    1
    31    11     8    1
    32    46    48   ar
    33    46    47   ar
    34    31    32    2
    35     8     9    1
    36    51    48   ar
    37    51    53   ar
    38    10     9    2
    39    63    61   ar
    40    48    50   ar
    41    61    62   ar
    42    61    60    1
    43    72    66   am
    44    60    59    1
    45    55    56    1
    46    47    49   ar
    47     9    15   am
    48    33    34    1
    49    53    54   ar
    50    67    66    2
    51    58    57    2
    52    66    65    1
    53    50    49   ar
    54    50    52   ar
    55    57    56    1
    56    57    64   am
    57    56    59    1
    58    34    35   ar
    59    34    36   ar
    60    54    52   ar
    61    15    16    1
    62    35    37   ar
    63    65    64    1
    64    65    68    1
    65    18    17    2
    66    16    17    1
    67    16    19    1
    68    36    38   ar
    69    17    22   am
    70    37    39   ar
    71    22    23    1
    72    22    28    1
    73    23    26    1
    74    23    24    1
    75    28    27    1
    76    27    26    1
    77    68    69    1
    78    38    39   ar
    79    39    40    1
    80    21    19    1
    81    25    24    2
    82    19    20    1
    83    69    70   ar
    84    69    71   ar
