@<TRIPOS>MOLECULE
tmp/4cswA00.pdb
 95 94 0 0 0
SMALL
GASTEIGER

@<TRIPOS>ATOM
      1  N         13.2480   23.3940   45.2040 N.3    40  PRO40      -0.2102
      2  CA        11.8000   23.1960   45.3600 C.3    40  PRO40       0.1504
      3  C         11.1290   24.2410   46.2520 C.2    40  PRO40       0.2575
      4  O          9.9820   24.6100   45.9970 O.2    40  PRO40      -0.2718
      5  CB        11.7080   21.8050   45.9910 C.3    40  PRO40       0.0282
      6  CG        12.9230   21.1020   45.5100 C.3    40  PRO40       0.0208
      7  CD        13.9970   22.1470   45.4490 C.3    40  PRO40       0.0893
      8  N         11.8310   24.7080   47.2800 N.am   41  GLU41      -0.1980
      9  CA        11.2890   25.7380   48.1580 C.3    41  GLU41       0.1602
     10  C         11.3260   27.0940   47.4710 C.2    41  GLU41       0.2287
     11  O         10.4500   27.9310   47.6840 O.2    41  GLU41      -0.2864
     12  CB        12.0580   25.7860   49.4770 C.3    41  GLU41       0.0415
     13  CG        11.5070   24.8350   50.5280 C.3    41  GLU41       0.1163
     14  CD        12.3570   24.7870   51.7790 C.2    41  GLU41       0.3649
     15  OE1       13.3680   25.5200   51.8440 O.co2  41  GLU41      -0.2457
     16  OE2       12.0210   24.0060   52.6960 O.co2  41  GLU41      -0.2457
     17  N          8.3920   26.7420   45.2910 N.3    44  ALA44      -0.1245
     18  CA         7.1770   26.9110   46.0830 C.3    44  ALA44       0.1562
     19  C          6.9350   28.3900   46.3520 C.2    44  ALA44       0.2260
     20  O          5.7930   28.8420   46.3960 O.2    44  ALA44      -0.2867
     21  CB         7.2770   26.1430   47.3850 C.3    44  ALA44       0.0290
     22  N          2.3090   29.5290   51.7980 N.3    75  PRO75      -0.2116
     23  CA         3.2890   28.5860   52.3580 C.3    75  PRO75       0.1372
     24  C          2.6840   27.4270   53.1530 C.2    75  PRO75       0.2244
     25  O          3.2600   26.3430   53.1890 O.2    75  PRO75      -0.2868
     26  CB         4.1330   29.4750   53.2710 C.3    75  PRO75       0.0268
     27  CG         4.0720   30.8060   52.6390 C.3    75  PRO75       0.0207
     28  CD         2.6900   30.9280   52.0670 C.3    75  PRO75       0.0892
     29  N          1.9440   23.7150   51.5630 N.3    78  PHE78      -0.1227
     30  CA         2.9940   22.7580   51.2140 C.3    78  PHE78       0.1736
     31  C          3.4810   21.9250   52.3980 C.2    78  PHE78       0.2595
     32  O          4.3070   21.0290   52.2280 O.2    78  PHE78      -0.2718
     33  CB         4.1890   23.4900   50.6000 C.3    78  PHE78       0.0547
     34  CG         3.9010   24.1130   49.2640 C.ar   78  PHE78      -0.0202
     35  CD1        3.8600   23.3400   48.1150 C.ar   78  PHE78      -0.0042
     36  CD2        3.6840   25.4760   49.1570 C.ar   78  PHE78      -0.0042
     37  CE1        3.5990   23.9150   46.8840 C.ar   78  PHE78      -0.0003
     38  CE2        3.4230   26.0560   47.9280 C.ar   78  PHE78      -0.0003
     39  CZ         3.3820   25.2750   46.7910 C.ar   78  PHE78      -0.0000
     40  N          2.9730   22.2110   53.5910 N.am   79  VAL79      -0.1980
     41  CA         3.4830   21.5670   54.7950 C.3    79  VAL79       0.1595
     42  C          2.9030   20.1670   55.0130 C.2    79  VAL79       0.2287
     43  O          3.6270   19.2420   55.3870 O.2    79  VAL79      -0.2864
     44  CB         3.1940   22.4260   56.0390 C.3    79  VAL79       0.0276
     45  CG1        3.6020   21.6890   57.3110 C.3    79  VAL79       0.0022
     46  CG2        3.9230   23.7610   55.9430 C.3    79  VAL79       0.0022
     47  N          1.4520   18.0630   52.8380 N.3    81  LEU81      -0.1231
     48  CA         1.3220   17.2230   51.6530 C.3    81  LEU81       0.1678
     49  C          1.8320   15.8180   51.9590 C.2    81  LEU81       0.2434
     50  O          2.6000   15.6310   52.9010 O.2    81  LEU81      -0.2733
     51  CB         2.0850   17.8270   50.4720 C.3    81  LEU81       0.0284
     52  CG         1.5330   19.1500   49.9390 C.3    81  LEU81       0.0019
     53  CD1        2.5390   19.8180   49.0140 C.3    81  LEU81       0.0001
     54  CD2        0.2090   18.9280   49.2210 C.3    81  LEU81       0.0001
     55  N          1.3990   14.8190   51.1720 N.am   82  PRO82      -0.2729
     56  CA         1.8680   13.4490   51.4090 C.3    82  PRO82       0.1401
     57  C          3.3740   13.3020   51.2410 C.2    82  PRO82       0.2269
     58  O          4.0140   14.1730   50.6510 O.2    82  PRO82      -0.2865
     59  CB         1.1330   12.6310   50.3430 C.3    82  PRO82       0.0296
     60  CG        -0.0430   13.4440   49.9730 C.3    82  PRO82       0.0237
     61  CD         0.3880   14.8720   50.1030 C.3    82  PRO82       0.0939
     62  N          2.9850   13.0780   44.3200 N.3    86  TRP86      -0.1241
     63  CA         2.3810   14.3540   43.9410 C.3    86  TRP86       0.1605
     64  C          3.3960   15.1980   43.1840 C.2    86  TRP86       0.2264
     65  O          4.5610   14.8270   43.0810 O.2    86  TRP86      -0.2867
     66  CB         1.8660   15.1150   45.1650 C.3    86  TRP86       0.0550
     67  CG         2.9320   15.4340   46.1710 C.ar   86  TRP86       0.0003
     68  CD1        3.3680   14.6290   47.1820 C.ar   86  TRP86       0.0946
     69  CD2        3.6990   16.6450   46.2650 C.ar   86  TRP86       0.0152
     70  NE1        4.3570   15.2590   47.8970 N.ar   86  TRP86      -0.2442
     71  CE2        4.5800   16.4980   47.3550 C.ar   86  TRP86       0.0810
     72  CE3        3.7270   17.8380   45.5340 C.ar   86  TRP86       0.0012
     73  CZ2        5.4780   17.4960   47.7330 C.ar   86  TRP86       0.0191
     74  CZ3        4.6210   18.8290   45.9120 C.ar   86  TRP86       0.0001
     75  CH2        5.4830   18.6500   47.0010 C.ar   86  TRP86       0.0015
     76  N          4.3940   19.5100   41.9240 N.3    88  LEU88      -0.1245
     77  CA         4.1740   20.9370   41.7520 C.3    88  LEU88       0.1561
     78  C          4.6260   21.3180   40.3560 C.2    88  LEU88       0.2260
     79  O          5.6860   20.8880   39.9190 O.2    88  LEU88      -0.2867
     80  CB         4.9400   21.7420   42.8030 C.3    88  LEU88       0.0270
     81  CG         4.9540   23.2600   42.6100 C.3    88  LEU88       0.0019
     82  CD1        3.5430   23.8220   42.6470 C.3    88  LEU88       0.0001
     83  CD2        5.8240   23.9260   43.6630 C.3    88  LEU88       0.0001
     84  N          8.4660   20.1420   40.2970 N.3   122  TYR122     -0.1241
     85  CA         9.1080   19.3340   41.3240 C.3   122  TYR122      0.1605
     86  C          8.2140   18.1680   41.7110 C.2   122  TYR122      0.2264
     87  O          6.9920   18.3010   41.7390 O.2   122  TYR122     -0.2867
     88  CB         9.4380   20.1580   42.5680 C.3   122  TYR122      0.0534
     89  CG         9.7510   19.2770   43.7500 C.ar  122  TYR122     -0.0201
     90  CD1       10.9780   18.6390   43.8570 C.ar  122  TYR122     -0.0009
     91  CD2        8.8080   19.0510   44.7390 C.ar  122  TYR122     -0.0009
     92  CE1       11.2630   17.8150   44.9250 C.ar  122  TYR122      0.0417
     93  CE2        9.0830   18.2310   45.8120 C.ar  122  TYR122      0.0417
     94  CZ        10.3110   17.6140   45.9010 C.ar  122  TYR122      0.1957
     95  OH        10.5910   16.7930   46.9710 O.3   122  TYR122     -0.2866
@<TRIPOS>BOND
     1    79    78    2
     2    84    85    1
     3    78    77    1
     4    85    86    1
     5    85    88    1
     6    86    87    2
     7    77    76    1
     8    77    80    1
     9    88    89    1
    10    81    82    1
    11    81    80    1
    12    81    83    1
    13    65    64    2
    14    64    63    1
    15    89    90   ar
    16    89    91   ar
    17    90    92   ar
    18    63    62    1
    19    63    66    1
    20    91    93   ar
    21    92    94   ar
    22    66    67    1
    23     1     2    1
    24     1     7    1
    25    17    18    1
    26     2     5    1
    27     2     3    1
    28     7     6    1
    29     6     5    1
    30    72    74   ar
    31    72    69   ar
    32    93    94   ar
    33    94    95    1
    34    74    75   ar
    35     4     3    2
    36    18    19    1
    37    18    21    1
    38    67    69   ar
    39    67    68   ar
    40     3     8   am
    41    69    71   ar
    42    19    20    2
    43    39    37   ar
    44    39    38   ar
    45    37    35   ar
    46    75    73   ar
    47    68    70   ar
    48     8     9    1
    49    71    73   ar
    50    71    70   ar
    51    10    11    2
    52    10     9    1
    53    38    36   ar
    54    35    34   ar
    55     9    12    1
    56    53    52    1
    57    36    34   ar
    58    54    52    1
    59    34    33    1
    60    12    13    1
    61    52    51    1
    62    60    61    1
    63    60    59    1
    64    61    55    1
    65    59    56    1
    66    51    48    1
    67    13    14    1
    68    33    30    1
    69    58    57    2
    70    55    56    1
    71    55    49   am
    72    30    29    1
    73    30    31    1
    74    57    56    1
    75    48    49    1
    76    48    47    1
    77    14    15   ar
    78    14    16   ar
    79    22    28    1
    80    22    23    1
    81    49    50    2
    82    28    27    1
    83    32    31    2
    84    23    24    1
    85    23    26    1
    86    31    40   am
    87    27    26    1
    88    24    25    2
    89    40    41    1
    90    41    42    1
    91    41    44    1
    92    42    43    2
    93    46    44    1
    94    44    45    1
