@<TRIPOS>MOLECULE
tmp/4ct0A00.pdb
 82 78 0 0 0
SMALL
GASTEIGER

@<TRIPOS>ATOM
      1  N        -10.1760   -8.2680  -27.0380 N.3    36  ASP36      -0.1239
      2  CA       -10.8160   -9.2940  -26.2150 C.3    36  ASP36       0.1674
      3  C        -12.3180   -9.4170  -26.5020 C.2    36  ASP36       0.2266
      4  O        -13.0990   -8.5420  -26.1240 O.2    36  ASP36      -0.2867
      5  CB       -10.6070   -8.9800  -24.7280 C.3    36  ASP36       0.1410
      6  CG       -11.5390   -9.7820  -23.8230 C.2    36  ASP36       0.3668
      7  OD1      -11.6680  -11.0110  -24.0320 O.co2  36  ASP36      -0.2456
      8  OD2      -12.1510   -9.1750  -22.9110 O.co2  36  ASP36      -0.2456
      9  N        -14.6040  -10.9220  -25.0760 N.3    38  TRP38      -0.1241
     10  CA       -15.4570  -11.1040  -23.8870 C.3    38  TRP38       0.1605
     11  C        -15.8430   -9.7860  -23.1640 C.2    38  TRP38       0.2264
     12  O        -16.6700   -9.7990  -22.2350 O.2    38  TRP38      -0.2867
     13  CB       -14.8240  -12.1010  -22.8920 C.3    38  TRP38       0.0550
     14  CG       -14.7440  -13.5500  -23.3840 C.ar   38  TRP38       0.0003
     15  CD1      -13.7320  -14.1180  -24.1140 C.ar   38  TRP38       0.0946
     16  CD2      -15.7130  -14.5890  -23.1760 C.ar   38  TRP38       0.0152
     17  NE1      -14.0200  -15.4350  -24.3840 N.ar   38  TRP38      -0.2442
     18  CE2      -15.2230  -15.7550  -23.8110 C.ar   38  TRP38       0.0810
     19  CE3      -16.9440  -14.6520  -22.5100 C.ar   38  TRP38       0.0012
     20  CZ2      -15.9190  -16.9750  -23.7910 C.ar   38  TRP38       0.0191
     21  CZ3      -17.6400  -15.8630  -22.4970 C.ar   38  TRP38       0.0001
     22  CH2      -17.1230  -17.0070  -23.1360 C.ar   38  TRP38       0.0015
     23  N        -14.4110   -7.8980  -20.9120 N.3    40  ALA40      -0.1231
     24  CA       -14.2020   -7.9090  -19.4690 C.3    40  ALA40       0.1694
     25  C        -15.4460   -8.3740  -18.6910 C.2    40  ALA40       0.2593
     26  O        -15.7360   -7.8600  -17.6110 O.2    40  ALA40      -0.2718
     27  CB       -13.7120   -6.5120  -18.9780 C.3    40  ALA40       0.0304
     28  N        -16.1740   -9.3370  -19.2580 N.am   41  GLY41      -0.1942
     29  CA       -17.4010   -9.8480  -18.6700 C.3    41  GLY41       0.2014
     30  C        -17.5730  -11.3140  -19.0210 C.2    41  GLY41       0.2639
     31  O        -16.7010  -11.9140  -19.6530 O.2    41  GLY41      -0.2714
     32  N        -18.7020  -11.8930  -18.6190 N.am   42  SER42      -0.1949
     33  CA       -18.9730  -13.3140  -18.8410 C.3    42  SER42       0.1924
     34  C        -19.7070  -13.6380  -20.1640 C.2    42  SER42       0.2314
     35  O        -20.3510  -14.6780  -20.2830 O.2    42  SER42      -0.2863
     36  CB       -19.7650  -13.8710  -17.6560 C.3    42  SER42       0.2116
     37  OG       -20.7690  -12.9640  -17.2230 O.3    42  SER42      -0.2180
     38  N         -4.3500  -13.5530  -27.0240 N.3    77  GLN77      -0.1245
     39  CA        -4.3840  -13.5570  -25.5690 C.3    77  GLN77       0.1566
     40  C         -3.1640  -12.7850  -25.0660 C.2    77  GLN77       0.2260
     41  O         -2.0500  -12.9680  -25.5690 O.2    77  GLN77      -0.2867
     42  CB        -4.3890  -14.9860  -25.0410 C.3    77  GLN77       0.0367
     43  CG        -5.6180  -15.8240  -25.3860 C.3    77  GLN77       0.0905
     44  CD        -6.8980  -15.1970  -24.8980 C.2    77  GLN77       0.2608
     45  OE1       -6.9880  -14.8560  -23.7030 O.2    77  GLN77      -0.2717
     46  NE2       -7.8150  -14.9230  -25.7710 N.am   77  GLN77      -0.0878
     47  N         -1.3100  -13.1170  -22.5600 N.3    79  ALA79      -0.1245
     48  CA        -0.2070  -13.9960  -22.1730 C.3    79  ALA79       0.1562
     49  C          0.6540  -14.3870  -23.3700 C.2    79  ALA79       0.2260
     50  O          1.8450  -14.6540  -23.2250 O.2    79  ALA79      -0.2867
     51  CB        -0.7230  -15.2340  -21.4630 C.3    79  ALA79       0.0290
     52  N        -11.4300  -11.4620  -12.4960 N.3   103  PHE103     -0.1241
     53  CA       -10.7810  -11.9650  -13.6980 C.3   103  PHE103      0.1605
     54  C         -9.6070  -11.0840  -14.1370 C.2   103  PHE103      0.2264
     55  O         -8.5600  -11.5910  -14.5320 O.2   103  PHE103     -0.2867
     56  CB       -11.7700  -12.1660  -14.8380 C.3   103  PHE103      0.0534
     57  CG       -11.1290  -12.7240  -16.0970 C.ar  103  PHE103     -0.0203
     58  CD1      -10.5710  -11.8720  -17.0560 C.ar  103  PHE103     -0.0042
     59  CD2      -11.0750  -14.1020  -16.3130 C.ar  103  PHE103     -0.0042
     60  CE1       -9.9640  -12.3880  -18.2110 C.ar  103  PHE103     -0.0003
     61  CE2      -10.4890  -14.6340  -17.4600 C.ar  103  PHE103     -0.0003
     62  CZ        -9.9190  -13.7730  -18.4080 C.ar  103  PHE103     -0.0000
     63  N         -6.5110  -11.7040  -11.9530 N.3   106  GLU106     -0.1231
     64  CA        -5.8320  -12.9520  -12.3020 C.3   106  GLU106      0.1699
     65  C         -4.9540  -12.7090  -13.5260 C.2   106  GLU106      0.2592
     66  O         -3.7730  -13.0500  -13.5330 O.2   106  GLU106     -0.2718
     67  CB        -6.8410  -14.0630  -12.6320 C.3   106  GLU106      0.0402
     68  CG        -7.7010  -14.4980  -11.4900 C.3   106  GLU106      0.1161
     69  CD        -6.9900  -15.4990  -10.5930 C.2   106  GLU106      0.3649
     70  OE1       -5.9370  -16.0260  -11.0270 O.co2 106  GLU106     -0.2457
     71  OE2       -7.4770  -15.7540   -9.4580 O.co2 106  GLU106     -0.2457
     72  N         -5.5550  -12.1190  -14.5580 N.am  107  ARG107     -0.1980
     73  CA        -4.8580  -11.8210  -15.7980 C.3   107  ARG107      0.1597
     74  C         -3.6360  -10.9570  -15.5330 C.2   107  ARG107      0.2287
     75  O         -2.5480  -11.2220  -16.0540 O.2   107  ARG107     -0.2864
     76  CB        -5.7860  -11.0720  -16.7500 C.3   107  ARG107      0.0334
     77  CG        -5.1350  -10.6450  -18.0790 C.3   107  ARG107      0.0492
     78  CD        -5.9430   -9.5280  -18.7240 C.3   107  ARG107      0.2205
     79  NE        -6.1170   -8.4290  -17.7830 N.pl3 107  ARG107     -0.0865
     80  CZ        -7.1470   -7.5890  -17.7950 C.cat 107  ARG107      0.5346
     81  NH1       -8.0850   -7.7310  -18.7160 N.pl3 107  ARG107      0.1354
     82  NH2       -7.2340   -6.6090  -16.8890 N.pl3 107  ARG107      0.1354
@<TRIPOS>BOND
     1     1     2    1
     2    38    39    1
     3     3     2    1
     4     3     4    2
     5     2     5    1
     6    46    44   am
     7    41    40    2
     8    39    40    1
     9    39    42    1
    10    43    42    1
    11    43    44    1
    12     9    10    1
    13    44    45    2
    14     5     6    1
    15    17    15   ar
    16    17    18   ar
    17    15    14   ar
    18     7     6   ar
    19    10    11    1
    20    10    13    1
    21     6     8   ar
    22    18    20   ar
    23    18    16   ar
    24    20    22   ar
    25    14    16   ar
    26    14    13    1
    27    49    50    2
    28    49    48    1
    29    16    19   ar
    30    11    12    2
    31    22    21   ar
    32    47    48    1
    33    19    21   ar
    34    48    51    1
    35    23    24    1
    36    35    34    2
    37    34    33    1
    38    31    30    2
    39    24    27    1
    40    24    25    1
    41    28    25   am
    42    28    29    1
    43    30    29    1
    44    30    32   am
    45    33    32    1
    46    33    36    1
    47    78    77    1
    48    78    79    1
    49    81    80    1
    50    25    26    2
    51    62    60   ar
    52    62    61   ar
    53    60    58   ar
    54    77    76    1
    55    80    79    2
    56    80    82    1
    57    36    37    1
    58    61    59   ar
    59    58    57   ar
    60    76    73    1
    61    59    57   ar
    62    57    56    1
    63    75    74    2
    64    73    74    1
    65    73    72    1
    66    56    53    1
    67    72    65   am
    68    55    54    2
    69    54    53    1
    70    53    52    1
    71    66    65    2
    72    65    64    1
    73    67    64    1
    74    67    68    1
    75    64    63    1
    76    68    69    1
    77    70    69   ar
    78    69    71   ar
