@<TRIPOS>MOLECULE
tmp/4ct1A01.pdb
 147 140 0 0 0
SMALL
GASTEIGER

@<TRIPOS>ATOM
      1  N          7.1620   35.0370  -34.1950 N.3     1  LYS1       -0.1245
      2  CA         5.8500   34.6250  -34.6760 C.3     1  LYS1        0.1561
      3  C          6.0090   33.6260  -35.8150 C.2     1  LYS1        0.2260
      4  O          6.7930   33.8480  -36.7400 O.2     1  LYS1       -0.2867
      5  CB         5.0330   35.8330  -35.1520 C.3     1  LYS1        0.0271
      6  CG         4.3660   36.6420  -34.0910 C.3     1  LYS1        0.0035
      7  CD         3.0660   35.9760  -33.6640 C.3     1  LYS1        0.0206
      8  CE         2.0680   36.9840  -33.0860 C.3     1  LYS1        0.1093
      9  NZ         0.7450   36.3330  -32.7550 N.3     1  LYS1       -0.1314
     10  N         -6.2890   25.6450  -35.2830 N.3    36  LYS36      -0.1245
     11  CA        -7.6350   26.1890  -35.4850 C.3    36  LYS36       0.1561
     12  C         -7.5350   27.4460  -36.2970 C.2    36  LYS36       0.2260
     13  O         -6.7860   28.3410  -35.9220 O.2    36  LYS36      -0.2867
     14  CB        -8.3020   26.5120  -34.1550 C.3    36  LYS36       0.0271
     15  CG        -9.7010   27.1070  -34.2910 C.3    36  LYS36       0.0035
     16  CD       -10.3690   27.2060  -32.9180 C.3    36  LYS36       0.0206
     17  CE       -11.7860   27.7450  -33.0420 C.3    36  LYS36       0.1093
     18  NZ       -11.7880   29.2310  -33.1340 N.3    36  LYS36      -0.1314
     19  N         -9.5650   30.5750  -38.4710 N.3    38  VAL38      -0.1245
     20  CA       -10.7930   31.3030  -38.8110 C.3    38  VAL38       0.1561
     21  C        -10.5230   32.3590  -39.8560 C.2    38  VAL38       0.2260
     22  O         -9.4460   32.9650  -39.8900 O.2    38  VAL38      -0.2867
     23  CB       -11.4570   31.9720  -37.5910 C.3    38  VAL38       0.0252
     24  CG1      -11.7080   30.9470  -36.4960 C.3    38  VAL38       0.0019
     25  CG2      -10.6100   33.0820  -37.0550 C.3    38  VAL38       0.0019
     26  N        -10.9610   35.8880  -41.3960 N.3    40  LYS40      -0.1245
     27  CA       -11.1970   37.2250  -40.8650 C.3    40  LYS40       0.1561
     28  C        -12.4790   37.8440  -41.4310 C.2    40  LYS40       0.2260
     29  O        -13.2010   38.5580  -40.7310 O.2    40  LYS40      -0.2867
     30  CB       -10.0080   38.1330  -41.1760 C.3    40  LYS40       0.0271
     31  CG        -8.8300   38.0080  -40.2080 C.3    40  LYS40       0.0035
     32  CD        -7.6120   38.7590  -40.7450 C.3    40  LYS40       0.0206
     33  CE        -6.5340   38.9600  -39.6960 C.3    40  LYS40       0.1093
     34  NZ        -5.3540   39.6580  -40.2560 N.3    40  LYS40      -0.1314
     35  N        -15.5720   36.1560  -39.4980 N.3    43  VAL43      -0.1231
     36  CA       -15.7120   36.6460  -38.1280 C.3    43  VAL43       0.1692
     37  C        -16.0050   38.1470  -38.0990 C.2    43  VAL43       0.2592
     38  O        -16.7110   38.6230  -37.2000 O.2    43  VAL43      -0.2718
     39  CB       -14.4490   36.3600  -37.2690 C.3    43  VAL43       0.0266
     40  CG1      -14.2310   34.8760  -37.1490 C.3    43  VAL43       0.0020
     41  CG2      -13.2240   37.0350  -37.8510 C.3    43  VAL43       0.0020
     42  N        -15.4530   38.8840  -39.0640 N.am   44  HIS44      -0.1976
     43  CA       -15.7400   40.3160  -39.1970 C.3    44  HIS44       0.1656
     44  C        -17.1880   40.5360  -39.6060 C.2    44  HIS44       0.2291
     45  O        -17.8480   41.4280  -39.0950 O.2    44  HIS44      -0.2864
     46  CB       -14.8120   40.9750  -40.2200 C.3    44  HIS44       0.0771
     47  CG       -14.9190   42.4880  -40.2800 C.ar   44  HIS44       0.0820
     48  ND1      -14.0920   43.3640  -39.7250 N.ar   44  HIS44      -0.2267
     49  CD2      -15.8220   43.1950  -41.0290 C.ar   44  HIS44       0.1154
     50  CE1      -14.4320   44.5690  -40.1120 C.ar   44  HIS44       0.1986
     51  NE2      -15.4670   44.4470  -40.8920 N.ar   44  HIS44      -0.2212
     52  N        -15.7320   38.2690  -33.4440 N.3    49  ILE49      -0.1245
     53  CA       -14.4160   38.6840  -32.9530 C.3    49  ILE49       0.1561
     54  C        -14.2560   38.5610  -31.4280 C.2    49  ILE49       0.2260
     55  O        -13.1870   38.1630  -30.9390 O.2    49  ILE49      -0.2867
     56  CB       -14.1230   40.1370  -33.3630 C.3    49  ILE49       0.0252
     57  CG1      -13.9550   40.2130  -34.8790 C.3    49  ILE49       0.0019
     58  CG2      -12.8460   40.6530  -32.6900 C.3    49  ILE49       0.0019
     59  CD1      -13.9790   41.6170  -35.4400 C.3    49  ILE49       0.0001
     60  N        -13.4010   34.9660  -30.6710 N.3    52  VAL52      -0.1231
     61  CA       -12.0320   34.6660  -31.0820 C.3    52  VAL52       0.1692
     62  C        -11.0350   35.1830  -30.0290 C.2    52  VAL52       0.2591
     63  O        -10.1510   34.4670  -29.5260 O.2    52  VAL52      -0.2718
     64  CB       -11.7680   35.2980  -32.4920 C.3    52  VAL52       0.0266
     65  CG1      -10.3000   35.2550  -32.8850 C.3    52  VAL52       0.0020
     66  CG2      -12.6110   34.5940  -33.5430 C.3    52  VAL52       0.0020
     67  N        -11.2130   36.4570  -29.6950 N.am   53  GLN53      -0.1979
     68  CA       -10.3690   37.0980  -28.7030 C.3    53  GLN53       0.1601
     69  C        -10.5030   36.4030  -27.3530 C.2    53  GLN53       0.2287
     70  O         -9.5030   36.1650  -26.6780 O.2    53  GLN53      -0.2864
     71  CB       -10.7210   38.5850  -28.5790 C.3    53  GLN53       0.0394
     72  CG       -10.2630   39.4170  -29.7570 C.3    53  GLN53       0.0908
     73  CD        -8.7660   39.2900  -29.9900 C.2    53  GLN53       0.2608
     74  OE1       -7.9730   39.2770  -29.0510 O.2    53  GLN53      -0.2717
     75  NE2       -8.3760   39.1810  -31.2410 N.am   53  GLN53      -0.0878
     76  N        -11.4020   33.2420  -26.7230 N.3    55  GLU55      -0.1231
     77  CA       -10.7500   31.9540  -26.7690 C.3    55  GLU55       0.1699
     78  C         -9.2410   32.1190  -26.5680 C.2    55  GLU55       0.2592
     79  O         -8.6000   31.3650  -25.7940 O.2    55  GLU55      -0.2718
     80  CB       -11.0200   31.2420  -28.1050 C.3    55  GLU55       0.0402
     81  CG       -10.5490   29.7930  -28.1090 C.3    55  GLU55       0.1161
     82  CD       -11.0470   29.0370  -29.2980 C.2    55  GLU55       0.3649
     83  OE1      -11.3440   29.6710  -30.3150 O.co2  55  GLU55      -0.2457
     84  OE2      -11.1590   27.8120  -29.2070 O.co2  55  GLU55      -0.2457
     85  N         -8.6740   33.0880  -27.2890 N.am   56  LYS56      -0.1980
     86  CA        -7.2270   33.3010  -27.1640 C.3    56  LYS56       0.1596
     87  C         -6.8450   33.6840  -25.7430 C.2    56  LYS56       0.2287
     88  O         -5.9080   33.1120  -25.1520 O.2    56  LYS56      -0.2864
     89  CB        -6.7420   34.3730  -28.1470 C.3    56  LYS56       0.0298
     90  CG        -5.2940   34.7940  -27.8990 C.3    56  LYS56       0.0038
     91  CD        -4.8490   35.8370  -28.8930 C.3    56  LYS56       0.0206
     92  CE        -3.5810   36.5420  -28.4220 C.3    56  LYS56       0.1093
     93  NZ        -3.1850   37.6340  -29.3950 N.3    56  LYS56      -0.1314
     94  N          0.0330   31.6690  -31.6750 N.3    73  CYS73      -0.1221
     95  CA        -1.0220   32.2790  -32.4820 C.3    73  CYS73       0.1808
     96  C         -0.3840   33.0760  -33.6040 C.2    73  CYS73       0.2601
     97  O          0.7150   33.6180  -33.4270 O.2    73  CYS73      -0.2717
     98  CB        -1.9110   33.2430  -31.6770 C.3    73  CYS73       0.0970
     99  SG        -2.6110   32.6870  -30.1190 S.3    73  CYS73      -0.0800
    100  N         -1.0820   33.2030  -34.7180 N.am   74  PHE74      -0.1962
    101  CA        -0.6100   34.1560  -35.7360 C.3    74  PHE74       0.1771
    102  C         -1.7120   34.5070  -36.7000 C.2    74  PHE74       0.2619
    103  O         -2.8530   34.0700  -36.5570 O.2    74  PHE74      -0.2715
    104  CB         0.6400   33.6310  -36.4830 C.3    74  PHE74       0.0574
    105  CG         0.5120   32.2250  -37.0480 C.ar   74  PHE74      -0.0200
    106  CD1        0.8280   31.1110  -36.2720 C.ar   74  PHE74      -0.0042
    107  CD2        0.1340   32.0260  -38.3710 C.ar   74  PHE74      -0.0042
    108  CE1        0.7290   29.8010  -36.8040 C.ar   74  PHE74      -0.0003
    109  CE2        0.0380   30.7430  -38.9040 C.ar   74  PHE74      -0.0003
    110  CZ         0.3350   29.6210  -38.1100 C.ar   74  PHE74      -0.0000
    111  N         -1.3840   35.3510  -37.6730 N.am   75  GLN75      -0.1977
    112  CA        -2.3760   35.7930  -38.6150 C.3    75  GLN75       0.1601
    113  C         -1.7160   36.1030  -39.9460 C.2    75  GLN75       0.2287
    114  O         -0.5040   36.3500  -40.0210 O.2    75  GLN75      -0.2864
    115  CB        -3.0970   37.0320  -38.0870 C.3    75  GLN75       0.0394
    116  CG        -2.1770   38.2330  -37.9530 C.3    75  GLN75       0.0908
    117  CD        -2.9020   39.4710  -37.4930 C.2    75  GLN75       0.2608
    118  OE1       -3.8080   39.9680  -38.1700 O.2    75  GLN75      -0.2717
    119  NE2       -2.5090   39.9810  -36.3310 N.am   75  GLN75      -0.0878
    120  N         -6.9120   33.8910  -39.0960 N.3    80  LEU80      -0.1231
    121  CA        -6.3410   33.8330  -37.7560 C.3    80  LEU80       0.1693
    122  C         -6.0980   32.3740  -37.4020 C.2    80  LEU80       0.2592
    123  O         -6.9970   31.5460  -37.5950 O.2    80  LEU80      -0.2718
    124  CB        -7.2830   34.4590  -36.7400 C.3    80  LEU80       0.0284
    125  CG        -7.8400   35.8390  -37.0650 C.3    80  LEU80       0.0019
    126  CD1       -8.9470   36.1960  -36.0970 C.3    80  LEU80       0.0001
    127  CD2       -6.7230   36.8620  -37.0060 C.3    80  LEU80       0.0001
    128  N         -4.9020   32.0850  -36.8710 N.am   81  TYR81      -0.1962
    129  CA        -4.4540   30.7330  -36.5420 C.3    81  TYR81       0.1771
    130  C         -4.1590   30.5660  -35.0540 C.2    81  TYR81       0.2619
    131  O         -3.4390   31.3720  -34.4570 O.2    81  TYR81      -0.2715
    132  CB        -3.1850   30.3880  -37.3130 C.3    81  TYR81       0.0574
    133  CG        -3.2680   30.5800  -38.8090 C.ar   81  TYR81      -0.0198
    134  CD1       -3.2120   31.8370  -39.3760 C.ar   81  TYR81      -0.0009
    135  CD2       -3.3620   29.4760  -39.6530 C.ar   81  TYR81      -0.0009
    136  CE1       -3.2630   31.9950  -40.7380 C.ar   81  TYR81       0.0417
    137  CE2       -3.4080   29.6260  -41.0220 C.ar   81  TYR81       0.0417
    138  CZ        -3.3740   30.8770  -41.5520 C.ar   81  TYR81       0.1957
    139  OH        -3.4270   31.0090  -42.9070 O.3    81  TYR81      -0.2866
    140  N         -4.6830   29.4860  -34.4910 N.am   82  LEU82      -0.1977
    141  CA        -4.4790   29.1250  -33.0870 C.3    82  LEU82       0.1596
    142  C         -3.7870   27.7800  -33.0550 C.2    82  LEU82       0.2287
    143  O         -4.3790   26.7980  -33.4950 O.2    82  LEU82      -0.2864
    144  CB        -5.8270   29.0720  -32.3610 C.3    82  LEU82       0.0297
    145  CG        -5.8870   29.4040  -30.8700 C.3    82  LEU82       0.0022
    146  CD1       -5.5230   30.8580  -30.6390 C.3    82  LEU82       0.0001
    147  CD2       -7.2560   29.1230  -30.2950 C.3    82  LEU82       0.0001
@<TRIPOS>BOND
     1   139   138    1
     2   138   137   ar
     3   138   136   ar
     4    28    27    1
     5    28    29    2
     6    26    27    1
     7    30    27    1
     8    30    31    1
     9    49    51   ar
    10    49    47   ar
    11   137   135   ar
    12    51    50   ar
    13    32    31    1
    14    32    33    1
    15   136   134   ar
    16    47    46    1
    17    47    48   ar
    18    34    33    1
    19    46    43    1
    20    50    48   ar
    21   114   113    2
    22   113   112    1
    23    22    21    2
    24    21    20    1
    25   135   133   ar
    26    44    43    1
    27    44    45    2
    28    35    36    1
    29   134   133   ar
    30    43    42    1
    31   120   121    1
    32    42    37   am
    33   109   107   ar
    34   109   110   ar
    35    20    19    1
    36    20    23    1
    37   133   132    1
    38   112   115    1
    39   112   111    1
    40   107   105   ar
    41   118   117    2
    42    36    37    1
    43    36    39    1
    44   110   108   ar
    45    37    38    2
    46   115   116    1
    47   116   117    1
    48    41    39    1
    49   121   122    1
    50   121   124    1
    51   111   102   am
    52   123   122    2
    53    23    25    1
    54    23    24    1
    55   117   119   am
    56   122   128   am
    57   132   129    1
    58    39    40    1
    59   125   127    1
    60   125   124    1
    61   125   126    1
    62   105   104    1
    63   105   106   ar
    64   128   129    1
    65   108   106   ar
    66     4     3    2
    67   102   103    2
    68   102   101    1
    69   129   130    1
    70   104   101    1
    71    12    13    2
    72    12    11    1
    73     3     2    1
    74   101   100    1
    75    11    10    1
    76    11    14    1
    77    59    57    1
    78     5     2    1
    79     5     6    1
    80   130   140   am
    81   130   131    2
    82    57    56    1
    83   100    96   am
    84     2     1    1
    85   140   141    1
    86    15    14    1
    87    15    16    1
    88     6     7    1
    89     7     8    1
    90    96    97    2
    91    96    95    1
    92    66    64    1
    93   143   142    2
    94    52    53    1
    95    56    53    1
    96    56    58    1
    97    18    17    1
    98   141   142    1
    99   141   144    1
   100     8     9    1
   101    17    16    1
   102    53    54    1
   103    65    64    1
   104    64    61    1
   105    95    98    1
   106    95    94    1
   107   144   145    1
   108    98    99    1
   109    54    55    2
   110    75    73   am
   111    61    60    1
   112    61    62    1
   113   145   146    1
   114   145   147    1
   115    83    82   ar
   116    62    67   am
   117    62    63    2
   118    73    72    1
   119    73    74    2
   120    72    71    1
   121    67    68    1
   122    93    92    1
   123    82    84   ar
   124    82    81    1
   125    91    92    1
   126    91    90    1
   127    68    71    1
   128    68    69    1
   129    89    90    1
   130    89    86    1
   131    81    80    1
   132    80    77    1
   133    69    70    2
   134    85    86    1
   135    85    78   am
   136    86    87    1
   137    77    76    1
   138    77    78    1
   139    78    79    2
   140    87    88    2
