@<TRIPOS>MOLECULE
tmp/4ct3C00.pdb
 96 91 0 0 0
SMALL
GASTEIGER

@<TRIPOS>ATOM
      1  N         -4.4880   -3.0480   61.2140 N.3    35  PHE35      -0.1241
      2  CA        -4.0090   -2.0010   62.0980 C.3    35  PHE35       0.1605
      3  C         -2.7050   -1.4240   61.5930 C.2    35  PHE35       0.2264
      4  O         -2.0210   -2.0360   60.8000 O.2    35  PHE35      -0.2867
      5  CB        -3.8960   -2.5520   63.5150 C.3    35  PHE35       0.0534
      6  CG        -5.2230   -2.9830   64.0710 C.ar   35  PHE35      -0.0203
      7  CD1       -6.1850   -2.0360   64.4190 C.ar   35  PHE35      -0.0042
      8  CD2       -5.5220   -4.3190   64.2290 C.ar   35  PHE35      -0.0042
      9  CE1       -7.4100   -2.4240   64.9470 C.ar   35  PHE35      -0.0003
     10  CE2       -6.7580   -4.7150   64.7100 C.ar   35  PHE35      -0.0003
     11  CZ        -7.6900   -3.7720   65.0810 C.ar   35  PHE35      -0.0000
     12  N         -1.3490   -9.0920   74.7040 N.3    46  ASP46      -0.1239
     13  CA        -2.0480  -10.3390   74.3370 C.3    46  ASP46       0.1674
     14  C         -1.6020  -10.9550   73.0040 C.2    46  ASP46       0.2266
     15  O         -1.8730  -12.1190   72.7250 O.2    46  ASP46      -0.2867
     16  CB        -3.5490  -10.1320   74.4120 C.3    46  ASP46       0.1410
     17  CG        -4.0570   -9.0900   73.4290 C.2    46  ASP46       0.3668
     18  OD1       -3.2420   -8.4050   72.7730 O.co2  46  ASP46      -0.2456
     19  OD2       -5.2990   -8.9690   73.2900 O.co2  46  ASP46      -0.2456
     20  N         -4.5420   -7.8510   67.8120 N.3    49  TYR49      -0.1241
     21  CA        -5.1140   -6.4890   67.5490 C.3    49  TYR49       0.1605
     22  C         -4.1430   -5.3150   67.6990 C.2    49  TYR49       0.2264
     23  O         -4.5770   -4.1820   67.9240 O.2    49  TYR49      -0.2867
     24  CB        -6.3510   -6.2120   68.4130 C.3    49  TYR49       0.0534
     25  CG        -7.2700   -7.3700   68.5230 C.ar   49  TYR49      -0.0201
     26  CD1       -7.9200   -7.8730   67.4070 C.ar   49  TYR49      -0.0009
     27  CD2       -7.5120   -7.9650   69.7540 C.ar   49  TYR49      -0.0009
     28  CE1       -8.7750   -8.9470   67.5250 C.ar   49  TYR49       0.0417
     29  CE2       -8.3580   -9.0440   69.8790 C.ar   49  TYR49       0.0417
     30  CZ        -8.9970   -9.5160   68.7650 C.ar   49  TYR49       0.1957
     31  OH        -9.8460  -10.5870   68.9000 O.3    49  TYR49      -0.2866
     32  N         -3.9590   -1.9470   71.8620 N.3    52  GLN52      -0.1245
     33  CA        -5.3090   -1.4780   72.1660 C.3    52  GLN52       0.1566
     34  C         -5.3010   -0.9120   73.5800 C.2    52  GLN52       0.2260
     35  O         -4.2680   -0.9430   74.2770 O.2    52  GLN52      -0.2867
     36  CB        -6.3020   -2.6570   72.0730 C.3    52  GLN52       0.0367
     37  CG        -6.3920   -3.3390   70.6900 C.3    52  GLN52       0.0905
     38  CD        -7.2690   -2.5800   69.7160 C.2    52  GLN52       0.2608
     39  OE1       -8.2710   -1.9500   70.1160 O.2    52  GLN52      -0.2717
     40  NE2       -6.9180   -2.6310   68.4370 N.am   52  GLN52      -0.0878
     41  N         -6.8520   -1.8370   76.3440 N.3    53  GLN53      -0.1245
     42  CA        -6.7350   -2.7790   77.4650 C.3    53  GLN53       0.1566
     43  C         -5.3200   -3.3590   77.6240 C.2    53  GLN53       0.2260
     44  O         -4.9320   -3.7580   78.7160 O.2    53  GLN53      -0.2867
     45  CB        -7.7840   -3.9180   77.3200 C.3    53  GLN53       0.0367
     46  CG        -7.7710   -4.9570   78.4570 C.3    53  GLN53       0.0905
     47  CD        -7.9900   -4.3770   79.8320 C.2    53  GLN53       0.2608
     48  OE1       -8.7800   -3.4610   80.0040 O.2    53  GLN53      -0.2717
     49  NE2       -7.2950   -4.9370   80.8490 N.am   53  GLN53      -0.0878
     50  N        -10.5790  -10.3320   79.3720 N.3    72  GLY72      -0.1210
     51  CA       -11.6970   -9.6290   78.7750 C.3    72  GLY72       0.1956
     52  C        -11.3270   -8.2940   78.1740 C.2    72  GLY72       0.2612
     53  O        -10.1640   -7.8620   78.1740 O.2    72  GLY72      -0.2717
     54  N        -12.3540   -7.6360   77.6770 N.am   73  ASN73      -0.1960
     55  CA       -12.2740   -6.2950   77.1280 C.3    73  ASN73       0.1819
     56  C        -12.2010   -5.2400   78.2160 C.2    73  ASN73       0.2621
     57  O        -12.4180   -5.5480   79.3810 O.2    73  ASN73      -0.2715
     58  CB       -13.5280   -6.0410   76.3010 C.3    73  ASN73       0.1195
     59  CG       -13.5910   -6.9030   75.0530 C.2    73  ASN73       0.2630
     60  OD1      -12.6050   -7.0650   74.3370 O.2    73  ASN73      -0.2716
     61  ND2      -14.7650   -7.4340   74.7660 N.am   73  ASN73      -0.0877
     62  N        -11.9460   -3.9890   77.8270 N.am   74  ALA74      -0.1977
     63  CA       -11.9880   -2.8450   78.7330 C.3    74  ALA74       0.1597
     64  C        -13.2100   -2.8750   79.6670 C.2    74  ALA74       0.2287
     65  O        -13.0760   -2.7240   80.8760 O.2    74  ALA74      -0.2864
     66  CB       -11.9660   -1.5630   77.9430 C.3    74  ALA74       0.0319
     67  N        -17.2520   -2.3330   73.6270 N.3   113  TRP113     -0.1227
     68  CA       -16.0430   -2.9570   74.1930 C.3   113  TRP113      0.1737
     69  C        -15.5320   -2.2900   75.4610 C.2   113  TRP113      0.2596
     70  O        -14.6580   -2.8330   76.1140 O.2   113  TRP113     -0.2718
     71  CB       -14.9200   -2.9240   73.1640 C.3   113  TRP113      0.0564
     72  CG       -15.2550   -3.6920   71.9560 C.ar  113  TRP113      0.0003
     73  CD1      -15.2850   -5.0560   71.8300 C.ar  113  TRP113      0.0946
     74  CD2      -15.6350   -3.1620   70.6890 C.ar  113  TRP113      0.0152
     75  NE1      -15.6540   -5.4060   70.5600 N.ar  113  TRP113     -0.2442
     76  CE2      -15.8690   -4.2610   69.8330 C.ar  113  TRP113      0.0810
     77  CE3      -15.7920   -1.8610   70.1870 C.ar  113  TRP113      0.0012
     78  CZ2      -16.2670   -4.1050   68.5070 C.ar  113  TRP113      0.0191
     79  CZ3      -16.1780   -1.7080   68.8610 C.ar  113  TRP113      0.0001
     80  CH2      -16.4210   -2.8240   68.0410 C.ar  113  TRP113      0.0015
     81  N        -16.0330   -1.0890   75.7470 N.am  114  GLY114     -0.1957
     82  CA       -15.4370   -0.2170   76.7270 C.3   114  GLY114      0.1869
     83  C        -14.1860    0.5110   76.2460 C.2   114  GLY114      0.2309
     84  O        -13.6040    0.1910   75.2120 O.2   114  GLY114     -0.2863
     85  N         -4.7040    3.8460   72.0670 N.3   134  ASN134     -0.1240
     86  CA        -5.6480    3.6660   70.9910 C.3   134  ASN134      0.1653
     87  C         -6.8770    4.5570   71.0250 C.2   134  ASN134      0.2266
     88  O         -7.9440    4.1180   70.5900 O.2   134  ASN134     -0.2867
     89  CB        -6.0780    2.2030   70.8590 C.3   134  ASN134      0.1155
     90  CG        -6.6120    1.9010   69.4590 C.2   134  ASN134      0.2627
     91  OD1       -6.2480    2.5730   68.4960 O.2   134  ASN134     -0.2716
     92  ND2       -7.4520    0.9030   69.3480 N.am  134  ASN134     -0.0877
     93  N         -7.7370    4.8380   67.1490 N.3   137  GLY137     -0.1225
     94  CA        -8.3340    3.7230   66.4190 C.3   137  GLY137      0.1811
     95  C         -7.3860    2.8290   65.6190 C.2   137  GLY137      0.2280
     96  O         -7.7520    1.6910   65.2670 O.2   137  GLY137     -0.2866
@<TRIPOS>BOND
     1     4     3    2
     2     1     2    1
     3     3     2    1
     4     2     5    1
     5     5     6    1
     6     6     8   ar
     7     6     7   ar
     8     8    10   ar
     9     7     9   ar
    10    10    11   ar
    11     9    11   ar
    12    96    95    2
    13    95    94    1
    14    94    93    1
    15    26    28   ar
    16    26    25   ar
    17    28    30   ar
    18    21    22    1
    19    21    20    1
    20    21    24    1
    21    22    23    2
    22    80    78   ar
    23    80    79   ar
    24    24    25    1
    25    40    38   am
    26    91    90    2
    27    78    76   ar
    28    25    27   ar
    29    30    31    1
    30    30    29   ar
    31    79    77   ar
    32    92    90   am
    33    90    89    1
    34    38    39    2
    35    38    37    1
    36    27    29   ar
    37    76    75   ar
    38    76    74   ar
    39    77    74   ar
    40    75    73   ar
    41    88    87    2
    42    74    72   ar
    43    37    36    1
    44    89    86    1
    45    86    87    1
    46    86    85    1
    47    73    72   ar
    48    32    33    1
    49    72    71    1
    50    36    33    1
    51    33    34    1
    52    15    14    2
    53    18    17   ar
    54    14    13    1
    55    71    68    1
    56    19    17   ar
    57    17    16    1
    58    34    35    2
    59    67    68    1
    60    68    69    1
    61    60    59    2
    62    13    16    1
    63    13    12    1
    64    61    59   am
    65    59    58    1
    66    84    83    2
    67    69    81   am
    68    69    70    2
    69    81    82    1
    70    83    82    1
    71    58    55    1
    72    41    42    1
    73    55    54    1
    74    55    56    1
    75    45    42    1
    76    45    46    1
    77    42    43    1
    78    43    44    2
    79    54    52   am
    80    62    56   am
    81    62    63    1
    82    66    63    1
    83    52    53    2
    84    52    51    1
    85    56    57    2
    86    46    47    1
    87    63    64    1
    88    51    50    1
    89    64    65    2
    90    47    48    2
    91    47    49   am
