@<TRIPOS>MOLECULE
tmp/4ct7B01.pdb
 89 86 0 0 0
SMALL
GASTEIGER

@<TRIPOS>ATOM
      1  N         41.4000   28.8160   13.6480 N.3   147  GLU147     -0.1245
      2  CA        40.2120   28.4920   14.4230 C.3   147  GLU147      0.1567
      3  C         40.4310   27.3340   15.4050 C.2   147  GLU147      0.2260
      4  O         39.6540   26.3860   15.4330 O.2   147  GLU147     -0.2867
      5  CB        39.0450   28.1740   13.4750 C.3   147  GLU147      0.0388
      6  CG        38.6050   29.3770   12.6280 C.3   147  GLU147      0.1160
      7  CD        37.4330   29.0740   11.7030 C.2   147  GLU147      0.3649
      8  OE1       36.3590   28.6730   12.2050 O.co2 147  GLU147     -0.2457
      9  OE2       37.5830   29.2520   10.4750 O.co2 147  GLU147     -0.2457
     10  N         40.7110   28.3250   18.6290 N.3   149  ILE149     -0.1231
     11  CA        40.0700   28.8570   19.8320 C.3   149  ILE149      0.1678
     12  C         38.7530   28.1360   20.1700 C.2   149  ILE149      0.2434
     13  O         38.5770   27.7230   21.3190 O.2   149  ILE149     -0.2733
     14  CB        39.8400   30.3760   19.7250 C.3   149  ILE149      0.0265
     15  CG1       41.1850   31.1000   19.8540 C.3   149  ILE149      0.0019
     16  CG2       38.8660   30.8490   20.8100 C.3   149  ILE149      0.0020
     17  CD1       41.1310   32.5890   19.5060 C.3   149  ILE149      0.0001
     18  N         37.8370   27.9510   19.1890 N.am  150  PRO150     -0.2729
     19  CA        36.6490   27.1540   19.5550 C.3   150  PRO150      0.1401
     20  C         36.9750   25.7220   20.0030 C.2   150  PRO150      0.2269
     21  O         36.2540   25.1810   20.8370 O.2   150  PRO150     -0.2865
     22  CB        35.8240   27.0970   18.2610 C.3   150  PRO150      0.0296
     23  CG        36.3840   28.1410   17.3760 C.3   150  PRO150      0.0237
     24  CD        37.8070   28.3580   17.7750 C.3   150  PRO150      0.0939
     25  N         37.9360   26.0010   23.6160 N.3   153  LEU153     -0.1245
     26  CA        36.8300   26.4290   24.4860 C.3   153  LEU153      0.1561
     27  C         35.8930   25.2620   24.7860 C.2   153  LEU153      0.2260
     28  O         35.4250   25.1060   25.9090 O.2   153  LEU153     -0.2867
     29  CB        36.0510   27.5920   23.8490 C.3   153  LEU153      0.0270
     30  CG        36.7280   28.9750   23.7910 C.3   153  LEU153      0.0019
     31  CD1       35.8670   29.9670   23.0050 C.3   153  LEU153      0.0001
     32  CD2       36.9880   29.5220   25.1890 C.3   153  LEU153      0.0001
     33  N         41.9330   40.1380   18.9310 N.3   183  TYR183     -0.1227
     34  CA        41.1070   39.2120   18.1620 C.3   183  TYR183      0.1736
     35  C         39.8930   38.7550   18.9940 C.2   183  TYR183      0.2595
     36  O         38.7470   38.7900   18.5460 O.2   183  TYR183     -0.2718
     37  CB        41.9320   37.9990   17.7140 C.3   183  TYR183      0.0548
     38  CG        41.1590   37.0100   16.8680 C.ar  183  TYR183     -0.0200
     39  CD1       41.1140   37.1340   15.4830 C.ar  183  TYR183     -0.0009
     40  CD2       40.4850   35.9470   17.4550 C.ar  183  TYR183     -0.0009
     41  CE1       40.4090   36.2310   14.7090 C.ar  183  TYR183      0.0417
     42  CE2       39.7800   35.0430   16.6920 C.ar  183  TYR183      0.0417
     43  CZ        39.7430   35.1870   15.3240 C.ar  183  TYR183      0.1957
     44  OH        39.0360   34.2780   14.5730 O.3   183  TYR183     -0.2866
     45  N         40.1590   38.3290   20.2140 N.am  184  ILE184     -0.1980
     46  CA        39.1110   37.7750   21.0580 C.3   184  ILE184      0.1595
     47  C         38.1060   38.8620   21.4860 C.2   184  ILE184      0.2287
     48  O         36.9120   38.5820   21.6200 O.2   184  ILE184     -0.2864
     49  CB        39.7490   37.0510   22.2600 C.3   184  ILE184      0.0276
     50  CG1       40.2860   35.6950   21.7820 C.3   184  ILE184      0.0022
     51  CG2       38.7520   36.8540   23.3850 C.3   184  ILE184      0.0022
     52  CD1       41.3750   35.1180   22.6360 C.3   184  ILE184      0.0001
     53  N         30.3000   39.2120   20.5700 N.3   189  GLU189     -0.1231
     54  CA        30.0020   37.7900   20.4320 C.3   189  GLU189      0.1699
     55  C         31.2100   36.9320   20.7830 C.2   189  GLU189      0.2592
     56  O         31.0820   35.9520   21.5130 O.2   189  GLU189     -0.2718
     57  CB        29.5200   37.4640   19.0160 C.3   189  GLU189      0.0402
     58  CG        30.0060   36.1070   18.4990 C.3   189  GLU189      0.1161
     59  CD        29.1130   35.5190   17.4210 C.2   189  GLU189      0.3649
     60  OE1       28.6660   36.2780   16.5340 O.co2 189  GLU189     -0.2457
     61  OE2       28.8700   34.2920   17.4560 O.co2 189  GLU189     -0.2457
     62  N         32.3850   37.2960   20.2760 N.am  190  ARG190     -0.1980
     63  CA        33.5870   36.5430   20.5910 C.3   190  ARG190      0.1597
     64  C         33.9110   36.6360   22.0720 C.2   190  ARG190      0.2287
     65  O         34.1330   35.6210   22.7390 O.2   190  ARG190     -0.2864
     66  CB        34.7790   37.0430   19.7870 C.3   190  ARG190      0.0334
     67  CG        34.8080   36.5890   18.3510 C.3   190  ARG190      0.0492
     68  CD        36.1520   36.9200   17.7330 C.3   190  ARG190      0.2205
     69  NE        36.1580   36.7510   16.2860 N.pl3 190  ARG190     -0.0865
     70  CZ        37.0820   37.2690   15.4910 C.cat 190  ARG190      0.5346
     71  NH1       38.0590   37.9930   16.0150 N.pl3 190  ARG190      0.1354
     72  NH2       37.0240   37.0740   14.1780 N.pl3 190  ARG190      0.1354
     73  N         31.4100   34.7580   24.4010 N.3   193  HIS193     -0.1226
     74  CA        31.5580   33.3080   24.3630 C.3   193  HIS193      0.1752
     75  C         32.7180   32.8250   25.2280 C.2   193  HIS193      0.2595
     76  O         32.6270   31.7770   25.8630 O.2   193  HIS193     -0.2718
     77  CB        31.7490   32.8210   22.9290 C.3   193  HIS193      0.0759
     78  CG        31.6840   31.3330   22.7860 C.ar  193  HIS193      0.0818
     79  ND1       32.6230   30.6040   22.0900 N.ar  193  HIS193     -0.2268
     80  CD2       30.7900   30.4330   23.2640 C.ar  193  HIS193      0.1154
     81  CE1       32.3130   29.3230   22.1410 C.ar  193  HIS193      0.1986
     82  NE2       31.2070   29.1900   22.8470 N.ar  193  HIS193     -0.2212
     83  N         33.8090   33.5820   25.2510 N.am  194  VAL194     -0.1980
     84  CA        34.9480   33.2330   26.0960 C.3   194  VAL194      0.1595
     85  C         34.6180   33.5020   27.5730 C.2   194  VAL194      0.2287
     86  O         34.9130   32.6900   28.4490 O.2   194  VAL194     -0.2864
     87  CB        36.2130   34.0140   25.6950 C.3   194  VAL194      0.0276
     88  CG1       37.2920   33.9060   26.7770 C.3   194  VAL194      0.0022
     89  CG2       36.7510   33.5200   24.3180 C.3   194  VAL194      0.0022
@<TRIPOS>BOND
     1     9     7   ar
     2     7     8   ar
     3     7     6    1
     4     6     5    1
     5     5     2    1
     6     1     2    1
     7    72    70    1
     8     2     3    1
     9    44    43    1
    10    41    43   ar
    11    41    39   ar
    12    43    42   ar
    13     3     4    2
    14    39    38   ar
    15    70    71    1
    16    70    69    2
    17    69    68    1
    18    60    59   ar
    19    42    40   ar
    20    38    40   ar
    21    38    37    1
    22    23    24    1
    23    23    22    1
    24    59    61   ar
    25    59    58    1
    26    37    34    1
    27    68    67    1
    28    24    18    1
    29    34    33    1
    30    34    35    1
    31    22    19    1
    32    67    66    1
    33    58    57    1
    34    36    35    2
    35    10    11    1
    36    35    45   am
    37    57    54    1
    38    18    19    1
    39    18    12   am
    40    17    15    1
    41    19    20    1
    42    14    11    1
    43    14    15    1
    44    14    16    1
    45    66    63    1
    46    11    12    1
    47    20    21    2
    48    12    13    2
    49    45    46    1
    50    62    63    1
    51    62    55   am
    52    54    53    1
    53    54    55    1
    54    63    64    1
    55    55    56    2
    56    46    47    1
    57    46    49    1
    58    47    48    2
    59    50    49    1
    60    50    52    1
    61    64    65    2
    62    79    81   ar
    63    79    78   ar
    64    81    82   ar
    65    49    51    1
    66    78    77    1
    67    78    80   ar
    68    82    80   ar
    69    77    74    1
    70    31    30    1
    71    25    26    1
    72    30    29    1
    73    30    32    1
    74    29    26    1
    75    89    87    1
    76    74    73    1
    77    74    75    1
    78    26    27    1
    79    27    28    2
    80    75    83   am
    81    75    76    2
    82    83    84    1
    83    87    84    1
    84    87    88    1
    85    84    85    1
    86    85    86    2
