@<TRIPOS>MOLECULE
tmp/4ct9A00.pdb
 127 122 0 0 0
SMALL
GASTEIGER

@<TRIPOS>ATOM
      1  N         29.3170   67.6440   18.7280 N.3     8  GLY8       -0.1210
      2  CA        27.8560   67.7220   18.8850 C.3     8  GLY8        0.1956
      3  C         27.4580   67.8340   20.3480 C.2     8  GLY8        0.2611
      4  O         27.8670   67.0290   21.1590 O.2     8  GLY8       -0.2717
      5  N         26.6770   68.8490   20.6820 N.am    9  VAL9       -0.1979
      6  CA        26.3640   69.1730   22.0640 C.3     9  VAL9        0.1595
      7  C         24.9700   68.6910   22.3870 C.2     9  VAL9        0.2287
      8  O         24.0410   68.9250   21.6000 O.2     9  VAL9       -0.2864
      9  CB        26.3790   70.6930   22.2650 C.3     9  VAL9        0.0276
     10  CG1       26.2830   71.0550   23.7420 C.3     9  VAL9        0.0022
     11  CG2       27.6500   71.2670   21.6540 C.3     9  VAL9        0.0022
     12  N         21.4170   64.0720   25.2770 N.3    12  GLU12      -0.1231
     13  CA        20.6620   63.0390   24.5990 C.3    12  GLU12       0.1699
     14  C         21.4210   62.2840   23.4870 C.2    12  GLU12       0.2592
     15  O         21.1220   61.1260   23.2100 O.2    12  GLU12      -0.2718
     16  CB        19.3730   63.6290   24.0740 C.3    12  GLU12       0.0402
     17  CG        18.4140   63.9530   25.1970 C.3    12  GLU12       0.1161
     18  CD        17.0110   64.2610   24.7020 C.2    12  GLU12       0.3649
     19  OE1       16.7630   64.1840   23.4690 O.co2  12  GLU12      -0.2457
     20  OE2       16.1470   64.5660   25.5560 O.co2  12  GLU12      -0.2457
     21  N         22.4030   62.9520   22.8800 N.am   13  LEU13      -0.1980
     22  CA        23.2620   62.3730   21.8370 C.3    13  LEU13       0.1596
     23  C         24.1890   61.3140   22.4020 C.2    13  LEU13       0.2287
     24  O         24.5540   60.3620   21.7040 O.2    13  LEU13      -0.2864
     25  CB        24.1290   63.4520   21.1910 C.3    13  LEU13       0.0297
     26  CG        23.4350   64.6830   20.5950 C.3    13  LEU13       0.0022
     27  CD1       24.4980   65.6170   20.0430 C.3    13  LEU13       0.0001
     28  CD2       22.4480   64.2880   19.4940 C.3    13  LEU13       0.0001
     29  N         18.7410   61.0540   20.9670 N.3    18  THR18      -0.1203
     30  CA        18.7800   61.6210   19.6210 C.3    18  THR18       0.1994
     31  C         19.9810   61.0440   18.9190 C.2    18  THR18       0.2618
     32  O         21.0880   61.0960   19.4540 O.2    18  THR18      -0.2717
     33  CB        18.9680   63.1430   19.6350 C.3    18  THR18       0.1784
     34  OG1       17.8160   63.7520   20.2110 O.3    18  THR18      -0.2211
     35  CG2       19.1820   63.6840   18.2010 C.3    18  THR18       0.0376
     36  N         19.7800   60.4980   17.7290 N.am   19  LEU19      -0.1965
     37  CA        20.8720   59.8900   17.0070 C.3    19  LEU19       0.1728
     38  C         21.7810   60.9920   16.4180 C.2    19  LEU19       0.2616
     39  O         21.3120   61.8170   15.6460 O.2    19  LEU19      -0.2715
     40  CB        20.3090   59.0110   15.9010 C.3    19  LEU19       0.0311
     41  CG        21.3640   58.2230   15.1200 C.3    19  LEU19       0.0022
     42  CD1       21.9920   57.1230   15.9880 C.3    19  LEU19       0.0001
     43  CD2       20.7390   57.6860   13.8200 C.3    19  LEU19       0.0001
     44  N         23.0640   61.0120   16.7990 N.am   20  ASP20      -0.1957
     45  CA        24.0000   62.0380   16.3000 C.3    20  ASP20       0.1840
     46  C         24.4130   61.7580   14.8650 C.2    20  ASP20       0.2623
     47  O         25.3600   61.0410   14.6090 O.2    20  ASP20      -0.2715
     48  CB        25.2510   62.2000   17.1990 C.3    20  ASP20       0.1450
     49  CG        26.3480   63.0440   16.5410 C.2    20  ASP20       0.3671
     50  OD1       25.9990   64.0460   15.8930 O.co2  20  ASP20      -0.2456
     51  OD2       27.5570   62.7130   16.6460 O.co2  20  ASP20      -0.2456
     52  N         23.6790   62.3230   13.9290 N.am   21  THR21      -0.1937
     53  CA        24.1400   62.2950   12.5570 C.3    21  THR21       0.2028
     54  C         24.8290   63.6310   12.1930 C.2    21  THR21       0.2642
     55  O         25.6010   63.6630   11.2330 O.2    21  THR21      -0.2714
     56  CB        22.9990   62.0260   11.5660 C.3    21  THR21       0.1808
     57  OG1       22.0590   63.0840   11.7010 O.3    21  THR21      -0.2208
     58  CG2       22.3230   60.6770   11.8550 C.3    21  THR21       0.0379
     59  N         24.5540   64.7090   12.9450 N.am   22  ASN22      -0.1971
     60  CA        25.2260   66.0220   12.6920 C.3    22  ASN22       0.1688
     61  C         26.7560   65.9380   12.5630 C.2    22  ASN22       0.2292
     62  O         27.3460   66.4040   11.5750 O.2    22  ASN22      -0.2864
     63  CB        24.8520   67.1190   13.7280 C.3    22  ASN22       0.1181
     64  CG        23.4430   67.6800   13.5180 C.2    22  ASN22       0.2629
     65  OD1       22.7290   67.2920   12.5850 O.2    22  ASN22      -0.2716
     66  ND2       23.0320   68.5840   14.4100 N.am   22  ASN22      -0.0877
     67  N         27.6930   71.8950   17.1510 N.3    67  SER67      -0.1202
     68  CA        26.2990   71.8020   16.7970 C.3    67  SER67       0.2020
     69  C         25.4610   71.6150   18.0440 C.2    67  SER67       0.2619
     70  O         25.7560   70.7740   18.8840 O.2    67  SER67      -0.2717
     71  CB        26.0970   70.6310   15.8350 C.3    67  SER67       0.2103
     72  OG        24.7960   70.1290   15.9280 O.3    67  SER67      -0.2182
     73  N         24.4010   72.3970   18.1670 N.am   68  GLY68      -0.1942
     74  CA        23.3980   72.0950   19.1810 C.3    68  GLY68       0.2014
     75  C         23.6160   72.8860   20.4480 C.2    68  GLY68       0.2639
     76  O         24.6730   73.4930   20.6390 O.2    68  GLY68      -0.2714
     77  N         22.6050   72.8960   21.3070 N.am   69  GLY69      -0.1939
     78  CA        22.6820   73.6140   22.5840 C.3    69  GLY69       0.2014
     79  C         22.5610   75.1230   22.4330 C.2    69  GLY69       0.2639
     80  O         23.0570   75.8850   23.2670 O.2    69  GLY69      -0.2714
     81  N         21.9070   75.5610   21.3630 N.am   70  LEU70      -0.1963
     82  CA        21.7100   76.9820   21.1370 C.3    70  LEU70       0.1728
     83  C         20.2800   77.4050   21.4730 C.2    70  LEU70       0.2616
     84  O         19.8180   78.4850   21.0540 O.2    70  LEU70      -0.2715
     85  CB        22.0560   77.3590   19.6890 C.3    70  LEU70       0.0311
     86  CG        23.5080   77.1660   19.2380 C.3    70  LEU70       0.0022
     87  CD1       23.7960   77.9020   17.9390 C.3    70  LEU70       0.0001
     88  CD2       24.4100   77.6700   20.3360 C.3    70  LEU70       0.0001
     89  N         19.5810   76.5620   22.2310 N.am   71  GLY71      -0.1955
     90  CA        18.2230   76.8770   22.6680 C.3    71  GLY71       0.1869
     91  C         18.1470   77.9090   23.7790 C.2    71  GLY71       0.2309
     92  O         19.1680   78.4930   24.1630 O.2    71  GLY71      -0.2863
     93  N         20.6310   74.6040   27.5780 N.3    76  ASP76      -0.1239
     94  CA        21.2940   75.1540   26.4070 C.3    76  ASP76       0.1674
     95  C         22.3770   76.1240   26.8030 C.2    76  ASP76       0.2266
     96  O         22.0970   77.3000   27.0370 O.2    76  ASP76      -0.2867
     97  CB        20.2810   75.8700   25.5400 C.3    76  ASP76       0.1410
     98  CG        19.3210   74.9260   24.9270 C.2    76  ASP76       0.3668
     99  OD1       19.7770   74.1450   24.0680 O.co2  76  ASP76      -0.2456
    100  OD2       18.1300   74.9470   25.3110 O.co2  76  ASP76      -0.2456
    101  N         21.1860   72.7810   16.5140 N.3   152  GLY152     -0.1210
    102  CA        20.9350   71.3570   16.3510 C.3   152  GLY152      0.1940
    103  C         20.1880   70.9170   15.1120 C.2   152  GLY152      0.2454
    104  O         20.6780   70.0600   14.3550 O.2   152  GLY152     -0.2732
    105  N         18.9820   71.4710   14.8970 N.am  153  PRO153     -0.2718
    106  CA        18.1250   70.8410   13.9070 C.3   153  PRO153      0.1520
    107  C         18.8140   70.8660   12.5370 C.2   153  PRO153      0.2440
    108  O         19.2870   71.9250   12.1220 O.2   153  PRO153     -0.2731
    109  CB        16.8720   71.7330   13.9160 C.3   153  PRO153      0.0310
    110  CG        16.8570   72.3410   15.2830 C.3   153  PRO153      0.0237
    111  CD        18.3220   72.6130   15.5540 C.3   153  PRO153      0.0939
    112  N         18.8980   69.7210   11.8460 N.am  154  PRO154     -0.2727
    113  CA        19.4990   69.8140   10.4970 C.3   154  PRO154      0.1402
    114  C         18.8760   70.8660    9.5670 C.2   154  PRO154      0.2269
    115  O         19.6270   71.5040    8.8000 O.2   154  PRO154     -0.2865
    116  CB        19.3310   68.4110    9.9200 C.3   154  PRO154      0.0296
    117  CG        19.2130   67.5180   11.1280 C.3   154  PRO154      0.0237
    118  CD        18.6280   68.3240   12.2540 C.3   154  PRO154      0.0939
    119  N         17.7790   73.6540   10.0840 N.3   156  GLU156     -0.1245
    120  CA        18.2170   74.9810   10.4550 C.3   156  GLU156      0.1567
    121  C         19.6910   75.1250   10.1450 C.2   156  GLU156      0.2260
    122  O         20.0900   76.0570    9.4510 O.2   156  GLU156     -0.2867
    123  CB        17.9460   75.2770   11.9200 C.3   156  GLU156      0.0388
    124  CG        16.4710   75.4250   12.2480 C.3   156  GLU156      0.1160
    125  CD        16.2510   75.6770   13.7250 C.2   156  GLU156      0.3649
    126  OE1       16.9570   76.5450   14.2900 O.co2 156  GLU156     -0.2457
    127  OE2       15.3760   75.0030   14.3140 O.co2 156  GLU156     -0.2457
@<TRIPOS>BOND
     1   115   114    2
     2   122   121    2
     3   114   113    1
     4   116   113    1
     5   116   117    1
     6   119   120    1
     7   121   120    1
     8   120   123    1
     9   113   112    1
    10   117   118    1
    11    55    54    2
    12    56    57    1
    13    56    58    1
    14    56    53    1
    15    62    61    2
    16   112   118    1
    17   112   107   am
    18   123   124    1
    19   108   107    2
    20    54    53    1
    21    54    59   am
    22   124   125    1
    23   107   106    1
    24    53    52    1
    25    61    60    1
    26    65    64    2
    27    60    59    1
    28    60    63    1
    29    64    63    1
    30    64    66   am
    31   125   126   ar
    32   125   127   ar
    33    43    41    1
    34   106   109    1
    35   106   105    1
    36   109   110    1
    37    52    46   am
    38   104   103    2
    39    47    46    2
    40    46    45    1
    41   105   103   am
    42   105   111    1
    43   103   102    1
    44    41    40    1
    45    41    42    1
    46   110   111    1
    47    39    38    2
    48    71    72    1
    49    71    68    1
    50    50    49   ar
    51    40    37    1
    52    45    44    1
    53    45    48    1
    54   102   101    1
    55    38    44   am
    56    38    37    1
    57    49    51   ar
    58    49    48    1
    59    68    67    1
    60    68    69    1
    61    37    36    1
    62    36    31   am
    63    87    86    1
    64    69    73   am
    65    69    70    2
    66    73    74    1
    67    35    33    1
    68     1     2    1
    69     2     3    1
    70    31    32    2
    71    31    30    1
    72    74    75    1
    73    86    85    1
    74    86    88    1
    75    28    26    1
    76    30    33    1
    77    30    29    1
    78    33    34    1
    79    85    82    1
    80    27    26    1
    81     3     5   am
    82     3     4    2
    83    75    76    2
    84    75    77   am
    85    26    25    1
    86     5     6    1
    87    84    83    2
    88    82    81    1
    89    82    83    1
    90    25    22    1
    91    77    78    1
    92    81    79   am
    93    83    89   am
    94     8     7    2
    95    11     9    1
    96    24    23    2
    97    22    23    1
    98    22    21    1
    99     6     9    1
   100     6     7    1
   101    89    90    1
   102     9    10    1
   103    79    78    1
   104    79    80    2
   105    90    91    1
   106    21    14   am
   107    15    14    2
   108    19    18   ar
   109    14    13    1
   110    91    92    2
   111    99    98   ar
   112    16    13    1
   113    16    17    1
   114    13    12    1
   115    18    17    1
   116    18    20   ar
   117    98   100   ar
   118    98    97    1
   119    97    94    1
   120    94    95    1
   121    94    93    1
   122    95    96    2
