@<TRIPOS>MOLECULE
tmp/4ctaA00.pdb
 162 157 0 0 0
SMALL
GASTEIGER

@<TRIPOS>ATOM
      1  N         29.8350   67.6070   18.5170 N.3     8  GLY8       -0.1210
      2  CA        28.3870   67.7160   18.6930 C.3     8  GLY8        0.1956
      3  C         28.0830   67.8730   20.1680 C.2     8  GLY8        0.2611
      4  O         28.6240   67.1320   21.0000 O.2     8  GLY8       -0.2717
      5  N         27.2070   68.8280   20.4980 N.am    9  VAL9       -0.1979
      6  CA        26.8860   69.1880   21.8850 C.3     9  VAL9        0.1595
      7  C         25.4540   68.7560   22.2610 C.2     9  VAL9        0.2287
      8  O         24.4890   69.1100   21.5680 O.2     9  VAL9       -0.2864
      9  CB        27.0220   70.7160   22.0950 C.3     9  VAL9        0.0276
     10  CG1       26.8360   71.0970   23.5620 C.3     9  VAL9        0.0022
     11  CG2       28.3650   71.1860   21.5440 C.3     9  VAL9        0.0022
     12  N         21.9900   64.0660   25.1630 N.3    12  GLU12      -0.1231
     13  CA        21.2250   63.0410   24.4980 C.3    12  GLU12       0.1699
     14  C         21.9600   62.3820   23.2860 C.2    12  GLU12       0.2592
     15  O         21.5260   61.3480   22.7610 O.2    12  GLU12      -0.2718
     16  CB        19.8370   63.5820   24.1560 C.3    12  GLU12       0.0402
     17  CG        19.7890   64.4470   22.8970 C.3    12  GLU12       0.1161
     18  CD        20.4490   65.8410   23.0530 C.2    12  GLU12       0.3649
     19  OE1       20.5390   66.3410   24.2010 O.co2  12  GLU12      -0.2457
     20  OE2       20.8580   66.4360   22.0130 O.co2  12  GLU12      -0.2457
     21  N         23.0690   62.9800   22.8510 N.am   13  LEU13      -0.1980
     22  CA        23.8590   62.4260   21.7320 C.3    13  LEU13       0.1596
     23  C         24.8260   61.3560   22.2650 C.2    13  LEU13       0.2287
     24  O         25.1970   60.4030   21.5560 O.2    13  LEU13      -0.2864
     25  CB        24.6440   63.5120   20.9770 C.3    13  LEU13       0.0297
     26  CG        23.9880   64.7060   20.2610 C.3    13  LEU13       0.0022
     27  CD1       25.0510   65.7260   19.8590 C.3    13  LEU13       0.0001
     28  CD2       23.2330   64.3100   19.0210 C.3    13  LEU13       0.0001
     29  N         19.1950   61.0220   20.8830 N.3    18  THR18      -0.1203
     30  CA        19.1490   61.5110   19.5210 C.3    18  THR18       0.1994
     31  C         20.3860   61.1250   18.7760 C.2    18  THR18       0.2618
     32  O         21.5010   61.3230   19.2390 O.2    18  THR18      -0.2717
     33  CB        18.9110   63.0210   19.4480 C.3    18  THR18       0.1784
     34  OG1       17.6300   63.3040   20.0380 O.3    18  THR18      -0.2211
     35  CG2       18.9260   63.4860   17.9850 C.3    18  THR18       0.0376
     36  N         20.1740   60.5870   17.5960 N.am   19  LEU19      -0.1965
     37  CA        21.2190   59.9860   16.8100 C.3    19  LEU19       0.1728
     38  C         22.1240   61.0710   16.1490 C.2    19  LEU19       0.2616
     39  O         21.6270   61.8830   15.3610 O.2    19  LEU19      -0.2715
     40  CB        20.5140   59.1310   15.7590 C.3    19  LEU19       0.0311
     41  CG        21.2470   58.1030   14.8760 C.3    19  LEU19       0.0022
     42  CD1       22.1040   57.1320   15.7220 C.3    19  LEU19       0.0001
     43  CD2       20.2060   57.3690   14.0050 C.3    19  LEU19       0.0001
     44  N         23.4270   61.0800   16.4840 N.am   20  ASP20      -0.1957
     45  CA        24.3910   62.1050   16.0060 C.3    20  ASP20       0.1840
     46  C         24.8410   61.8840   14.6000 C.2    20  ASP20       0.2623
     47  O         25.7950   61.1520   14.3450 O.2    20  ASP20      -0.2715
     48  CB        25.6570   62.1880   16.8750 C.3    20  ASP20       0.1450
     49  CG        26.7610   63.0680   16.2200 C.2    20  ASP20       0.3671
     50  OD1       26.4090   64.1080   15.6080 O.co2  20  ASP20      -0.2456
     51  OD2       27.9750   62.7300   16.3110 O.co2  20  ASP20      -0.2456
     52  N         24.1680   62.5200   13.6700 N.am   21  THR21      -0.1937
     53  CA        24.5770   62.4100   12.3150 C.3    21  THR21       0.2028
     54  C         25.2520   63.7300   11.8880 C.2    21  THR21       0.2642
     55  O         25.8770   63.7930   10.8050 O.2    21  THR21      -0.2714
     56  CB        23.3870   62.1460   11.4220 C.3    21  THR21       0.1808
     57  OG1       22.3670   63.0630   11.7930 O.3    21  THR21      -0.2208
     58  CG2       22.8730   60.6920   11.6100 C.3    21  THR21       0.0379
     59  N         25.0880   64.7750   12.7070 N.am   22  ASN22      -0.1971
     60  CA        25.7380   66.0710   12.4550 C.3    22  ASN22       0.1688
     61  C         27.2480   65.9470   12.3320 C.2    22  ASN22       0.2292
     62  O         27.8090   66.3580   11.3190 O.2    22  ASN22      -0.2864
     63  CB        25.3880   67.1000   13.5480 C.3    22  ASN22       0.1181
     64  CG        23.9840   67.6870   13.3880 C.2    22  ASN22       0.2629
     65  OD1       23.3140   67.4540   12.3910 O.2    22  ASN22      -0.2716
     66  ND2       23.5450   68.4480   14.3790 N.am   22  ASN22      -0.0877
     67  N         28.2500   72.0180   16.9490 N.3    67  SER67      -0.1202
     68  CA        26.8930   71.7860   16.5480 C.3    67  SER67       0.2020
     69  C         26.0560   71.7200   17.7870 C.2    67  SER67       0.2619
     70  O         26.3870   70.9500   18.6940 O.2    67  SER67      -0.2717
     71  CB        26.8190   70.4000   15.9090 C.3    67  SER67       0.2103
     72  OG        25.6600   70.3090   15.1440 O.3    67  SER67      -0.2182
     73  N         24.9700   72.5010   17.8440 N.am   68  GLY68      -0.1942
     74  CA        24.0050   72.3890   18.9180 C.3    68  GLY68       0.2014
     75  C         24.3130   73.1300   20.2060 C.2    68  GLY68       0.2639
     76  O         25.4170   73.6350   20.4050 O.2    68  GLY68      -0.2714
     77  N         23.3380   73.1590   21.1090 N.am   69  GLY69      -0.1939
     78  CA        23.4630   73.8780   22.3640 C.3    69  GLY69       0.2014
     79  C         23.2540   75.3770   22.1950 C.2    69  GLY69       0.2639
     80  O         23.6990   76.1420   23.0160 O.2    69  GLY69      -0.2714
     81  N         22.5830   75.7770   21.1120 N.am   70  LEU70      -0.1963
     82  CA        22.2850   77.1960   20.8450 C.3    70  LEU70       0.1728
     83  C         20.8460   77.6340   21.1910 C.2    70  LEU70       0.2617
     84  O         20.4200   78.7440   20.8210 O.2    70  LEU70      -0.2715
     85  CB        22.6170   77.5570   19.3860 C.3    70  LEU70       0.0311
     86  CG        24.0510   77.2680   18.9280 C.3    70  LEU70       0.0022
     87  CD1       24.3010   77.8200   17.5360 C.3    70  LEU70       0.0001
     88  CD2       25.0580   77.8260   19.9340 C.3    70  LEU70       0.0001
     89  N         20.1070   76.7810   21.8980 N.am   71  GLY71      -0.1941
     90  CA        18.7330   77.0790   22.2900 C.3    71  GLY71       0.1998
     91  C         18.6190   78.0890   23.4340 C.2    71  GLY71       0.2480
     92  O         19.5850   78.7650   23.7560 O.2    71  GLY71      -0.2729
     93  N         17.4260   78.1920   24.0480 N.am   72  PRO72      -0.2726
     94  CA        17.1400   79.1270   25.1380 C.3    72  PRO72       0.1402
     95  C         17.2010   78.5620   26.5730 C.2    72  PRO72       0.2269
     96  O         17.1770   79.3380   27.5240 O.2    72  PRO72      -0.2865
     97  CB        15.7070   79.5640   24.8330 C.3    72  PRO72       0.0296
     98  CG        15.0790   78.3850   24.1320 C.3    72  PRO72       0.0237
     99  CD        16.1920   77.6560   23.4280 C.3    72  PRO72       0.0939
    100  N         21.1700   74.7600   27.2700 N.3    76  ASP76      -0.1239
    101  CA        21.8150   75.2370   26.0440 C.3    76  ASP76       0.1674
    102  C         22.9380   76.1780   26.4670 C.2    76  ASP76       0.2266
    103  O         22.6720   77.2980   26.8930 O.2    76  ASP76      -0.2867
    104  CB        20.7940   75.9540   25.1810 C.3    76  ASP76       0.1410
    105  CG        19.7620   75.0100   24.6250 C.2    76  ASP76       0.3668
    106  OD1       20.1020   74.1920   23.7350 O.co2  76  ASP76      -0.2456
    107  OD2       18.6060   75.0620   25.0800 O.co2  76  ASP76      -0.2456
    108  N         20.2960   84.2340   23.3070 N.3   118  GLN118     -0.1245
    109  CA        20.5530   83.8860   21.8890 C.3   118  GLN118      0.1566
    110  C         21.1820   85.0180   21.0790 C.2   118  GLN118      0.2260
    111  O         21.5810   84.8270   19.9060 O.2   118  GLN118     -0.2867
    112  CB        19.2820   83.3880   21.1950 C.3   118  GLN118      0.0367
    113  CG        18.6850   82.1170   21.7810 C.3   118  GLN118      0.0905
    114  CD        17.5460   81.5660   20.9510 C.2   118  GLN118      0.2608
    115  OE1       16.5900   82.2680   20.6600 O.2   118  GLN118     -0.2717
    116  NE2       17.6430   80.2940   20.5700 N.am  118  GLN118     -0.0878
    117  N         15.4560   80.4610   15.6500 N.3   134  THR134     -0.1203
    118  CA        15.7430   81.6370   16.4710 C.3   134  THR134      0.1994
    119  C         17.2290   81.9420   16.6370 C.2   134  THR134      0.2617
    120  O         17.5880   83.0920   16.7000 O.2   134  THR134     -0.2717
    121  CB        15.0470   81.6180   17.8700 C.3   134  THR134      0.1784
    122  OG1       15.7140   80.7100   18.7530 O.3   134  THR134     -0.2211
    123  CG2       13.5820   81.2250   17.7650 C.3   134  THR134      0.0376
    124  N         18.0860   80.9240   16.7160 N.am  135  ALA135     -0.1979
    125  CA        19.4760   81.1530   17.0970 C.3   135  ALA135      0.1597
    126  C         20.3770   81.3690   15.8870 C.2   135  ALA135      0.2287
    127  O         20.4610   80.5110   15.0190 O.2   135  ALA135     -0.2864
    128  CB        19.9850   79.9980   17.9230 C.3   135  ALA135      0.0319
    129  N         23.6000   75.7910   14.7980 N.3   151  PRO151     -0.2102
    130  CA        22.4350   75.2200   15.5300 C.3   151  PRO151      0.1504
    131  C         22.3800   73.6880   15.4210 C.2   151  PRO151      0.2576
    132  O         22.9260   73.1240   14.4980 O.2   151  PRO151     -0.2718
    133  CB        21.2050   75.8190   14.8190 C.3   151  PRO151      0.0282
    134  CG        21.7110   76.6660   13.7150 C.3   151  PRO151      0.0208
    135  CD        23.2010   76.5000   13.5690 C.3   151  PRO151      0.0893
    136  N         21.7290   73.0420   16.3630 N.am  152  GLY152     -0.1943
    137  CA        21.5420   71.6220   16.3370 C.3   152  GLY152      0.1998
    138  C         20.7600   71.0770   15.1670 C.2   152  GLY152      0.2481
    139  O         21.2820   70.1910   14.4500 O.2   152  GLY152     -0.2729
    140  N         19.5140   71.5720   14.9420 N.am  153  PRO153     -0.2715
    141  CA        18.6550   70.9680   13.8670 C.3   153  PRO153      0.1521
    142  C         19.2200   71.1390   12.4500 C.2   153  PRO153      0.2440
    143  O         19.7180   72.2260   12.1210 O.2   153  PRO153     -0.2731
    144  CB        17.3100   71.7080   14.0280 C.3   153  PRO153      0.0310
    145  CG        17.3300   72.2140   15.4590 C.3   153  PRO153      0.0237
    146  CD        18.7780   72.5530   15.7510 C.3   153  PRO153      0.0939
    147  N         19.1770   70.0710   11.6130 N.am  154  PRO154     -0.2727
    148  CA        19.7430   70.1330   10.2480 C.3   154  PRO154      0.1402
    149  C         19.0510   71.0800    9.2660 C.2   154  PRO154      0.2269
    150  O         19.7020   71.5870    8.3620 O.2   154  PRO154     -0.2865
    151  CB        19.6110   68.6850    9.7430 C.3   154  PRO154      0.0296
    152  CG        19.6720   67.8530   10.9790 C.3   154  PRO154      0.0237
    153  CD        18.8780   68.6700   11.9930 C.3   154  PRO154      0.0939
    154  N         18.0250   73.9740    9.9310 N.3   156  GLU156     -0.1245
    155  CA        18.6620   75.2230   10.2820 C.3   156  GLU156      0.1567
    156  C         20.1400   75.1980    9.8420 C.2   156  GLU156      0.2260
    157  O         20.5330   75.8950    8.8610 O.2   156  GLU156     -0.2867
    158  CB        18.4970   75.5470   11.7720 C.3   156  GLU156      0.0388
    159  CG        17.0400   75.5390   12.3090 C.3   156  GLU156      0.1160
    160  CD        16.9560   75.8300   13.8310 C.2   156  GLU156      0.3649
    161  OE1       17.8130   76.5630   14.3490 O.co2 156  GLU156     -0.2457
    162  OE2       16.0400   75.3320   14.5480 O.co2 156  GLU156     -0.2457
@<TRIPOS>BOND
     1   150   149    2
     2   157   156    2
     3   149   148    1
     4   151   148    1
     5   151   152    1
     6   156   155    1
     7   154   155    1
     8   148   147    1
     9   155   158    1
    10    55    54    2
    11   152   153    1
    12    62    61    2
    13    56    58    1
    14    56    57    1
    15    56    53    1
    16   147   153    1
    17   147   142   am
    18   158   159    1
    19    54    53    1
    20    54    59   am
    21   143   142    2
    22   159   160    1
    23    53    52    1
    24    61    60    1
    25    65    64    2
    26   142   141    1
    27    60    59    1
    28    60    63    1
    29    64    63    1
    30    64    66   am
    31   135   134    1
    32   135   129    1
    33    52    46   am
    34   134   133    1
    35   160   161   ar
    36   160   162   ar
    37   141   144    1
    38   141   140    1
    39    43    41    1
    40   144   145    1
    41    47    46    2
    42   139   138    2
    43   132   131    2
    44    46    45    1
    45   129   130    1
    46   133   130    1
    47    41    42    1
    48    41    40    1
    49   140   138   am
    50   140   146    1
    51   127   126    2
    52    72    71    1
    53   138   137    1
    54    39    38    2
    55   131   130    1
    56   131   136   am
    57   145   146    1
    58    50    49   ar
    59   117   118    1
    60    40    37    1
    61   126   125    1
    62    71    68    1
    63    45    44    1
    64    45    48    1
    65    38    44   am
    66    38    37    1
    67    49    51   ar
    68    49    48    1
    69   137   136    1
    70   118   119    1
    71   118   121    1
    72    68    67    1
    73    68    69    1
    74   119   120    2
    75   119   124   am
    76   124   125    1
    77    37    36    1
    78   125   128    1
    79    87    86    1
    80    36    31   am
    81   123   121    1
    82    69    73   am
    83    69    70    2
    84    73    74    1
    85   121   122    1
    86    35    33    1
    87     1     2    1
    88     2     3    1
    89    31    32    2
    90    31    30    1
    91    74    75    1
    92    86    85    1
    93    86    88    1
    94    28    26    1
    95    85    82    1
    96    33    30    1
    97    33    34    1
    98    30    29    1
    99    27    26    1
   100   111   110    2
   101     3     5   am
   102     3     4    2
   103    75    76    2
   104    75    77   am
   105    26    25    1
   106     5     6    1
   107   116   114   am
   108   115   114    2
   109    84    83    2
   110    82    81    1
   111    82    83    1
   112   114   113    1
   113    25    22    1
   114   110   109    1
   115    77    78    1
   116    81    79   am
   117    83    89   am
   118   112   113    1
   119   112   109    1
   120    11     9    1
   121    24    23    2
   122     8     7    2
   123    22    23    1
   124    22    21    1
   125     6     9    1
   126     6     7    1
   127   109   108    1
   128    89    90    1
   129    20    18   ar
   130     9    10    1
   131    79    78    1
   132    79    80    2
   133    90    91    1
   134    15    14    2
   135    21    14   am
   136    17    18    1
   137    17    16    1
   138    18    19   ar
   139    14    13    1
   140    99    93    1
   141    99    98    1
   142    91    92    2
   143    91    93   am
   144   106   105   ar
   145    93    94    1
   146    98    97    1
   147    16    13    1
   148    13    12    1
   149   105   107   ar
   150   105   104    1
   151    97    94    1
   152    94    95    1
   153   104   101    1
   154   101   102    1
   155   101   100    1
   156   102   103    2
   157    95    96    2
