@<TRIPOS>MOLECULE
tmp/4ctbA00.pdb
 149 137 0 0 0
SMALL
GASTEIGER

@<TRIPOS>ATOM
      1  N         22.5630   44.2990   -0.6350 N.3    28  ARG28      -0.1245
      2  CA        23.4230   45.3040   -1.2470 C.3    28  ARG28       0.1563
      3  C         24.8390   45.1560   -0.7100 C.2    28  ARG28       0.2260
      4  O         25.0460   44.5920    0.3680 O.2    28  ARG28      -0.2867
      5  CB        22.9100   46.7090   -0.9280 C.3    28  ARG28       0.0307
      6  CG        22.9210   47.0430    0.5550 C.3    28  ARG28       0.0489
      7  CD        22.4830   48.4760    0.8060 C.3    28  ARG28       0.2205
      8  NE        22.2920   48.7470    2.2270 N.pl3  28  ARG28      -0.0865
      9  CZ        23.0790   49.5330    2.9550 C.cat  28  ARG28       0.5346
     10  NH1       24.1210   50.1320    2.3960 N.pl3  28  ARG28       0.1354
     11  NH2       22.8230   49.7220    4.2440 N.pl3  28  ARG28       0.1354
     12  N         28.4100   46.5130    0.9190 N.3    30  LEU30      -0.1231
     13  CA        28.7640   47.4840    1.9450 C.3    30  LEU30       0.1693
     14  C         30.2180   47.9140    1.7900 C.2    30  LEU30       0.2592
     15  O         30.5730   49.0480    2.1020 O.2    30  LEU30      -0.2718
     16  CB        28.5450   46.8900    3.3380 C.3    30  LEU30       0.0284
     17  CG        27.1030   46.5390    3.7060 C.3    30  LEU30       0.0019
     18  CD1       27.0730   45.8460    5.0600 C.3    30  LEU30       0.0001
     19  CD2       26.2620   47.8070    3.7340 C.3    30  LEU30       0.0001
     20  N         31.0550   47.0030    1.3070 N.am   31  GLY31      -0.1957
     21  CA        32.4560   47.3210    1.1090 C.3    31  GLY31       0.1869
     22  C         33.2710   46.1220    0.6710 C.2    31  GLY31       0.2309
     23  O         32.9210   44.9820    0.9670 O.2    31  GLY31      -0.2863
     24  N         31.7950   42.5420    1.4710 N.3    35  VAL35      -0.1245
     25  CA        30.8280   42.4820    2.5510 C.3    35  VAL35       0.1561
     26  C         29.4810   42.9660    2.0380 C.2    35  VAL35       0.2260
     27  O         29.4000   43.9730    1.3290 O.2    35  VAL35      -0.2867
     28  CB        31.2510   43.3590    3.7400 C.3    35  VAL35       0.0252
     29  CG1       30.2110   43.2630    4.8480 C.3    35  VAL35       0.0019
     30  CG2       32.6160   42.9190    4.2470 C.3    35  VAL35       0.0019
     31  N         25.1030   43.5050    2.9540 N.3    37  GLU37      -0.1245
     32  CA        23.9570   43.4330    3.8380 C.3    37  GLU37       0.1567
     33  C         23.0960   42.2730    3.3550 C.2    37  GLU37       0.2260
     34  O         22.9200   42.0820    2.1500 O.2    37  GLU37      -0.2867
     35  CB        23.1540   44.7370    3.7950 C.3    37  GLU37       0.0388
     36  CG        21.9980   44.7540    4.7830 C.3    37  GLU37       0.1160
     37  CD        21.1270   45.9900    4.6640 C.2    37  GLU37       0.3649
     38  OE1       21.5490   46.9620    4.0050 O.co2  37  GLU37      -0.2457
     39  OE2       20.0150   45.9850    5.2360 O.co2  37  GLU37      -0.2457
     40  N         25.2360   41.1000    8.2930 N.3    45  ALA45      -0.1245
     41  CA        26.3050   41.4340    7.3610 C.3    45  ALA45       0.1562
     42  C         26.9710   40.1380    6.9070 C.2    45  ALA45       0.2260
     43  O         27.1990   39.2320    7.7110 O.2    45  ALA45      -0.2867
     44  CB        27.3210   42.3420    8.0290 C.3    45  ALA45       0.0290
     45  N         30.2170   38.3970    5.1800 N.3    47  LYS47      -0.1245
     46  CA        31.5830   38.4030    4.6680 C.3    47  LYS47       0.1561
     47  C         31.7390   37.2490    3.6990 C.2    47  LYS47       0.2260
     48  O         31.3370   36.1290    3.9940 O.2    47  LYS47      -0.2867
     49  CB        32.6080   38.2320    5.7930 C.3    47  LYS47       0.0271
     50  CG        32.7010   39.3770    6.7550 C.3    47  LYS47       0.0035
     51  CD        34.0000   39.3020    7.5560 C.3    47  LYS47       0.0206
     52  CE        35.2080   39.6420    6.6910 C.3    47  LYS47       0.1093
     53  NZ        36.4200   39.9160    7.5160 N.3    47  LYS47      -0.1314
     54  N         31.0060   41.9200   18.1680 N.3    77  VAL77      -0.1245
     55  CA        29.9840   41.5890   17.1800 C.3    77  VAL77       0.1561
     56  C         29.6640   40.0980   17.2220 C.2    77  VAL77       0.2260
     57  O         30.5650   39.2650   17.3340 O.2    77  VAL77      -0.2867
     58  CB        30.4450   41.9770   15.7570 C.3    77  VAL77       0.0252
     59  CG1       31.6870   41.1880   15.3760 C.3    77  VAL77       0.0019
     60  CG2       29.3250   41.7370   14.7600 C.3    77  VAL77       0.0019
     61  N         27.4660   37.8840   10.1260 N.3    93  LEU93      -0.1231
     62  CA        27.6530   38.6890   11.3340 C.3    93  LEU93       0.1693
     63  C         26.4390   39.5430   11.6830 C.2    93  LEU93       0.2592
     64  O         25.6560   39.9300   10.8140 O.2    93  LEU93      -0.2718
     65  CB        28.8700   39.6080   11.1770 C.3    93  LEU93       0.0284
     66  CG        30.1900   38.9400   10.7840 C.3    93  LEU93       0.0019
     67  CD1       31.2560   40.0080   10.5750 C.3    93  LEU93       0.0001
     68  CD2       30.6200   37.9510   11.8740 C.3    93  LEU93       0.0001
     69  N         26.3050   39.8390   12.9710 N.am   94  GLU94      -0.1966
     70  CA        25.4070   40.8820   13.4570 C.3    94  GLU94       0.1733
     71  C         25.5220   42.1290   12.5650 C.2    94  GLU94       0.2616
     72  O         26.6160   42.6510   12.3570 O.2    94  GLU94      -0.2715
     73  CB        25.7930   41.2300   14.9030 C.3    94  GLU94       0.0429
     74  CG        24.9370   42.2810   15.5770 C.3    94  GLU94       0.1163
     75  CD        25.3950   42.5710   17.0010 C.2    94  GLU94       0.3649
     76  OE1       26.4390   42.0250   17.4210 O.co2  94  GLU94      -0.2457
     77  OE2       24.7160   43.3510   17.7000 O.co2  94  GLU94      -0.2457
     78  N         24.3960   42.6000   12.0380 N.am   95  LEU95      -0.1963
     79  CA        24.4060   43.7890   11.1890 C.3    95  LEU95       0.1728
     80  C         24.4860   45.0550   12.0310 C.2    95  LEU95       0.2616
     81  O         23.5510   45.3910   12.7560 O.2    95  LEU95      -0.2715
     82  CB        23.1460   43.8420   10.3160 C.3    95  LEU95       0.0311
     83  CG        23.0770   45.0550    9.3820 C.3    95  LEU95       0.0022
     84  CD1       24.2710   45.0190    8.4390 C.3    95  LEU95       0.0001
     85  CD2       21.7630   45.0480    8.6000 C.3    95  LEU95       0.0001
     86  N         25.6070   45.7610   11.9220 N.am   96  MET96      -0.1963
     87  CA        25.8010   46.9910   12.6690 C.3    96  MET96       0.1736
     88  C         25.5060   48.1780   11.7630 C.2    96  MET96       0.2616
     89  O         26.3640   48.6200   11.0000 O.2    96  MET96      -0.2715
     90  CB        27.2360   47.0470   13.2050 C.3    96  MET96       0.0427
     91  CG        27.6140   45.8260   14.0530 C.3    96  MET96       0.0599
     92  SD        26.8080   45.8060   15.6860 S.3    96  MET96      -0.1393
     93  CE        25.0800   45.5740   15.2720 C.3    96  MET96       0.0692
     94  N         24.2800   48.6840   11.8590 N.am   97  ALA97      -0.1977
     95  CA        23.7690   49.6600   10.9020 C.3    97  ALA97       0.1597
     96  C         24.5120   50.9860   10.9420 C.2    97  ALA97       0.2287
     97  O         24.4250   51.7790   10.0020 O.2    97  ALA97      -0.2864
     98  CB        22.2800   49.8900   11.1390 C.3    97  ALA97       0.0319
     99  N         27.7150   51.2620   10.8590 N.3    99  GLY99      -0.1210
    100  CA        28.9610   51.1540   10.1200 C.3    99  GLY99       0.1956
    101  C         30.1880   51.1830   11.0150 C.2    99  GLY99       0.2611
    102  O         30.0730   51.0360   12.2330 O.2    99  GLY99      -0.2717
    103  N         31.3690   51.3640   10.4290 N.am  100  ASP100     -0.1973
    104  CA        32.5890   51.3920   11.2370 C.3   100  ASP100      0.1709
    105  C         32.7640   52.7290   11.9510 C.2   100  ASP100      0.2293
    106  O         32.2540   53.7610   11.5150 O.2   100  ASP100     -0.2864
    107  CB        33.8310   51.0910   10.3830 C.3   100  ASP100      0.1436
    108  CG        34.2360   52.2520    9.5040 C.2   100  ASP100      0.3671
    109  OD1       33.6650   52.3870    8.4030 O.co2 100  ASP100     -0.2456
    110  OD2       35.1280   53.0310    9.9140 O.co2 100  ASP100     -0.2456
    111  N         38.9580   51.7780   12.9480 N.3   150  ARG150     -0.1231
    112  CA        38.5470   51.1170   11.7100 C.3   150  ARG150      0.1694
    113  C         38.0240   49.7020   11.9790 C.2   150  ARG150      0.2592
    114  O         37.3180   49.1190   11.1500 O.2   150  ARG150     -0.2718
    115  CB        39.7270   51.0500   10.7320 C.3   150  ARG150      0.0321
    116  CG        40.8350   50.1170   11.1900 C.3   150  ARG150      0.0489
    117  CD        42.0350   50.1000   10.2470 C.3   150  ARG150      0.2205
    118  NE        43.2260   49.6140   10.9430 N.pl3 150  ARG150     -0.0865
    119  CZ        44.0330   50.3930   11.6600 C.cat 150  ARG150      0.5346
    120  NH1       43.7750   51.6880   11.7600 N.pl3 150  ARG150      0.1354
    121  NH2       45.0760   49.8800   12.3020 N.pl3 150  ARG150      0.1354
    122  N         38.3740   49.1550   13.1410 N.am  151  ASN151     -0.1974
    123  CA        37.9910   47.7950   13.5040 C.3   151  ASN151      0.1688
    124  C         36.8220   47.7310   14.4900 C.2   151  ASN151      0.2292
    125  O         36.5030   46.6640   15.0140 O.2   151  ASN151     -0.2864
    126  CB        39.2120   47.0560   14.0670 C.3   151  ASN151      0.1181
    127  CG        40.2760   46.8240   13.0080 C.2   151  ASN151      0.2629
    128  OD1       39.9530   46.6010   11.8390 O.2   151  ASN151     -0.2716
    129  ND2       41.5420   46.8820   13.4030 N.am  151  ASN151     -0.0877
    130  N         32.6110   48.8210   15.2640 N.3   153  LEU153     -0.1245
    131  CA        31.3280   49.0130   14.5890 C.3   153  LEU153      0.1561
    132  C         30.3030   49.6390   15.5320 C.2   153  LEU153      0.2260
    133  O         30.4250   49.5350   16.7500 O.2   153  LEU153     -0.2867
    134  CB        30.7970   47.6680   14.0950 C.3   153  LEU153      0.0270
    135  CG        31.6250   46.9650   13.0180 C.3   153  LEU153      0.0019
    136  CD1       31.1230   45.5350   12.8370 C.3   153  LEU153      0.0001
    137  CD2       31.5260   47.7450   11.7110 C.3   153  LEU153      0.0001
    138  N         34.6840   44.6690   15.9210 N.3   166  GLY166     -0.1210
    139  CA        34.0580   43.9700   14.8130 C.3   166  GLY166      0.1956
    140  C         34.9780   43.1880   13.8950 C.2   166  GLY166      0.2611
    141  O         34.4950   42.4450   13.0410 O.2   166  GLY166     -0.2717
    142  N         36.2900   43.3510   14.0550 N.am  167  ASP167     -0.1973
    143  CA        37.2660   42.6930   13.1820 C.3   167  ASP167      0.1709
    144  C         38.4120   42.1010   13.9990 C.2   167  ASP167      0.2293
    145  O         38.9350   42.7550   14.8990 O.2   167  ASP167     -0.2864
    146  CB        37.8410   43.6970   12.1760 C.3   167  ASP167      0.1436
    147  CG        38.8900   43.0760   11.2600 C.2   167  ASP167      0.3671
    148  OD1       40.0410   42.8580   11.7060 O.co2 167  ASP167     -0.2456
    149  OD2       38.5620   42.8060   10.0870 O.co2 167  ASP167     -0.2456
@<TRIPOS>BOND
     1     2     5    1
     2     2     3    1
     3     2     1    1
     4     5     6    1
     5     3     4    2
     6     6     7    1
     7    22    23    2
     8    22    21    1
     9     7     8    1
    10    12    13    1
    11    21    20    1
    12    20    14   am
    13    27    26    2
    14    24    25    1
    15    14    13    1
    16    14    15    2
    17    13    16    1
    18    26    25    1
    19    34    33    2
    20     8     9    2
    21    10     9    1
    22    25    28    1
    23    31    32    1
    24     9    11    1
    25    16    17    1
    26    33    32    1
    27    47    48    2
    28    47    46    1
    29    17    19    1
    30    17    18    1
    31    28    30    1
    32    28    29    1
    33    35    32    1
    34    35    36    1
    35    38    37   ar
    36    37    36    1
    37    37    39   ar
    38    46    45    1
    39    46    49    1
    40    49    50    1
    41    52    53    1
    42    52    51    1
    43    50    51    1
    44    42    41    1
    45    42    43    2
    46    41    44    1
    47    41    40    1
    48   109   108   ar
    49    84    83    1
    50    85    83    1
    51    83    82    1
    52   108   110   ar
    53   108   107    1
    54    97    96    2
    55   149   147   ar
    56   100    99    1
    57   100   101    1
    58    61    62    1
    59   117   118    1
    60   117   116    1
    61    82    79    1
    62   107   104    1
    63   103   101   am
    64   103   104    1
    65    67    66    1
    66   115   116    1
    67   115   112    1
    68    66    65    1
    69    66    68    1
    70    64    63    2
    71    95    96    1
    72    95    98    1
    73    95    94    1
    74   118   119    2
    75    89    88    2
    76   101   102    2
    77   114   113    2
    78    65    62    1
    79    79    80    1
    80    79    78    1
    81   104   105    1
    82   147   148   ar
    83   147   146    1
    84    62    63    1
    85   106   105    2
    86   119   120    1
    87   119   121    1
    88    63    69   am
    89   112   113    1
    90   112   111    1
    91   137   135    1
    92    88    94   am
    93    88    87    1
    94   128   127    2
    95    86    80   am
    96    86    87    1
    97   113   122   am
    98    80    81    2
    99    78    71   am
   100   146   143    1
   101    72    71    2
   102    71    70    1
   103    87    90    1
   104   136   135    1
   105    69    70    1
   106   127   129   am
   107   127   126    1
   108   135   134    1
   109   141   140    2
   110   122   123    1
   111   143   144    1
   112   143   142    1
   113    90    91    1
   114    70    73    1
   115   123   126    1
   116   123   124    1
   117   140   142   am
   118   140   139    1
   119   144   145    2
   120    91    92    1
   121   134   131    1
   122   124   125    2
   123   131   130    1
   124   131   132    1
   125    60    58    1
   126   139   138    1
   127    73    74    1
   128    93    92    1
   129    59    58    1
   130   132   133    2
   131    74    75    1
   132    58    55    1
   133    75    76   ar
   134    75    77   ar
   135    55    56    1
   136    55    54    1
   137    56    57    2
