@<TRIPOS>MOLECULE
tmp/4ctcA00.pdb
 150 139 0 0 0
SMALL
GASTEIGER

@<TRIPOS>ATOM
      1  N         28.5110   46.1460    0.8380 N.3    29  LEU29      -0.1231
      2  CA        28.7390   47.1240    1.9100 C.3    29  LEU29       0.1693
      3  C         30.1530   47.6670    1.8590 C.2    29  LEU29       0.2592
      4  O         30.4520   48.6970    2.4620 O.2    29  LEU29      -0.2718
      5  CB        28.4610   46.5070    3.2920 C.3    29  LEU29       0.0284
      6  CG        27.0320   46.0860    3.6120 C.3    29  LEU29       0.0019
      7  CD1       26.9820   45.3350    4.9270 C.3    29  LEU29       0.0001
      8  CD2       26.0810   47.2850    3.6300 C.3    29  LEU29       0.0001
      9  N         31.0070   46.9460    1.1480 N.am   30  GLY30      -0.1957
     10  CA        32.4160   47.2570    0.9620 C.3    30  GLY30       0.1869
     11  C         33.2220   45.9980    0.7290 C.2    30  GLY30       0.2309
     12  O         32.7210   44.8920    0.9370 O.2    30  GLY30      -0.2863
     13  N         31.9870   42.2410    1.4270 N.3    33  VAL33      -0.1245
     14  CA        31.0850   42.1760    2.5640 C.3    33  VAL33       0.1561
     15  C         29.7440   42.6470    2.0180 C.2    33  VAL33       0.2260
     16  O         29.6700   43.7080    1.3940 O.2    33  VAL33      -0.2867
     17  CB        31.5640   42.9930    3.8050 C.3    33  VAL33       0.0252
     18  CG1       30.5620   42.8820    4.9540 C.3    33  VAL33       0.0019
     19  CG2       32.9560   42.5320    4.2640 C.3    33  VAL33       0.0019
     20  N         25.3090   43.0160    2.6450 N.3    35  GLU35      -0.1245
     21  CA        24.2170   43.0200    3.6010 C.3    35  GLU35       0.1567
     22  C         23.3490   41.8780    3.0810 C.2    35  GLU35       0.2260
     23  O         23.1370   41.7750    1.8740 O.2    35  GLU35      -0.2867
     24  CB        23.4260   44.3250    3.5670 C.3    35  GLU35       0.0388
     25  CG        22.2060   44.2690    4.4690 C.3    35  GLU35       0.1160
     26  CD        21.2530   45.4300    4.3120 C.2    35  GLU35       0.3649
     27  OE1       21.6980   46.5130    3.8710 O.co2  35  GLU35      -0.2457
     28  OE2       20.0560   45.2500    4.6270 O.co2  35  GLU35      -0.2457
     29  N         25.3300   40.7020    8.0210 N.3    43  ALA43      -0.1245
     30  CA        26.4690   41.1910    7.2590 C.3    43  ALA43       0.1562
     31  C         27.1690   39.9010    6.8310 C.2    43  ALA43       0.2260
     32  O         27.4380   39.0280    7.6600 O.2    43  ALA43      -0.2867
     33  CB        27.3780   42.0350    8.1190 C.3    43  ALA43       0.0290
     34  N         30.2870   38.1270    5.2970 N.3    45  LYS45      -0.1245
     35  CA        31.7160   38.1420    5.0220 C.3    45  LYS45       0.1561
     36  C         31.9510   36.9680    4.0560 C.2    45  LYS45       0.2260
     37  O         31.5950   35.8280    4.3650 O.2    45  LYS45      -0.2867
     38  CB        32.5130   38.0000    6.3320 C.3    45  LYS45       0.0271
     39  CG        33.9930   38.2120    6.1720 C.3    45  LYS45       0.0035
     40  CD        34.6270   38.8080    7.4170 C.3    45  LYS45       0.0206
     41  CE        36.0300   39.3000    7.1230 C.3    45  LYS45       0.1093
     42  NZ        36.0500   40.3900    6.0990 N.3    45  LYS45      -0.1314
     43  N         30.8020   41.4750   18.2520 N.3    75  VAL75      -0.1245
     44  CA        29.8380   41.1680   17.1900 C.3    75  VAL75       0.1561
     45  C         29.3860   39.6820   17.2270 C.2    75  VAL75       0.2260
     46  O         30.2040   38.7820   17.3860 O.2    75  VAL75      -0.2867
     47  CB        30.3550   41.6100   15.7910 C.3    75  VAL75       0.0252
     48  CG1       31.4640   40.6880   15.2640 C.3    75  VAL75       0.0019
     49  CG2       29.2130   41.7420   14.7810 C.3    75  VAL75       0.0019
     50  N         27.4130   37.5010   10.0940 N.3    91  LEU91      -0.1231
     51  CA        27.4920   38.3100   11.3040 C.3    91  LEU91       0.1693
     52  C         26.2710   39.1600   11.4900 C.2    91  LEU91       0.2592
     53  O         25.6060   39.5280   10.5280 O.2    91  LEU91      -0.2718
     54  CB        28.7220   39.2570   11.2400 C.3    91  LEU91       0.0284
     55  CG        30.1020   38.6440   10.9710 C.3    91  LEU91       0.0019
     56  CD1       31.1530   39.7480   10.8570 C.3    91  LEU91       0.0001
     57  CD2       30.5030   37.6500   12.0830 C.3    91  LEU91       0.0001
     58  N         26.0550   39.5670   12.7330 N.am   92  GLU92      -0.1966
     59  CA        25.0520   40.5240   13.1930 C.3    92  GLU92       0.1733
     60  C         25.2300   41.8130   12.3350 C.2    92  GLU92       0.2616
     61  O         26.3500   42.3120   12.2260 O.2    92  GLU92      -0.2715
     62  CB        25.4170   40.8070   14.6630 C.3    92  GLU92       0.0429
     63  CG        24.5040   41.7140   15.4500 C.3    92  GLU92       0.1163
     64  CD        25.0140   42.0300   16.8430 C.2    92  GLU92       0.3649
     65  OE1       26.1770   41.6970   17.1680 O.co2  92  GLU92      -0.2457
     66  OE2       24.2760   42.7210   17.5770 O.co2  92  GLU92      -0.2457
     67  N         24.1530   42.3030   11.6810 N.am   93  LEU93      -0.1963
     68  CA        24.2480   43.5160   10.8730 C.3    93  LEU93       0.1728
     69  C         24.2510   44.7350   11.8090 C.2    93  LEU93       0.2616
     70  O         23.2960   44.9710   12.5530 O.2    93  LEU93      -0.2715
     71  CB        23.1350   43.6000    9.7950 C.3    93  LEU93       0.0311
     72  CG        23.1300   44.8550    8.8800 C.3    93  LEU93       0.0022
     73  CD1       24.2820   44.8390    7.8620 C.3    93  LEU93       0.0001
     74  CD2       21.8010   44.9870    8.1580 C.3    93  LEU93       0.0001
     75  N         25.3660   45.4590   11.8170 N.am   94  MET94      -0.1963
     76  CA        25.5360   46.6120   12.6950 C.3    94  MET94       0.1736
     77  C         25.2230   47.8520   11.8840 C.2    94  MET94       0.2616
     78  O         26.0660   48.3080   11.1210 O.2    94  MET94      -0.2715
     79  CB        26.9570   46.5890   13.2820 C.3    94  MET94       0.0427
     80  CG        27.2160   45.3460   14.1520 C.3    94  MET94       0.0599
     81  SD        26.5850   45.5020   15.8400 S.3    94  MET94      -0.1393
     82  CE        24.9800   45.2060   15.6270 C.3    94  MET94       0.0692
     83  N         23.9610   48.3410   11.9920 N.am   95  ALA95      -0.1977
     84  CA        23.4040   49.4730   11.2380 C.3    95  ALA95       0.1597
     85  C         24.2180   50.7640   11.3110 C.2    95  ALA95       0.2287
     86  O         24.1510   51.5710   10.3920 O.2    95  ALA95      -0.2864
     87  CB        21.9590   49.7290   11.6560 C.3    95  ALA95       0.0319
     88  N         27.4230   50.8140   11.1850 N.3    97  GLY97      -0.1210
     89  CA        28.6360   50.5600   10.4180 C.3    97  GLY97       0.1956
     90  C         29.8970   50.5860   11.2770 C.2    97  GLY97       0.2611
     91  O         29.8190   50.5010   12.5040 O.2    97  GLY97      -0.2717
     92  N         31.0630   50.7290   10.6420 N.am   98  ASP98      -0.1973
     93  CA        32.3330   50.7820   11.3720 C.3    98  ASP98       0.1709
     94  C         32.5040   52.1160   12.1150 C.2    98  ASP98       0.2293
     95  O         31.9430   53.1330   11.7030 O.2    98  ASP98      -0.2864
     96  CB        33.5340   50.4420   10.4810 C.3    98  ASP98       0.1436
     97  CG        33.9050   51.5340    9.5020 C.2    98  ASP98       0.3671
     98  OD1       33.2400   51.6370    8.4530 O.co2  98  ASP98      -0.2456
     99  OD2       34.8770   52.2600    9.7730 O.co2  98  ASP98      -0.2456
    100  N         34.4810   55.1810   10.0370 N.3   101  SER101     -0.1217
    101  CA        33.5740   55.8620    9.1000 C.3   101  SER101      0.1889
    102  C         32.5230   56.6620    9.8640 C.2   101  SER101      0.2288
    103  O         32.2030   57.7750    9.4660 O.2   101  SER101     -0.2866
    104  CB        32.8570   54.8530    8.2110 C.3   101  SER101      0.2089
    105  OG        33.7880   54.1500    7.4090 O.3   101  SER101     -0.2183
    106  N         38.7510   51.1360   12.9490 N.3   148  ARG148     -0.1231
    107  CA        38.3860   50.3970   11.7270 C.3   148  ARG148      0.1694
    108  C         37.8560   48.9690   12.0190 C.2   148  ARG148      0.2592
    109  O         37.1620   48.3850   11.1740 O.2   148  ARG148     -0.2718
    110  CB        39.5800   50.3510   10.7320 C.3   148  ARG148      0.0321
    111  CG        40.7140   49.4070   11.1550 C.3   148  ARG148      0.0489
    112  CD        41.9270   49.4230   10.2350 C.3   148  ARG148      0.2205
    113  NE        43.0960   48.8210   10.8900 N.pl3 148  ARG148     -0.0865
    114  CZ        43.9130   49.4850   11.7060 C.cat 148  ARG148      0.5346
    115  NH1       43.7050   50.7670   11.9630 N.pl3 148  ARG148      0.1354
    116  NH2       44.9410   48.8710   12.2740 N.pl3 148  ARG148      0.1354
    117  N         38.1840   48.4250   13.2130 N.am  149  ASN149     -0.1960
    118  CA        37.8230   47.0670   13.6280 C.3   149  ASN149      0.1819
    119  C         36.6310   47.0220   14.5950 C.2   149  ASN149      0.2621
    120  O         36.2720   45.9490   15.0800 O.2   149  ASN149     -0.2715
    121  CB        39.0650   46.3570   14.1960 C.3   149  ASN149      0.1195
    122  CG        40.1190   46.1300   13.1380 C.2   149  ASN149      0.2630
    123  OD1       39.8240   46.0220   11.9360 O.2   149  ASN149     -0.2716
    124  ND2       41.3780   46.0520   13.5530 N.am  149  ASN149     -0.0877
    125  N         36.0250   48.1860   14.8680 N.am  150  CYS150     -0.1954
    126  CA        34.8630   48.2930   15.7440 C.3   150  CYS150      0.1843
    127  C         33.6160   48.6350   14.9300 C.2   150  CYS150      0.2625
    128  O         33.7250   49.2970   13.9020 O.2   150  CYS150     -0.2714
    129  CB        35.1100   49.3160   16.8460 C.3   150  CYS150      0.0997
    130  SG        36.5560   48.9470   17.8730 S.3   150  CYS150     -0.0797
    131  N         32.4460   48.1950   15.4000 N.am  151  LEU151     -0.1977
    132  CA        31.1560   48.4340   14.7390 C.3   151  LEU151      0.1596
    133  C         30.1480   49.0310   15.7130 C.2   151  LEU151      0.2287
    134  O         30.3130   48.9090   16.9240 O.2   151  LEU151     -0.2864
    135  CB        30.5960   47.1180   14.1450 C.3   151  LEU151      0.0297
    136  CG        31.3600   46.4530   13.0080 C.3   151  LEU151      0.0022
    137  CD1       31.0000   44.9600   12.9200 C.3   151  LEU151      0.0001
    138  CD2       31.0720   47.1260   11.6720 C.3   151  LEU151      0.0001
    139  N         34.4060   44.1110   16.0410 N.3   164  GLY164     -0.1210
    140  CA        33.8160   43.3880   14.9210 C.3   164  GLY164      0.1956
    141  C         34.7350   42.5910   14.0370 C.2   164  GLY164      0.2611
    142  O         34.2570   41.8040   13.2230 O.2   164  GLY164     -0.2717
    143  N         36.0360   42.8120   14.1460 N.am  165  ASP165     -0.1973
    144  CA        37.0070   42.1370   13.2940 C.3   165  ASP165      0.1709
    145  C         38.0950   41.4770   14.1210 C.2   165  ASP165      0.2293
    146  O         38.6480   42.1160   15.0060 O.2   165  ASP165     -0.2864
    147  CB        37.6340   43.1310   12.3010 C.3   165  ASP165      0.1436
    148  CG        38.6620   42.4760   11.3900 C.2   165  ASP165      0.3671
    149  OD1       39.8220   42.2960   11.8290 O.co2 165  ASP165     -0.2456
    150  OD2       38.2990   42.1070   10.2700 O.co2 165  ASP165     -0.2456
@<TRIPOS>BOND
     1    11    12    2
     2    11    10    1
     3     1     2    1
     4    10     9    1
     5     9     3   am
     6    16    15    2
     7    13    14    1
     8     3     2    1
     9     3     4    2
    10    23    22    2
    11     2     5    1
    12    15    14    1
    13    14    17    1
    14    20    21    1
    15    22    21    1
    16     5     6    1
    17    24    21    1
    18    24    25    1
    19     6     8    1
    20     6     7    1
    21    17    19    1
    22    17    18    1
    23    27    26   ar
    24    36    37    2
    25    36    35    1
    26    26    25    1
    27    26    28   ar
    28    35    34    1
    29    35    38    1
    30    42    41    1
    31    39    38    1
    32    39    40    1
    33    31    30    1
    34    31    32    2
    35    41    40    1
    36    30    29    1
    37    30    33    1
    38   105   104    1
    39    73    72    1
    40    74    72    1
    41   104   101    1
    42    98    97   ar
    43    72    71    1
    44   101   102    1
    45   101   100    1
    46   103   102    2
    47    97    99   ar
    48    97    96    1
    49    71    68    1
    50    50    51    1
    51   112   113    1
    52   112   111    1
    53   150   148   ar
    54    86    85    2
    55    89    88    1
    56    89    90    1
    57    96    93    1
    58    53    52    2
    59    92    90   am
    60    92    93    1
    61   110   111    1
    62   110   107    1
    63    56    55    1
    64    68    67    1
    65    68    69    1
    66   113   114    2
    67    55    54    1
    68    55    57    1
    69    78    77    2
    70   109   108    2
    71    84    85    1
    72    84    87    1
    73    84    83    1
    74    54    51    1
    75    90    91    2
    76    51    52    1
    77    93    94    1
    78   148   149   ar
    79   148   147    1
    80    52    58   am
    81   138   136    1
    82    67    60   am
    83    95    94    2
    84   114   115    1
    85   114   116    1
    86   107   108    1
    87   107   106    1
    88    69    75   am
    89    69    70    2
    90    75    76    1
    91    77    83   am
    92    77    76    1
    93   123   122    2
    94   108   117   am
    95    61    60    2
    96   147   144    1
    97    60    59    1
    98    76    79    1
    99    58    59    1
   100   137   136    1
   101   136   135    1
   102   122   124   am
   103   122   121    1
   104    59    62    1
   105   117   118    1
   106   142   141    2
   107    79    80    1
   108   144   145    1
   109   144   143    1
   110   118   121    1
   111   118   119    1
   112   128   127    2
   113   141   143   am
   114   141   140    1
   115   145   146    2
   116   135   132    1
   117    80    81    1
   118   119   125   am
   119   119   120    2
   120    62    63    1
   121   132   131    1
   122   132   133    1
   123    49    47    1
   124   125   126    1
   125   140   139    1
   126   127   131   am
   127   127   126    1
   128    48    47    1
   129    63    64    1
   130    82    81    1
   131   133   134    2
   132   126   129    1
   133    47    44    1
   134    64    65   ar
   135    64    66   ar
   136   129   130    1
   137    44    45    1
   138    44    43    1
   139    45    46    2
