@<TRIPOS>MOLECULE
tmp/4ctdA01.pdb
 82 79 0 0 0
SMALL
GASTEIGER

@<TRIPOS>ATOM
      1  N        -20.7420  -12.3750   -5.1600 N.3     8  ILE8       -0.1231
      2  CA       -21.3200  -12.1250   -3.8660 C.3     8  ILE8        0.1692
      3  C        -21.6080  -13.5010   -3.3220 C.2     8  ILE8        0.2593
      4  O        -21.8530  -14.4190   -4.0760 O.2     8  ILE8       -0.2718
      5  CB       -22.6170  -11.3050   -3.9650 C.3     8  ILE8        0.0266
      6  CG1      -23.7900  -12.2080   -4.3480 C.3     8  ILE8        0.0019
      7  CG2      -22.4560  -10.1720   -4.9590 C.3     8  ILE8        0.0020
      8  CD1      -25.0930  -11.4730   -4.5350 C.3     8  ILE8        0.0001
      9  N        -21.5540  -13.6680   -2.0130 N.am    9  GLY9       -0.1942
     10  CA       -21.7970  -14.9770   -1.4510 C.3     9  GLY9        0.2014
     11  C        -21.8680  -14.9070    0.0410 C.2     9  GLY9        0.2638
     12  O        -21.5810  -13.8840    0.6310 O.2     9  GLY9       -0.2714
     13  N        -22.2630  -16.0060    0.6520 N.am   10  ALA10      -0.1977
     14  CA       -22.3370  -16.0760    2.0950 C.3    10  ALA10       0.1597
     15  C        -22.0700  -17.5100    2.5310 C.2    10  ALA10       0.2287
     16  O        -22.1540  -18.4420    1.7390 O.2    10  ALA10      -0.2864
     17  CB       -23.6940  -15.6070    2.5830 C.3    10  ALA10       0.0319
     18  N        -20.9350  -12.9700    5.2710 N.3    25  VAL25      -0.1231
     19  CA       -21.4420  -12.3670    4.0620 C.3    25  VAL25       0.1692
     20  C        -20.2520  -11.6990    3.4030 C.2    25  VAL25       0.2592
     21  O        -19.4150  -11.1180    4.0700 O.2    25  VAL25      -0.2718
     22  CB       -22.5360  -11.3450    4.3880 C.3    25  VAL25       0.0266
     23  CG1      -22.5670  -10.2520    3.3530 C.3    25  VAL25       0.0020
     24  CG2      -23.8870  -12.0440    4.5010 C.3    25  VAL25       0.0020
     25  N        -20.1410  -11.8160    2.0930 N.am   26  TYR26      -0.1962
     26  CA       -19.0060  -11.2290    1.4130 C.3    26  TYR26       0.1771
     27  C        -19.3930  -10.9010    0.0040 C.2    26  TYR26       0.2619
     28  O        -20.3180  -11.4950   -0.5460 O.2    26  TYR26      -0.2715
     29  CB       -17.8410  -12.2230    1.3730 C.3    26  TYR26       0.0574
     30  CG       -18.1010  -13.4040    0.4560 C.ar   26  TYR26      -0.0198
     31  CD1      -17.9710  -13.2920   -0.9250 C.ar   26  TYR26      -0.0009
     32  CD2      -18.4830  -14.6290    0.9680 C.ar   26  TYR26      -0.0009
     33  CE1      -18.2230  -14.3700   -1.7590 C.ar   26  TYR26       0.0417
     34  CE2      -18.7310  -15.7060    0.1370 C.ar   26  TYR26       0.0417
     35  CZ       -18.5990  -15.5730   -1.2190 C.ar   26  TYR26       0.1957
     36  OH       -18.8580  -16.6600   -2.0250 O.3    26  TYR26      -0.2866
     37  N        -18.6810   -9.9470   -0.5810 N.am   27  PHE27      -0.1974
     38  CA       -18.7950   -9.6930   -2.0050 C.3    27  PHE27       0.1639
     39  C        -17.5480   -8.9660   -2.5230 C.2    27  PHE27       0.2290
     40  O        -16.8520   -8.2900   -1.7650 O.2    27  PHE27      -0.2864
     41  CB       -20.1390   -9.0140   -2.2750 C.3    27  PHE27       0.0560
     42  CG       -20.0570   -7.6480   -2.8490 C.ar   27  PHE27      -0.0200
     43  CD1      -19.7550   -6.5570   -2.0510 C.ar   27  PHE27      -0.0042
     44  CD2      -20.3560   -7.4460   -4.1850 C.ar   27  PHE27      -0.0042
     45  CE1      -19.7130   -5.2870   -2.5880 C.ar   27  PHE27      -0.0003
     46  CE2      -20.3160   -6.1880   -4.7320 C.ar   27  PHE27      -0.0003
     47  CZ       -19.9940   -5.1000   -3.9330 C.ar   27  PHE27      -0.0000
     48  N        -24.5870  -21.5820  -13.9340 N.3   205  ASN205     -0.1240
     49  CA       -25.2510  -20.2830  -14.1120 C.3   205  ASN205      0.1653
     50  C        -24.6540  -19.1140  -13.3210 C.2   205  ASN205      0.2266
     51  O        -25.1590  -17.9930  -13.3960 O.2   205  ASN205     -0.2867
     52  CB       -26.7260  -20.4050  -13.7700 C.3   205  ASN205      0.1155
     53  CG       -26.9460  -20.8290  -12.3320 C.2   205  ASN205      0.2627
     54  OD1      -26.0940  -20.5990  -11.4750 O.2   205  ASN205     -0.2716
     55  ND2      -28.0880  -21.4530  -12.0570 N.am  205  ASN205     -0.0877
     56  N        -24.1940  -19.5400   -9.9670 N.3   207  LEU207     -0.1245
     57  CA       -24.4450  -20.0190   -8.6280 C.3   207  LEU207      0.1561
     58  C        -23.5680  -21.2370   -8.3080 C.2   207  LEU207      0.2260
     59  O        -23.3400  -22.1020   -9.1620 O.2   207  LEU207     -0.2867
     60  CB       -25.9200  -20.3720   -8.4810 C.3   207  LEU207      0.0270
     61  CG       -26.3910  -20.7460   -7.0780 C.3   207  LEU207      0.0019
     62  CD1      -25.8920  -19.7260   -6.0710 C.3   207  LEU207      0.0001
     63  CD2      -27.9160  -20.8600   -7.0380 C.3   207  LEU207      0.0001
     64  N        -22.7280  -20.2450   -0.3300 N.3   228  VAL228     -0.1245
     65  CA       -23.2340  -20.0220   -1.6550 C.3   228  VAL228      0.1561
     66  C        -22.4710  -18.8380   -2.2330 C.2   228  VAL228      0.2260
     67  O        -22.0480  -17.9350   -1.5060 O.2   228  VAL228     -0.2867
     68  CB       -24.7250  -19.7140   -1.6050 C.3   228  VAL228      0.0252
     69  CG1      -24.9590  -18.4280   -0.8290 C.3   228  VAL228      0.0019
     70  CG2      -25.3020  -19.6360   -3.0160 C.3   228  VAL228      0.0019
     71  N        -22.4690  -16.3570   -5.9690 N.3   230  TYR230     -0.1241
     72  CA       -22.9790  -16.0060   -7.2740 C.3   230  TYR230      0.1605
     73  C        -22.0070  -15.0890   -8.0270 C.2   230  TYR230      0.2264
     74  O        -21.5660  -14.0210   -7.5440 O.2   230  TYR230     -0.2867
     75  CB       -24.3800  -15.3870   -7.1850 C.3   230  TYR230      0.0534
     76  CG       -24.9460  -15.0200   -8.5380 C.ar  230  TYR230     -0.0201
     77  CD1      -25.2360  -16.0020   -9.4830 C.ar  230  TYR230     -0.0009
     78  CD2      -25.1810  -13.6940   -8.8760 C.ar  230  TYR230     -0.0009
     79  CE1      -25.7410  -15.6690  -10.7230 C.ar  230  TYR230      0.0417
     80  CE2      -25.6830  -13.3560  -10.1170 C.ar  230  TYR230      0.0417
     81  CZ       -25.9610  -14.3470  -11.0340 C.ar  230  TYR230      0.1957
     82  OH       -26.4610  -14.0110  -12.2680 O.3   230  TYR230     -0.2866
@<TRIPOS>BOND
     1    49    48    1
     2    49    52    1
     3    49    50    1
     4    52    53    1
     5    51    50    2
     6    53    55   am
     7    53    54    2
     8    82    81    1
     9    81    79   ar
    10    81    80   ar
    11    79    77   ar
    12    80    78   ar
    13    56    57    1
    14    77    76   ar
    15    59    58    2
    16    78    76   ar
    17    57    60    1
    18    57    58    1
    19    76    75    1
    20    60    61    1
    21    73    74    2
    22    73    72    1
    23    72    75    1
    24    72    71    1
    25    61    63    1
    26    61    62    1
    27     1     2    1
    28     7     5    1
    29    46    44   ar
    30    46    47   ar
    31     8     6    1
    32     6     5    1
    33    44    42   ar
    34     4     3    2
    35     5     2    1
    36    47    45   ar
    37     2     3    1
    38     3     9   am
    39    70    68    1
    40    42    41    1
    41    42    43   ar
    42    45    43   ar
    43    39    38    1
    44    39    40    2
    45    41    38    1
    46    66    65    1
    47    66    67    2
    48    36    35    1
    49     9    10    1
    50    38    37    1
    51    33    35   ar
    52    33    31   ar
    53    65    68    1
    54    65    64    1
    55    68    69    1
    56    10    11    1
    57    35    34   ar
    58    31    30   ar
    59    37    27   am
    60    28    27    2
    61    27    26    1
    62    11    12    2
    63    11    13   am
    64    34    32   ar
    65    30    32   ar
    66    30    29    1
    67    13    14    1
    68    29    26    1
    69    26    25    1
    70    16    15    2
    71    25    20   am
    72    14    15    1
    73    14    17    1
    74    23    22    1
    75    20    19    1
    76    20    21    2
    77    19    22    1
    78    19    18    1
    79    22    24    1
