@<TRIPOS>MOLECULE
tmp/4cteB01.pdb
 150 150 0 0 0
SMALL
GASTEIGER

@<TRIPOS>ATOM
      1  N         25.0340   70.1680   75.4690 N.3    26  TYR26      -0.1227
      2  CA        26.1870   69.2660   75.4320 C.3    26  TYR26       0.1736
      3  C         25.7140   67.8070   75.4700 C.2    26  TYR26       0.2595
      4  O         25.1180   67.4100   76.4650 O.2    26  TYR26      -0.2718
      5  CB        27.1430   69.6170   76.5940 C.3    26  TYR26       0.0548
      6  CG        28.2470   68.5650   76.7600 C.ar   26  TYR26      -0.0200
      7  CD1       29.1720   68.2940   75.7100 C.ar   26  TYR26      -0.0009
      8  CD2       28.3950   67.8520   77.9640 C.ar   26  TYR26      -0.0009
      9  CE1       30.1820   67.3240   75.8480 C.ar   26  TYR26       0.0417
     10  CE2       29.4360   66.8960   78.1140 C.ar   26  TYR26       0.0417
     11  CZ        30.3170   66.6350   77.0540 C.ar   26  TYR26       0.1957
     12  OH        31.3280   65.6630   77.1890 O.3    26  TYR26      -0.2866
     13  N         25.9470   67.0200   74.3860 N.am   27  ASN27      -0.1974
     14  CA        25.4930   65.6190   74.3240 C.3    27  ASN27       0.1688
     15  C         23.9950   65.4860   74.6200 C.2    27  ASN27       0.2292
     16  O         23.5350   64.7380   75.4590 O.2    27  ASN27      -0.2864
     17  CB        26.3590   64.7420   75.2190 C.3    27  ASN27       0.1181
     18  CG        27.7330   64.4650   74.5830 C.2    27  ASN27       0.2629
     19  OD1       28.0110   64.8620   73.4510 O.2    27  ASN27      -0.2716
     20  ND2       28.5380   63.7380   75.2850 N.am   27  ASN27      -0.0877
     21  N         21.8060   67.9280   75.8460 N.3    29  TRP29      -0.1227
     22  CA        21.4840   68.4880   77.1840 C.3    29  TRP29       0.1737
     23  C         21.8970   67.5600   78.3170 C.2    29  TRP29       0.2596
     24  O         21.1890   67.4100   79.3170 O.2    29  TRP29      -0.2718
     25  CB        19.9820   68.8760   77.2320 C.3    29  TRP29       0.0564
     26  CG        19.8140   70.0240   76.2910 C.ar   29  TRP29       0.0003
     27  CD1       19.4220   70.0110   74.9690 C.ar   29  TRP29       0.0946
     28  CD2       20.0700   71.4070   76.5960 C.ar   29  TRP29       0.0152
     29  NE1       19.4000   71.3080   74.4920 N.ar   29  TRP29      -0.2442
     30  CE2       19.8170   72.1470   75.3870 C.ar   29  TRP29       0.0810
     31  CE3       20.5190   72.0940   77.7420 C.ar   29  TRP29       0.0012
     32  CZ2       19.9800   73.5510   75.3120 C.ar   29  TRP29       0.0191
     33  CZ3       20.6520   73.4780   77.6710 C.ar   29  TRP29       0.0001
     34  CH2       20.4150   74.1950   76.4570 C.ar   29  TRP29       0.0015
     35  N         23.0050   66.8510   78.1040 N.am   30  GLY30      -0.1942
     36  CA        23.5840   66.0020   79.0930 C.3    30  GLY30       0.2014
     37  C         22.8980   64.6420   79.2150 C.2    30  GLY30       0.2638
     38  O         23.2950   63.8440   80.0540 O.2    30  GLY30      -0.2714
     39  N         21.8770   64.3680   78.4040 N.am   31  ASN31      -0.1972
     40  CA        21.1370   63.0920   78.5260 C.3    31  ASN31       0.1688
     41  C         20.8740   62.4220   77.1940 C.2    31  ASN31       0.2292
     42  O         19.9240   61.6250   77.1080 O.2    31  ASN31      -0.2864
     43  CB        19.7820   63.3330   79.2080 C.3    31  ASN31       0.1181
     44  CG        19.9140   63.8820   80.6270 C.2    31  ASN31       0.2629
     45  OD1       20.3760   63.2460   81.4910 O.2    31  ASN31      -0.2716
     46  ND2       19.5150   65.0790   80.8150 N.am   31  ASN31      -0.0877
     47  N         12.8390   75.2550   75.6240 N.3    67  ARG67      -0.1245
     48  CA        13.3320   75.1050   76.9780 C.3    67  ARG67       0.1563
     49  C         13.5520   76.5390   77.3830 C.2    67  ARG67       0.2260
     50  O         14.2720   77.2820   76.7010 O.2    67  ARG67      -0.2867
     51  CB        14.6650   74.4130   77.0000 C.3    67  ARG67       0.0307
     52  CG        15.3280   74.4700   78.3760 C.3    67  ARG67       0.0489
     53  CD        16.4330   73.4440   78.4160 C.3    67  ARG67       0.2205
     54  NE        17.3590   73.6390   79.5570 N.pl3  67  ARG67      -0.0865
     55  CZ        18.1400   72.6610   80.1120 C.cat  67  ARG67       0.5346
     56  NH1       18.0490   71.3480   79.7660 N.pl3  67  ARG67       0.1354
     57  NH2       19.0350   72.9740   81.0490 N.pl3  67  ARG67       0.1354
     58  N          9.3580   63.9530   77.0510 N.3    94  TRP94      -0.1241
     59  CA         9.9720   64.1320   78.3750 C.3    94  TRP94       0.1605
     60  C          9.8480   65.5930   78.8600 C.2    94  TRP94       0.2264
     61  O         10.8440   66.3690   78.8180 O.2    94  TRP94      -0.2867
     62  CB        11.4070   63.6730   78.2620 C.3    94  TRP94       0.0550
     63  CG        12.2060   63.6420   79.5460 C.ar   94  TRP94       0.0003
     64  CD1       11.7500   63.7360   80.8600 C.ar   94  TRP94       0.0946
     65  CD2       13.6240   63.3760   79.6310 C.ar   94  TRP94       0.0152
     66  NE1       12.8060   63.6560   81.7360 N.ar   94  TRP94      -0.2442
     67  CE2       13.9630   63.3880   81.0420 C.ar   94  TRP94       0.0810
     68  CE3       14.6510   63.1750   78.6670 C.ar   94  TRP94       0.0012
     69  CZ2       15.2650   63.1770   81.4830 C.ar   94  TRP94       0.0191
     70  CZ3       15.9640   62.9570   79.1200 C.ar   94  TRP94       0.0001
     71  CH2       16.2610   62.9650   80.4990 C.ar   94  TRP94       0.0015
     72  N         11.2210   72.5110   86.6380 N.3    98  TRP98      -0.1241
     73  CA        12.3410   72.2290   87.5240 C.3    98  TRP98       0.1605
     74  C         13.1510   73.4390   87.8500 C.2    98  TRP98       0.2264
     75  O         12.8090   74.5490   87.4110 O.2    98  TRP98      -0.2867
     76  CB        13.1990   71.0700   86.9220 C.3    98  TRP98       0.0550
     77  CG        13.6710   71.2590   85.4750 C.ar   98  TRP98       0.0003
     78  CD1       12.8850   71.4520   84.3050 C.ar   98  TRP98       0.0946
     79  CD2       15.0490   71.2050   85.0090 C.ar   98  TRP98       0.0152
     80  NE1       13.6870   71.5130   83.1810 N.ar   98  TRP98      -0.2442
     81  CE2       15.0030   71.3460   83.5390 C.ar   98  TRP98       0.0810
     82  CE3       16.3000   70.9740   85.6400 C.ar   98  TRP98       0.0012
     83  CZ2       16.1580   71.2940   82.7610 C.ar   98  TRP98       0.0191
     84  CZ3       17.4710   70.9110   84.8200 C.ar   98  TRP98       0.0001
     85  CH2       17.3960   71.0960   83.4130 C.ar   98  TRP98       0.0015
     86  N         17.3190   74.9700   89.0460 N.3   100  LEU100     -0.1245
     87  CA        18.7600   74.7290   89.1550 C.3   100  LEU100      0.1561
     88  C         19.3940   75.8510   89.9570 C.2   100  LEU100      0.2260
     89  O         18.8900   77.0110   89.9100 O.2   100  LEU100     -0.2867
     90  CB        19.4100   74.6980   87.7820 C.3   100  LEU100      0.0270
     91  CG        19.1390   73.5670   86.8020 C.3   100  LEU100      0.0019
     92  CD1       19.6010   73.8530   85.3520 C.3   100  LEU100      0.0001
     93  CD2       19.8620   72.3740   87.4290 C.3   100  LEU100      0.0001
     94  N         25.2920   77.1900   89.0130 N.3   104  ILE104     -0.1245
     95  CA        25.6070   76.2770   87.9090 C.3   104  ILE104      0.1561
     96  C         26.7290   76.9100   87.0470 C.2   104  ILE104      0.2260
     97  O         27.5980   76.2470   86.4960 O.2   104  ILE104     -0.2867
     98  CB        24.3680   75.9020   87.0720 C.3   104  ILE104      0.0252
     99  CG1       24.6960   74.7130   86.1070 C.3   104  ILE104      0.0019
    100  CG2       23.7560   77.0980   86.3020 C.3   104  ILE104      0.0019
    101  CD1       23.4530   74.1550   85.3670 C.3   104  ILE104      0.0001
    102  N         28.8710   74.1240   88.0420 N.3   108  SER108     -0.1202
    103  CA        28.3390   73.1760   87.0290 C.3   108  SER108      0.2020
    104  C         27.1910   72.3150   87.6330 C.2   108  SER108      0.2618
    105  O         26.8210   72.4820   88.8130 O.2   108  SER108     -0.2717
    106  CB        29.5190   72.4030   86.4250 C.3   108  SER108      0.2103
    107  OG        29.1250   71.8350   85.2080 O.3   108  SER108     -0.2182
    108  N         26.9230   71.2140   86.9410 N.am  109  TRP109     -0.1975
    109  CA        25.8880   70.2850   87.3500 C.3   109  TRP109      0.1640
    110  C         26.5900   68.9730   87.6130 C.2   109  TRP109      0.2290
    111  O         27.4160   68.5740   86.7950 O.2   109  TRP109     -0.2864
    112  CB        24.9100   70.1870   86.2230 C.3   109  TRP109      0.0576
    113  CG        23.7210   69.4020   86.5710 C.ar  109  TRP109      0.0006
    114  CD1       22.4930   69.8610   87.0610 C.ar  109  TRP109      0.0946
    115  CD2       23.6230   67.9500   86.5360 C.ar  109  TRP109      0.0152
    116  NE1       21.6510   68.7920   87.2980 N.ar  109  TRP109     -0.2442
    117  CE2       22.2670   67.6190   87.0090 C.ar  109  TRP109      0.0810
    118  CE3       24.5090   66.9110   86.1650 C.ar  109  TRP109      0.0012
    119  CZ2       21.8160   66.2930   87.0930 C.ar  109  TRP109      0.0191
    120  CZ3       24.0420   65.5600   86.2440 C.ar  109  TRP109      0.0001
    121  CH2       22.7160   65.2710   86.6980 C.ar  109  TRP109      0.0015
    122  N         19.7070   70.5270   91.8770 N.3   114  GLU114     -0.1245
    123  CA        18.6000   70.5100   90.9820 C.3   114  GLU114      0.1567
    124  C         17.3770   70.0680   91.7250 C.2   114  GLU114      0.2260
    125  O         17.4040   69.0070   92.3730 O.2   114  GLU114     -0.2867
    126  CB        18.8610   69.6210   89.7600 C.3   114  GLU114      0.0388
    127  CG        17.6530   69.4400   88.8010 C.3   114  GLU114      0.1160
    128  CD        17.9610   68.4870   87.6540 C.2   114  GLU114      0.3649
    129  OE1       19.1260   68.2890   87.2920 O.co2 114  GLU114     -0.2457
    130  OE2       17.0260   67.9590   87.0420 O.co2 114  GLU114     -0.2457
    131  N         18.8340   66.3770   92.4600 N.3   132  HIS132     -0.1241
    132  CA        20.1440   65.9130   91.9870 C.3   132  HIS132      0.1621
    133  C         21.1310   66.8510   92.5750 C.2   132  HIS132      0.2264
    134  O         20.8870   68.0960   92.6490 O.2   132  HIS132     -0.2867
    135  CB        20.2910   65.8460   90.4530 C.3   132  HIS132      0.0745
    136  CG        19.3210   64.9240   89.7750 C.ar  132  HIS132      0.0817
    137  ND1       19.6250   63.6310   89.5140 N.ar  132  HIS132     -0.2268
    138  CD2       18.0380   65.1390   89.2770 C.ar  132  HIS132      0.1154
    139  CE1       18.5830   63.0460   88.8980 C.ar  132  HIS132      0.1986
    140  NE2       17.6140   63.9800   88.7480 N.ar  132  HIS132     -0.2212
    141  N         27.8470   62.2100   91.8030 N.3   140  HIS140     -0.1241
    142  CA        26.4680   62.4730   91.4040 C.3   140  HIS140      0.1621
    143  C         25.5670   61.8170   92.4360 C.2   140  HIS140      0.2264
    144  O         25.8630   60.7470   92.8720 O.2   140  HIS140     -0.2867
    145  CB        26.2600   61.9150   89.9990 C.3   140  HIS140      0.0745
    146  CG        26.9410   62.7220   88.8870 C.ar  140  HIS140      0.0817
    147  ND1       26.4480   62.7720   87.6280 N.ar  140  HIS140     -0.2268
    148  CD2       28.0780   63.5260   88.8880 C.ar  140  HIS140      0.1154
    149  CE1       27.2350   63.5420   86.8570 C.ar  140  HIS140      0.1986
    150  NE2       28.2270   64.0170   87.6270 N.ar  140  HIS140     -0.2212
@<TRIPOS>BOND
     1    19    18    2
     2    14    13    1
     3    14    15    1
     4    14    17    1
     5    13     3   am
     6    29    27   ar
     7    29    30   ar
     8    18    17    1
     9    18    20   am
    10    15    16    2
    11    27    26   ar
    12    32    30   ar
    13    32    34   ar
    14    30    28   ar
    15     2     1    1
    16     2     3    1
    17     2     5    1
    18     3     4    2
    19    47    48    1
    20     7     9   ar
    21     7     6   ar
    22    21    22    1
    23     9    11   ar
    24    26    28   ar
    25    26    25    1
    26    34    33   ar
    27     5     6    1
    28    28    31   ar
    29    50    49    2
    30     6     8   ar
    31    48    51    1
    32    48    49    1
    33    51    52    1
    34    58    59    1
    35    11    12    1
    36    11    10   ar
    37    42    41    2
    38    22    25    1
    39    22    23    1
    40    41    40    1
    41    33    31   ar
    42     8    10   ar
    43    35    23   am
    44    35    36    1
    45    62    59    1
    46    62    63    1
    47    23    24    2
    48    59    60    1
    49    52    53    1
    50    39    40    1
    51    39    37   am
    52    53    54    1
    53    40    43    1
    54    68    70   ar
    55    68    65   ar
    56    61    60    2
    57    36    37    1
    58    70    71   ar
    59    43    44    1
    60    37    38    2
    61    63    65   ar
    62    63    64   ar
    63    54    55    2
    64    65    67   ar
    65    56    55    1
    66    55    57    1
    67    71    69   ar
    68    44    46   am
    69    44    45    2
    70    64    66   ar
    71    67    69   ar
    72    67    66   ar
    73    83    85   ar
    74    83    81   ar
    75    80    81   ar
    76    80    78   ar
    77    85    84   ar
    78    81    79   ar
    79    78    77   ar
    80    84    82   ar
    81    79    77   ar
    82    79    82   ar
    83   107   106    1
    84    92    91    1
    85   101    99    1
    86    77    76    1
    87    99    98    1
    88   118   120   ar
    89   118   115   ar
    90   112   113    1
    91   112   109    1
    92   120   121   ar
    93   100    98    1
    94   106   103    1
    95    97    96    2
    96   115   113   ar
    97   115   117   ar
    98   113   114   ar
    99    72    73    1
   100   121   119   ar
   101   111   110    2
   102    91    93    1
   103    91    90    1
   104   149   150   ar
   105   149   147   ar
   106    76    73    1
   107   108   109    1
   108   108   104   am
   109   117   119   ar
   110   117   116   ar
   111   103   104    1
   112   103   102    1
   113   130   128   ar
   114    96    95    1
   115   114   116   ar
   116    98    95    1
   117   129   128   ar
   118   109   110    1
   119    75    74    2
   120    73    74    1
   121   150   148   ar
   122   147   146   ar
   123   104   105    2
   124   128   127    1
   125    90    87    1
   126    95    94    1
   127   140   139   ar
   128   140   138   ar
   129   127   126    1
   130   146   148   ar
   131   146   145    1
   132   139   137   ar
   133    86    87    1
   134    87    88    1
   135   138   136   ar
   136   137   136   ar
   137   126   123    1
   138   136   135    1
   139    89    88    2
   140   145   142    1
   141   135   132    1
   142   123   124    1
   143   123   122    1
   144   142   141    1
   145   142   143    1
   146   124   125    2
   147   132   131    1
   148   132   133    1
   149   143   144    2
   150   133   134    2
