@<TRIPOS>MOLECULE
tmp/4cteA01.pdb
 114 114 0 0 0
SMALL
GASTEIGER

@<TRIPOS>ATOM
      1  N         14.4100   54.0040   46.8790 N.3    29  TRP29      -0.1227
      2  CA        13.6390   53.0820   46.0130 C.3    29  TRP29       0.1737
      3  C         12.6340   53.8220   45.1560 C.2    29  TRP29       0.2596
      4  O         11.5240   53.3580   44.9640 O.2    29  TRP29      -0.2718
      5  CB        13.0260   51.9350   46.8660 C.3    29  TRP29       0.0564
      6  CG        14.1800   51.1290   47.4200 C.ar   29  TRP29       0.0003
      7  CD1       14.8380   51.2720   48.6490 C.ar   29  TRP29       0.0946
      8  CD2       14.8930   50.0720   46.7190 C.ar   29  TRP29       0.0152
      9  NE1       15.8660   50.3880   48.7530 N.ar   29  TRP29      -0.2442
     10  CE2       15.9620   49.6270   47.6260 C.ar   29  TRP29       0.0810
     11  CE3       14.7460   49.4480   45.4730 C.ar   29  TRP29       0.0012
     12  CZ2       16.8540   48.5850   47.2760 C.ar   29  TRP29       0.0191
     13  CZ3       15.6370   48.3940   45.1380 C.ar   29  TRP29       0.0001
     14  CH2       16.6830   47.9980   46.0160 C.ar   29  TRP29       0.0015
     15  N         13.0170   55.0280   44.7040 N.am   30  GLY30      -0.1942
     16  CA        12.1860   55.8600   43.8330 C.3    30  GLY30       0.2014
     17  C         11.0610   56.5670   44.5410 C.2    30  GLY30       0.2638
     18  O         10.3420   57.3480   43.9130 O.2    30  GLY30      -0.2714
     19  N         10.9240   56.3470   45.8460 N.am   31  ASN31      -0.1972
     20  CA         9.8340   56.9400   46.6060 C.3    31  ASN31       0.1688
     21  C         10.2200   57.6670   47.8750 C.2    31  ASN31       0.2292
     22  O          9.3480   57.8420   48.7340 O.2    31  ASN31      -0.2864
     23  CB         8.8250   55.8510   46.9700 C.3    31  ASN31       0.1181
     24  CG         8.1800   55.2060   45.7550 C.2    31  ASN31       0.2629
     25  OD1        8.2780   54.0000   45.5680 O.2    31  ASN31      -0.2716
     26  ND2        7.5420   56.0020   44.9280 N.am   31  ASN31      -0.0877
     27  N         13.5870   43.5340   51.4450 N.3    67  ARG67      -0.1245
     28  CA        12.9220   43.5240   50.1640 C.3    67  ARG67       0.1563
     29  C         13.4880   42.3200   49.4220 C.2    67  ARG67       0.2260
     30  O         14.7370   42.1530   49.2810 O.2    67  ARG67      -0.2867
     31  CB        13.1800   44.7780   49.3880 C.3    67  ARG67       0.0307
     32  CG        12.6250   44.7810   47.9690 C.3    67  ARG67       0.0489
     33  CD        12.5590   46.1970   47.4420 C.3    67  ARG67       0.2205
     34  NE        12.5170   46.2790   45.9770 N.pl3  67  ARG67      -0.0865
     35  CZ        12.0420   47.3130   45.2770 C.cat  67  ARG67       0.5346
     36  NH1       11.4820   48.3700   45.8980 N.pl3  67  ARG67       0.1354
     37  NH2       12.1080   47.2890   43.9370 N.pl3  67  ARG67       0.1354
     38  N          4.9430   50.5350   55.3520 N.3    94  TRP94      -0.1241
     39  CA         4.3910   50.4180   54.0180 C.3    94  TRP94       0.1605
     40  C          4.7240   49.1020   53.3880 C.2    94  TRP94       0.2264
     41  O          5.5940   49.0270   52.4930 O.2    94  TRP94      -0.2867
     42  CB         4.8850   51.5600   53.1360 C.3    94  TRP94       0.0550
     43  CG         4.4180   51.4630   51.7040 C.ar   94  TRP94       0.0003
     44  CD1        3.4740   50.5870   51.1740 C.ar   94  TRP94       0.0946
     45  CD2        4.8620   52.2780   50.5620 C.ar   94  TRP94       0.0152
     46  NE1        3.3110   50.7980   49.8290 N.ar   94  TRP94      -0.2442
     47  CE2        4.1120   51.7960   49.3990 C.ar   94  TRP94       0.0810
     48  CE3        5.7680   53.3140   50.3960 C.ar   94  TRP94       0.0012
     49  CZ2        4.2810   52.3440   48.1400 C.ar   94  TRP94       0.0191
     50  CZ3        5.9290   53.8580   49.1190 C.ar   94  TRP94       0.0001
     51  CH2        5.2030   53.3830   48.0210 C.ar   94  TRP94       0.0015
     52  N          3.8010   42.5040   45.3860 N.3    98  TRP98      -0.1241
     53  CA         3.6550   43.0730   44.0730 C.3    98  TRP98       0.1605
     54  C          4.4850   42.3940   43.0270 C.2    98  TRP98       0.2264
     55  O          5.1920   41.4300   43.3280 O.2    98  TRP98      -0.2867
     56  CB         3.9610   44.5850   44.1790 C.3    98  TRP98       0.0550
     57  CG         5.2920   44.9660   44.7600 C.ar   98  TRP98       0.0003
     58  CD1        5.8050   44.6620   46.0270 C.ar   98  TRP98       0.0946
     59  CD2        6.2520   45.9050   44.1630 C.ar   98  TRP98       0.0152
     60  NE1        7.0090   45.2970   46.2300 N.ar   98  TRP98      -0.2442
     61  CE2        7.3430   46.0500   45.1350 C.ar   98  TRP98       0.0810
     62  CE3        6.3170   46.6150   42.9340 C.ar   98  TRP98       0.0012
     63  CZ2        8.4410   46.8700   44.8870 C.ar   98  TRP98       0.0191
     64  CZ3        7.4400   47.4360   42.6860 C.ar   98  TRP98       0.0001
     65  CH2        8.4820   47.5490   43.6480 C.ar   98  TRP98       0.0015
     66  N          6.6180   43.0270   39.0300 N.3   100  LEU100     -0.1245
     67  CA         7.2250   43.8850   38.0290 C.3   100  LEU100      0.1561
     68  C          7.5360   43.0790   36.8130 C.2   100  LEU100      0.2260
     69  O          7.8990   41.9070   36.9360 O.2   100  LEU100     -0.2867
     70  CB         8.5160   44.4970   38.5500 C.3   100  LEU100      0.0270
     71  CG         8.4100   45.6260   39.5740 C.3   100  LEU100      0.0019
     72  CD1        9.8130   45.9110   40.1340 C.3   100  LEU100      0.0001
     73  CD2        7.7870   46.8960   38.9770 C.3   100  LEU100      0.0001
     74  N         11.9600   45.0700   32.8600 N.3   104  ILE104     -0.1245
     75  CA        12.4140   46.2520   33.6270 C.3   104  ILE104      0.1561
     76  C         13.8730   46.5580   33.2720 C.2   104  ILE104      0.2260
     77  O         14.2390   47.7320   33.1880 O.2   104  ILE104     -0.2867
     78  CB        12.1780   46.1550   35.1910 C.3   104  ILE104      0.0252
     79  CG1       12.2980   47.5730   35.8300 C.3   104  ILE104      0.0019
     80  CG2       13.0630   45.1220   35.9030 C.3   104  ILE104      0.0019
     81  CD1       11.8060   47.6890   37.2460 C.3   104  ILE104      0.0001
     82  N         11.0900   51.5140   34.4060 N.3   109  TRP109     -0.1241
     83  CA         9.7990   51.6680   35.0850 C.3   109  TRP109      0.1605
     84  C          9.2020   53.0330   34.7300 C.2   109  TRP109      0.2264
     85  O          9.9500   53.9980   34.6820 O.2   109  TRP109     -0.2867
     86  CB        10.0050   51.4770   36.6000 C.3   109  TRP109      0.0550
     87  CG         8.7310   51.5450   37.3840 C.ar  109  TRP109      0.0003
     88  CD1        7.9400   50.4870   37.8120 C.ar  109  TRP109      0.0946
     89  CD2        8.0130   52.7600   37.8210 C.ar  109  TRP109      0.0152
     90  NE1        6.8280   50.9510   38.4640 N.ar  109  TRP109     -0.2442
     91  CE2        6.7980   52.2910   38.5000 C.ar  109  TRP109      0.0810
     92  CE3        8.2360   54.1420   37.7010 C.ar  109  TRP109      0.0012
     93  CZ2        5.8560   53.1800   39.0490 C.ar  109  TRP109      0.0191
     94  CZ3        7.2810   55.0390   38.2590 C.ar  109  TRP109      0.0001
     95  CH2        6.1250   54.5660   38.9220 C.ar  109  TRP109      0.0015
     96  N          3.6230   47.1610   36.3320 N.3   114  GLU114     -0.1245
     97  CA         3.6990   46.8480   37.7410 C.3   114  GLU114      0.1567
     98  C          2.3320   46.4640   38.2120 C.2   114  GLU114      0.2260
     99  O          1.3740   47.1800   37.9330 O.2   114  GLU114     -0.2867
    100  CB         4.2340   48.0690   38.5450 C.3   114  GLU114      0.0388
    101  CG         4.1320   47.9030   40.0530 C.3   114  GLU114      0.1160
    102  CD         4.6990   49.0380   40.8850 C.2   114  GLU114      0.3649
    103  OE1        5.4770   49.8860   40.3960 O.co2 114  GLU114     -0.2457
    104  OE2        4.3770   49.0440   42.0800 O.co2 114  GLU114     -0.2457
    105  N          0.6620   50.1000   37.5220 N.3   132  HIS132     -0.1241
    106  CA         1.3830   51.2590   37.0030 C.3   132  HIS132      0.1621
    107  C          1.9290   50.8500   35.6720 C.2   132  HIS132      0.2264
    108  O          2.3920   49.7070   35.5330 O.2   132  HIS132     -0.2867
    109  CB         2.4990   51.7120   37.9290 C.3   132  HIS132      0.0745
    110  CG         2.0350   52.0740   39.3160 C.ar  132  HIS132      0.0817
    111  ND1        1.7930   53.3490   39.6920 N.ar  132  HIS132     -0.2268
    112  CD2        1.7580   51.2720   40.4290 C.ar  132  HIS132      0.1154
    113  CE1        1.3710   53.3600   40.9750 C.ar  132  HIS132      0.1986
    114  NE2        1.3590   52.0860   41.4250 N.ar  132  HIS132     -0.2212
@<TRIPOS>BOND
     1    74    75    1
     2    77    76    2
     3    76    75    1
     4    75    78    1
     5    82    83    1
     6    85    84    2
     7    84    83    1
     8    83    86    1
     9    78    79    1
    10    78    80    1
    11   108   107    2
    12   107   106    1
    13    79    81    1
    14    96    97    1
    15    86    87    1
    16    68    69    2
    17    68    67    1
    18   106   105    1
    19   106   109    1
    20    87    88   ar
    21    87    89   ar
    22    92    89   ar
    23    92    94   ar
    24    97    98    1
    25    97   100    1
    26    88    90   ar
    27    89    91   ar
    28   109   110    1
    29    99    98    2
    30    67    70    1
    31    67    66    1
    32    94    95   ar
    33    90    91   ar
    34    91    93   ar
    35   100   101    1
    36    70    71    1
    37    95    93   ar
    38    73    71    1
    39   110   111   ar
    40   110   112   ar
    41    71    72    1
    42   111   113   ar
    43   101   102    1
    44   103   102   ar
    45   112   114   ar
    46   102   104   ar
    47   113   114   ar
    48    64    62   ar
    49    64    65   ar
    50    62    59   ar
    51    54    55    2
    52    54    53    1
    53    65    63   ar
    54    16    17    1
    55    16    15    1
    56    18    17    2
    57    37    35    1
    58    53    56    1
    59    53    52    1
    60    59    57   ar
    61    59    61   ar
    62    56    57    1
    63    17    19   am
    64    15     3   am
    65    57    58   ar
    66    63    61   ar
    67    26    24   am
    68     4     3    2
    69    61    60   ar
    70    13    11   ar
    71    13    14   ar
    72     3     2    1
    73    35    36    1
    74    35    34    2
    75    11     8   ar
    76    25    24    2
    77    24    23    1
    78    19    20    1
    79    34    33    1
    80     2     5    1
    81     2     1    1
    82    14    12   ar
    83    58    60   ar
    84    20    23    1
    85    20    21    1
    86     8     6   ar
    87     8    10   ar
    88     5     6    1
    89    12    10   ar
    90     6     7   ar
    91    33    32    1
    92    10     9   ar
    93    21    22    2
    94    32    31    1
    95    51    49   ar
    96    51    50   ar
    97    49    47   ar
    98     7     9   ar
    99    50    48   ar
   100    30    29    2
   101    31    28    1
   102    47    46   ar
   103    47    45   ar
   104    29    28    1
   105    46    44   ar
   106    28    27    1
   107    48    45   ar
   108    45    43   ar
   109    44    43   ar
   110    43    42    1
   111    41    40    2
   112    42    39    1
   113    40    39    1
   114    39    38    1
