@<TRIPOS>MOLECULE
tmp/4cteB00.pdb
 111 109 0 0 0
SMALL
GASTEIGER

@<TRIPOS>ATOM
      1  N         21.8770   64.3680   78.4040 N.3    31  ASN31      -0.1240
      2  CA        21.1370   63.0920   78.5260 C.3    31  ASN31       0.1653
      3  C         20.8740   62.4220   77.1940 C.2    31  ASN31       0.2266
      4  O         19.9240   61.6250   77.1080 O.2    31  ASN31      -0.2867
      5  CB        19.7820   63.3330   79.2080 C.3    31  ASN31       0.1155
      6  CG        19.9140   63.8820   80.6270 C.2    31  ASN31       0.2627
      7  OD1       20.3760   63.2460   81.4910 O.2    31  ASN31      -0.2716
      8  ND2       19.5150   65.0790   80.8150 N.am   31  ASN31      -0.0877
      9  N         19.4160   63.6690   74.5800 N.3    33  GLU33      -0.1245
     10  CA        18.1050   64.1060   74.0840 C.3    33  GLU33       0.1567
     11  C         18.2440   64.4130   72.5960 C.2    33  GLU33       0.2260
     12  O         19.3410   64.7810   72.0890 O.2    33  GLU33      -0.2867
     13  CB        17.6340   65.3410   74.8330 C.3    33  GLU33       0.0388
     14  CG        17.3280   65.0070   76.3040 C.3    33  GLU33       0.1160
     15  CD        17.2260   66.1990   77.1940 C.2    33  GLU33       0.3649
     16  OE1       17.0050   67.2980   76.7280 O.co2  33  GLU33      -0.2457
     17  OE2       17.3910   66.0080   78.4120 O.co2  33  GLU33      -0.2457
     18  N          9.3580   63.9530   77.0510 N.3    94  TRP94      -0.1241
     19  CA         9.9720   64.1320   78.3750 C.3    94  TRP94       0.1605
     20  C          9.8480   65.5930   78.8600 C.2    94  TRP94       0.2264
     21  O         10.8440   66.3690   78.8180 O.2    94  TRP94      -0.2867
     22  CB        11.4070   63.6730   78.2620 C.3    94  TRP94       0.0550
     23  CG        12.2060   63.6420   79.5460 C.ar   94  TRP94       0.0003
     24  CD1       11.7500   63.7360   80.8600 C.ar   94  TRP94       0.0946
     25  CD2       13.6240   63.3760   79.6310 C.ar   94  TRP94       0.0152
     26  NE1       12.8060   63.6560   81.7360 N.ar   94  TRP94      -0.2442
     27  CE2       13.9630   63.3880   81.0420 C.ar   94  TRP94       0.0810
     28  CE3       14.6510   63.1750   78.6670 C.ar   94  TRP94       0.0012
     29  CZ2       15.2650   63.1770   81.4830 C.ar   94  TRP94       0.0191
     30  CZ3       15.9640   62.9570   79.1200 C.ar   94  TRP94       0.0001
     31  CH2       16.2610   62.9650   80.4990 C.ar   94  TRP94       0.0015
     32  N          9.4080   68.7230   81.6990 N.3    96  ALA96      -0.1245
     33  CA         9.9020   68.8860   83.0440 C.3    96  ALA96       0.1562
     34  C          9.6130   70.2560   83.4960 C.2    96  ALA96       0.2260
     35  O          9.6290   71.1890   82.6640 O.2    96  ALA96      -0.2867
     36  CB        11.3960   68.5920   83.1260 C.3    96  ALA96       0.0290
     37  N         11.2210   72.5110   86.6380 N.3    98  TRP98      -0.1241
     38  CA        12.3410   72.2290   87.5240 C.3    98  TRP98       0.1605
     39  C         13.1510   73.4390   87.8500 C.2    98  TRP98       0.2264
     40  O         12.8090   74.5490   87.4110 O.2    98  TRP98      -0.2867
     41  CB        13.1990   71.0700   86.9220 C.3    98  TRP98       0.0550
     42  CG        13.6710   71.2590   85.4750 C.ar   98  TRP98       0.0003
     43  CD1       12.8850   71.4520   84.3050 C.ar   98  TRP98       0.0946
     44  CD2       15.0490   71.2050   85.0090 C.ar   98  TRP98       0.0152
     45  NE1       13.6870   71.5130   83.1810 N.ar   98  TRP98      -0.2442
     46  CE2       15.0030   71.3460   83.5390 C.ar   98  TRP98       0.0810
     47  CE3       16.3000   70.9740   85.6400 C.ar   98  TRP98       0.0012
     48  CZ2       16.1580   71.2940   82.7610 C.ar   98  TRP98       0.0191
     49  CZ3       17.4710   70.9110   84.8200 C.ar   98  TRP98       0.0001
     50  CH2       17.3960   71.0960   83.4130 C.ar   98  TRP98       0.0015
     51  N         26.9230   71.2140   86.9410 N.3   109  TRP109     -0.1241
     52  CA        25.8880   70.2850   87.3500 C.3   109  TRP109      0.1605
     53  C         26.5900   68.9730   87.6130 C.2   109  TRP109      0.2264
     54  O         27.4160   68.5740   86.7950 O.2   109  TRP109     -0.2867
     55  CB        24.9100   70.1870   86.2230 C.3   109  TRP109      0.0550
     56  CG        23.7210   69.4020   86.5710 C.ar  109  TRP109      0.0003
     57  CD1       22.4930   69.8610   87.0610 C.ar  109  TRP109      0.0946
     58  CD2       23.6230   67.9500   86.5360 C.ar  109  TRP109      0.0152
     59  NE1       21.6510   68.7920   87.2980 N.ar  109  TRP109     -0.2442
     60  CE2       22.2670   67.6190   87.0090 C.ar  109  TRP109      0.0810
     61  CE3       24.5090   66.9110   86.1650 C.ar  109  TRP109      0.0012
     62  CZ2       21.8160   66.2930   87.0930 C.ar  109  TRP109      0.0191
     63  CZ3       24.0420   65.5600   86.2440 C.ar  109  TRP109      0.0001
     64  CH2       22.7160   65.2710   86.6980 C.ar  109  TRP109      0.0015
     65  N         19.7070   70.5270   91.8770 N.3   114  GLU114     -0.1245
     66  CA        18.6000   70.5100   90.9820 C.3   114  GLU114      0.1567
     67  C         17.3770   70.0680   91.7250 C.2   114  GLU114      0.2260
     68  O         17.4040   69.0070   92.3730 O.2   114  GLU114     -0.2867
     69  CB        18.8610   69.6210   89.7600 C.3   114  GLU114      0.0388
     70  CG        17.6530   69.4400   88.8010 C.3   114  GLU114      0.1160
     71  CD        17.9610   68.4870   87.6540 C.2   114  GLU114      0.3649
     72  OE1       19.1260   68.2890   87.2920 O.co2 114  GLU114     -0.2457
     73  OE2       17.0260   67.9590   87.0420 O.co2 114  GLU114     -0.2457
     74  N         13.8020   68.8360   90.6830 N.3   116  ASP116     -0.1239
     75  CA        12.8470   68.4930   89.6380 C.3   116  ASP116      0.1674
     76  C         11.4840   68.4700   90.2810 C.2   116  ASP116      0.2266
     77  O         11.1390   67.5190   91.0350 O.2   116  ASP116     -0.2867
     78  CB        13.0920   67.1310   88.9970 C.3   116  ASP116      0.1410
     79  CG        14.3780   67.0560   88.2980 C.2   116  ASP116      0.3668
     80  OD1       14.8130   68.0620   87.7360 O.co2 116  ASP116     -0.2456
     81  OD2       14.9250   65.9520   88.2620 O.co2 116  ASP116     -0.2456
     82  N          8.6090   65.7980   86.5350 N.3   119  SER119     -0.1217
     83  CA         9.0570   65.3610   85.2130 C.3   119  SER119      0.1889
     84  C          8.2570   64.0670   84.9210 C.2   119  SER119      0.2288
     85  O          7.7740   63.3570   85.8560 O.2   119  SER119     -0.2866
     86  CB        10.5830   65.1780   85.0910 C.3   119  SER119      0.2089
     87  OG        10.9550   64.1440   85.9950 O.3   119  SER119     -0.2183
     88  N         18.8340   66.3770   92.4600 N.3   132  HIS132     -0.1241
     89  CA        20.1440   65.9130   91.9870 C.3   132  HIS132      0.1621
     90  C         21.1310   66.8510   92.5750 C.2   132  HIS132      0.2264
     91  O         20.8870   68.0960   92.6490 O.2   132  HIS132     -0.2867
     92  CB        20.2910   65.8460   90.4530 C.3   132  HIS132      0.0745
     93  CG        19.3210   64.9240   89.7750 C.ar  132  HIS132      0.0817
     94  ND1       19.6250   63.6310   89.5140 N.ar  132  HIS132     -0.2268
     95  CD2       18.0380   65.1390   89.2770 C.ar  132  HIS132      0.1154
     96  CE1       18.5830   63.0460   88.8980 C.ar  132  HIS132      0.1986
     97  NE2       17.6140   63.9800   88.7480 N.ar  132  HIS132     -0.2212
     98  N         16.5240   58.4960   79.5740 N.3   207  TRP207     -0.1241
     99  CA        15.4290   58.0810   80.4490 C.3   207  TRP207      0.1605
    100  C         14.1980   57.6310   79.7060 C.2   207  TRP207      0.2264
    101  O         13.7230   56.4950   79.9180 O.2   207  TRP207     -0.2867
    102  CB        15.0890   59.1680   81.4730 C.3   207  TRP207      0.0550
    103  CG        14.1520   58.7300   82.5830 C.ar  207  TRP207      0.0003
    104  CD1       13.9220   57.4390   83.0560 C.ar  207  TRP207      0.0946
    105  CD2       13.2850   59.5930   83.4050 C.ar  207  TRP207      0.0152
    106  NE1       13.0020   57.4470   84.0760 N.ar  207  TRP207     -0.2442
    107  CE2       12.5810   58.7020   84.3320 C.ar  207  TRP207      0.0810
    108  CE3       13.0310   60.9520   83.4570 C.ar  207  TRP207      0.0012
    109  CZ2       11.6690   59.1840   85.2620 C.ar  207  TRP207      0.0191
    110  CZ3       12.1100   61.4250   84.3990 C.ar  207  TRP207      0.0001
    111  CH2       11.4470   60.5590   85.2780 C.ar  207  TRP207      0.0015
@<TRIPOS>BOND
     1    12    11    2
     2    11    10    1
     3    10     9    1
     4    10    13    1
     5    13    14    1
     6    14    15    1
     7    16    15   ar
     8    18    19    1
     9     4     3    2
    10     3     2    1
    11    15    17   ar
    12    22    19    1
    13    22    23    1
    14    19    20    1
    15     1     2    1
    16     2     5    1
    17    28    30   ar
    18    28    25   ar
    19    21    20    2
    20    30    31   ar
    21     5     6    1
    22    23    25   ar
    23    23    24   ar
    24    98    99    1
    25    25    27   ar
    26   100   101    2
    27   100    99    1
    28    99   102    1
    29    31    29   ar
    30     6     8   am
    31     6     7    2
    32    24    26   ar
    33    27    29   ar
    34    27    26   ar
    35   102   103    1
    36    32    33    1
    37   103   104   ar
    38   103   105   ar
    39    35    34    2
    40    48    50   ar
    41    48    46   ar
    42    33    36    1
    43    33    34    1
    44   104   106   ar
    45    45    46   ar
    46    45    43   ar
    47   105   108   ar
    48   105   107   ar
    49    50    49   ar
    50   108   110   ar
    51    46    44   ar
    52   106   107   ar
    53    43    42   ar
    54   107   109   ar
    55   110   111   ar
    56    49    47   ar
    57    84    83    1
    58    84    85    2
    59    44    42   ar
    60    44    47   ar
    61    86    83    1
    62    86    87    1
    63    83    82    1
    64   109   111   ar
    65    42    41    1
    66    61    63   ar
    67    61    58   ar
    68    55    56    1
    69    55    52    1
    70    63    64   ar
    71    58    56   ar
    72    58    60   ar
    73    56    57   ar
    74    37    38    1
    75    64    62   ar
    76    54    53    2
    77    41    38    1
    78    51    52    1
    79    60    62   ar
    80    60    59   ar
    81    73    71   ar
    82    57    59   ar
    83    72    71   ar
    84    52    53    1
    85    40    39    2
    86    38    39    1
    87    71    70    1
    88    80    79   ar
    89    81    79   ar
    90    79    78    1
    91    97    96   ar
    92    97    95   ar
    93    70    69    1
    94    96    94   ar
    95    78    75    1
    96    95    93   ar
    97    94    93   ar
    98    75    76    1
    99    75    74    1
   100    69    66    1
   101    93    92    1
   102    76    77    2
   103    92    89    1
   104    66    67    1
   105    66    65    1
   106    67    68    2
   107    89    88    1
   108    89    90    1
   109    90    91    2
