@<TRIPOS>MOLECULE
tmp/4cthA00.pdb
 200 196 0 0 0
SMALL
GASTEIGER

@<TRIPOS>ATOM
      1  N        -54.3640   -5.2220  -27.4490 N.3    53  ASN53      -0.1225
      2  CA       -55.1620   -4.0150  -27.3580 C.3    53  ASN53       0.1785
      3  C        -54.4740   -2.8840  -26.5200 C.2    53  ASN53       0.2597
      4  O        -54.6700   -1.7080  -26.8410 O.2    53  ASN53      -0.2718
      5  CB       -56.5400   -4.3730  -26.8410 C.3    53  ASN53       0.1169
      6  CG       -57.5240   -3.2450  -26.9660 C.2    53  ASN53       0.2627
      7  OD1      -57.7890   -2.5330  -26.0000 O.2    53  ASN53      -0.2716
      8  ND2      -58.0490   -3.0270  -28.1750 N.am   53  ASN53      -0.0877
      9  N        -53.6470   -3.2500  -25.4890 N.am   54  PHE54      -0.1976
     10  CA       -52.8640   -2.3160  -24.6740 C.3    54  PHE54       0.1639
     11  C        -51.9670   -1.5300  -25.5960 C.2    54  PHE54       0.2290
     12  O        -51.9160   -0.3020  -25.5180 O.2    54  PHE54      -0.2864
     13  CB       -51.9600   -3.0670  -23.6390 C.3    54  PHE54       0.0560
     14  CG       -50.6860   -2.3240  -23.2370 C.ar   54  PHE54      -0.0200
     15  CD1      -50.7320   -1.2630  -22.3300 C.ar   54  PHE54      -0.0042
     16  CD2      -49.4580   -2.6430  -23.8150 C.ar   54  PHE54      -0.0042
     17  CE1      -49.5720   -0.5360  -22.0150 C.ar   54  PHE54      -0.0003
     18  CE2      -48.3050   -1.9060  -23.5120 C.ar   54  PHE54      -0.0003
     19  CZ       -48.3700   -0.8590  -22.6130 C.ar   54  PHE54      -0.0000
     20  N        -53.8630    1.0430  -27.9510 N.3    57  LEU57      -0.1245
     21  CA       -54.2350    2.2750  -27.2350 C.3    57  LEU57       0.1561
     22  C        -52.9840    3.1050  -26.8640 C.2    57  LEU57       0.2260
     23  O        -52.9990    4.3270  -27.0170 O.2    57  LEU57      -0.2867
     24  CB       -55.0600    1.9670  -25.9800 C.3    57  LEU57       0.0270
     25  CG       -56.3910    1.2960  -26.1770 C.3    57  LEU57       0.0019
     26  CD1      -56.9770    0.9290  -24.8350 C.3    57  LEU57       0.0001
     27  CD2      -57.3510    2.1790  -26.9190 C.3    57  LEU57       0.0001
     28  N        -52.0450    3.8740  -19.9580 N.3   489  VAL489     -0.1231
     29  CA       -53.0710    2.8920  -20.3340 C.3   489  VAL489      0.1692
     30  C        -52.9140    1.6940  -19.4100 C.2   489  VAL489      0.2592
     31  O        -52.3490    0.6540  -19.7670 O.2   489  VAL489     -0.2718
     32  CB       -53.0510    2.5110  -21.8450 C.3   489  VAL489      0.0266
     33  CG1      -54.2510    1.6250  -22.1920 C.3   489  VAL489      0.0020
     34  CG2      -53.0570    3.7850  -22.7180 C.3   489  VAL489      0.0020
     35  N        -53.3740    1.8770  -18.1910 N.am  490  ASN490     -0.1960
     36  CA       -53.2860    0.8280  -17.1770 C.3   490  ASN490      0.1819
     37  C        -54.1720    1.2380  -16.0120 C.2   490  ASN490      0.2621
     38  O        -54.7840    2.2930  -16.0670 O.2   490  ASN490     -0.2715
     39  CB       -51.8070    0.6340  -16.7170 C.3   490  ASN490      0.1195
     40  CG       -51.4600   -0.7920  -16.3420 C.2   490  ASN490      0.2630
     41  OD1      -52.3110   -1.5880  -15.9290 O.2   490  ASN490     -0.2716
     42  ND2      -50.1940   -1.1470  -16.4650 N.am  490  ASN490     -0.0877
     43  N        -54.2740    0.3990  -14.9770 N.am  491  ALA491     -0.1963
     44  CA       -55.0620    0.7110  -13.7860 C.3   491  ALA491      0.1728
     45  C        -54.3370    0.0610  -12.6770 C.2   491  ALA491      0.2616
     46  O        -53.4970   -0.8070  -12.9610 O.2   491  ALA491     -0.2715
     47  CB       -56.4920    0.2110  -13.9260 C.3   491  ALA491      0.0334
     48  N        -54.4710    0.5700  -11.4310 N.am  492  PHE492     -0.1960
     49  CA       -53.5990    0.0810  -10.3470 C.3   492  PHE492      0.1771
     50  C        -54.3060    0.0110   -9.0340 C.2   492  PHE492      0.2619
     51  O        -55.3310    0.6320   -8.8740 O.2   492  PHE492     -0.2715
     52  CB       -52.3890    1.0320  -10.1430 C.3   492  PHE492      0.0574
     53  CG       -51.5950    1.3510  -11.3950 C.ar  492  PHE492     -0.0200
     54  CD1      -51.9750    2.4040  -12.2300 C.ar  492  PHE492     -0.0042
     55  CD2      -50.4990    0.5700  -11.7610 C.ar  492  PHE492     -0.0042
     56  CE1      -51.2600    2.6790  -13.3900 C.ar  492  PHE492     -0.0003
     57  CE2      -49.7850    0.8440  -12.9230 C.ar  492  PHE492     -0.0003
     58  CZ       -50.1520    1.9110  -13.7160 C.ar  492  PHE492     -0.0000
     59  N        -53.7190   -0.7260   -8.0860 N.am  493  TYR493     -0.1974
     60  CA       -54.1660   -0.8030   -6.7000 C.3   493  TYR493      0.1639
     61  C        -52.9390   -0.5740   -5.8690 C.2   493  TYR493      0.2290
     62  O        -51.9140   -1.2170   -6.1370 O.2   493  TYR493     -0.2864
     63  CB       -54.8080   -2.1720   -6.3370 C.3   493  TYR493      0.0560
     64  CG       -55.1550   -2.2790   -4.8620 C.ar  493  TYR493     -0.0198
     65  CD1      -56.2450   -1.5990   -4.3350 C.ar  493  TYR493     -0.0009
     66  CD2      -54.3340   -2.9730   -3.9800 C.ar  493  TYR493     -0.0009
     67  CE1      -56.5070   -1.5940   -2.9600 C.ar  493  TYR493      0.0417
     68  CE2      -54.5950   -2.9900   -2.6070 C.ar  493  TYR493      0.0417
     69  CZ       -55.6730   -2.2780   -2.1020 C.ar  493  TYR493      0.1957
     70  OH       -55.9660   -2.2750   -0.7590 O.3   493  TYR493     -0.2866
     71  N        -56.9230    4.8390  -19.6290 N.3   506  ILE506     -0.1245
     72  CA       -57.7160    3.6090  -19.6660 C.3   506  ILE506      0.1561
     73  C        -59.2480    3.8850  -19.7550 C.2   506  ILE506      0.2260
     74  O        -60.0490    2.9630  -19.9590 O.2   506  ILE506     -0.2867
     75  CB       -57.3280    2.6870  -18.4800 C.3   506  ILE506      0.0252
     76  CG1      -57.4500    1.1960  -18.9110 C.3   506  ILE506      0.0019
     77  CG2      -58.1100    3.0500  -17.1920 C.3   506  ILE506      0.0019
     78  CD1      -56.9420    0.2380  -18.0350 C.3   506  ILE506      0.0001
     79  N        -62.9000   -0.2270  -23.2170 N.3   511  PHE511     -0.1241
     80  CA       -63.2280   -0.2290  -21.8050 C.3   511  PHE511      0.1605
     81  C        -64.3720    0.6970  -21.4510 C.2   511  PHE511      0.2264
     82  O        -65.2730    0.2980  -20.7250 O.2   511  PHE511     -0.2867
     83  CB       -62.0020    0.2180  -20.9690 C.3   511  PHE511      0.0534
     84  CG       -60.7640   -0.6240  -21.1340 C.ar  511  PHE511     -0.0203
     85  CD1      -60.6100   -1.8120  -20.4200 C.ar  511  PHE511     -0.0042
     86  CD2      -59.7390   -0.2250  -21.9860 C.ar  511  PHE511     -0.0042
     87  CE1      -59.4390   -2.5530  -20.5290 C.ar  511  PHE511     -0.0003
     88  CE2      -58.5910   -1.0030  -22.1340 C.ar  511  PHE511     -0.0003
     89  CZ       -58.4530   -2.1660  -21.4120 C.ar  511  PHE511     -0.0000
     90  N        -65.1370   -4.4300  -15.1900 N.3   527  MET527     -0.1230
     91  CA       -64.2730   -5.5530  -14.8180 C.3   527  MET527      0.1702
     92  C        -62.9030   -5.0330  -14.3070 C.2   527  MET527      0.2592
     93  O        -62.3580   -5.5600  -13.3490 O.2   527  MET527     -0.2718
     94  CB       -64.1410   -6.5220  -16.0110 C.3   527  MET527      0.0401
     95  CG       -63.1720   -7.6490  -15.7720 C.3   527  MET527      0.0596
     96  SD       -61.4570   -7.1640  -16.1140 S.3   527  MET527     -0.1393
     97  CE       -60.6170   -8.6170  -15.4030 C.3   527  MET527      0.0692
     98  N        -62.3290   -4.0440  -14.9800 N.am  528  VAL528     -0.1980
     99  CA       -61.0730   -3.3880  -14.5410 C.3   528  VAL528      0.1595
    100  C        -61.2380   -2.8590  -13.0960 C.2   528  VAL528      0.2287
    101  O        -60.3570   -3.0730  -12.2650 O.2   528  VAL528     -0.2864
    102  CB       -60.6560   -2.2510  -15.5080 C.3   528  VAL528      0.0276
    103  CG1      -59.4310   -1.5010  -14.9830 C.3   528  VAL528      0.0022
    104  CG2      -60.4060   -2.7980  -16.9160 C.3   528  VAL528      0.0022
    105  N        -61.3650   -5.7510  -10.8250 N.3   531  HIS531     -0.1226
    106  CA       -59.9740   -6.2890  -10.8140 C.3   531  HIS531      0.1752
    107  C        -59.1290   -5.5470   -9.7510 C.2   531  HIS531      0.2595
    108  O        -58.5310   -6.1860   -8.8650 O.2   531  HIS531     -0.2718
    109  CB       -59.3130   -6.2120  -12.2300 C.3   531  HIS531      0.0759
    110  CG       -57.8740   -6.6820  -12.2520 C.ar  531  HIS531      0.0818
    111  ND1      -57.5350   -7.9420  -12.6970 N.ar  531  HIS531     -0.2268
    112  CD2      -56.7520   -6.0450  -11.8460 C.ar  531  HIS531      0.1154
    113  CE1      -56.2260   -8.0410  -12.5330 C.ar  531  HIS531      0.1986
    114  NE2      -55.7100   -6.9180  -12.0210 N.ar  531  HIS531     -0.2212
    115  N        -59.1070   -4.2120   -9.8230 N.am  532  GLU532     -0.1979
    116  CA       -58.3380   -3.3420   -8.9100 C.3   532  GLU532      0.1602
    117  C        -58.8250   -3.4110   -7.4820 C.2   532  GLU532      0.2287
    118  O        -58.0040   -3.4360   -6.5660 O.2   532  GLU532     -0.2864
    119  CB       -58.3120   -1.8740   -9.3870 C.3   532  GLU532      0.0415
    120  CG       -57.6850   -1.5970  -10.7410 C.3   532  GLU532      0.1163
    121  CD       -56.3930   -2.3230  -11.0360 C.2   532  GLU532      0.3649
    122  OE1      -55.5810   -2.5000  -10.1000 O.co2 532  GLU532     -0.2457
    123  OE2      -56.1900   -2.7120  -12.2090 O.co2 532  GLU532     -0.2457
    124  N        -57.8350   -6.6840   -5.8470 N.3   535  HIS535     -0.1241
    125  CA       -56.3990   -6.6520   -5.5100 C.3   535  HIS535      0.1621
    126  C        -56.1940   -6.3300   -4.0250 C.2   535  HIS535      0.2264
    127  O        -55.2030   -6.7620   -3.4450 O.2   535  HIS535     -0.2867
    128  CB       -55.6130   -5.6630   -6.3890 C.3   535  HIS535      0.0745
    129  CG       -54.9130   -6.2970   -7.5590 C.ar  535  HIS535      0.0817
    130  ND1      -54.1790   -7.4660   -7.4200 N.ar  535  HIS535     -0.2268
    131  CD2      -54.8530   -5.9000   -8.8480 C.ar  535  HIS535      0.1154
    132  CE1      -53.7160   -7.7490   -8.6230 C.ar  535  HIS535      0.1986
    133  NE2      -54.1030   -6.8450   -9.5230 N.ar  535  HIS535     -0.2212
    134  N        -53.2380  -12.1870   -9.6830 N.3   594  GLU594     -0.1245
    135  CA       -53.9000  -11.6620  -10.8790 C.3   594  GLU594      0.1567
    136  C        -55.1290  -12.4560  -11.2650 C.2   594  GLU594      0.2260
    137  O        -56.1760  -11.8730  -11.5780 O.2   594  GLU594     -0.2867
    138  CB       -52.8790  -11.5300  -12.0340 C.3   594  GLU594      0.0388
    139  CG       -51.7460  -10.5540  -11.6850 C.3   594  GLU594      0.1160
    140  CD       -52.2370   -9.1320  -11.4570 C.2   594  GLU594      0.3649
    141  OE1      -53.2550   -8.7500  -12.0710 O.co2 594  GLU594     -0.2457
    142  OE2      -51.6310   -8.4170  -10.6380 O.co2 594  GLU594     -0.2457
    143  N        -61.2970   -6.8700  -24.6080 N.3   640  VAL640     -0.1231
    144  CA       -60.2910   -5.9670  -24.0300 C.3   640  VAL640      0.1692
    145  C        -58.9580   -6.7220  -23.8960 C.2   640  VAL640      0.2592
    146  O        -57.8800   -6.1200  -23.8890 O.2   640  VAL640     -0.2718
    147  CB       -60.7190   -5.2360  -22.7340 C.3   640  VAL640      0.0266
    148  CG1      -62.0710   -4.5640  -22.8980 C.3   640  VAL640      0.0020
    149  CG2      -60.7000   -6.1550  -21.5310 C.3   640  VAL640      0.0020
    150  N        -59.0480   -8.0660  -23.8750 N.am  641  TRP641     -0.1976
    151  CA       -57.8990   -8.9520  -23.7360 C.3   641  TRP641      0.1640
    152  C        -57.3420   -9.4950  -25.0410 C.2   641  TRP641      0.2290
    153  O        -56.4180  -10.2920  -24.9820 O.2   641  TRP641     -0.2864
    154  CB       -58.1910  -10.0700  -22.7130 C.3   641  TRP641      0.0576
    155  CG       -58.5200   -9.5620  -21.3370 C.ar  641  TRP641      0.0006
    156  CD1      -59.7120   -9.6860  -20.6820 C.ar  641  TRP641      0.0946
    157  CD2      -57.6650   -8.7980  -20.4730 C.ar  641  TRP641      0.0152
    158  NE1      -59.6500   -9.0610  -19.4600 N.ar  641  TRP641     -0.2442
    159  CE2      -58.3970   -8.5240  -19.2950 C.ar  641  TRP641      0.0810
    160  CE3      -56.3300   -8.3700  -20.5510 C.ar  641  TRP641      0.0012
    161  CZ2      -57.8560   -7.8090  -18.2290 C.ar  641  TRP641      0.0191
    162  CZ3      -55.7890   -7.6790  -19.4800 C.ar  641  TRP641      0.0001
    163  CH2      -56.5520   -7.3920  -18.3450 C.ar  641  TRP641      0.0015
    164  N        -46.5910  -12.3750  -13.8670 N.3   658  VAL658     -0.1231
    165  CA       -47.5330  -12.5020  -12.7470 C.3   658  VAL658      0.1692
    166  C        -48.9550  -12.5030  -13.2470 C.2   658  VAL658      0.2592
    167  O        -49.8400  -12.9480  -12.5470 O.2   658  VAL658     -0.2718
    168  CB       -47.2730  -11.5490  -11.5420 C.3   658  VAL658      0.0266
    169  CG1      -45.8040  -11.6060  -11.0850 C.3   658  VAL658      0.0020
    170  CG2      -47.6920  -10.1240  -11.8580 C.3   658  VAL658      0.0020
    171  N        -49.1600  -12.0230  -14.4780 N.am  659  HIS659     -0.1976
    172  CA       -50.4550  -12.0490  -15.1490 C.3   659  HIS659      0.1656
    173  C        -50.4760  -13.3050  -16.0400 C.2   659  HIS659      0.2291
    174  O        -49.4470  -13.6710  -16.6120 O.2   659  HIS659     -0.2864
    175  CB       -50.6610  -10.8040  -16.0240 C.3   659  HIS659      0.0771
    176  CG       -50.5330   -9.5110  -15.2750 C.ar  659  HIS659      0.0820
    177  ND1      -49.3160   -8.8990  -15.1190 N.ar  659  HIS659     -0.2267
    178  CD2      -51.4840   -8.7540  -14.6790 C.ar  659  HIS659      0.1154
    179  CE1      -49.5490   -7.8090  -14.3990 C.ar  659  HIS659      0.1986
    180  NE2      -50.8390   -7.6960  -14.0910 N.ar  659  HIS659     -0.2212
    181  N        -53.1210  -13.7000  -22.0230 N.3   662  LYS662     -0.1245
    182  CA       -54.4590  -13.1660  -22.3520 C.3   662  LYS662      0.1561
    183  C        -55.5110  -14.2110  -22.6700 C.2   662  LYS662      0.2260
    184  O        -56.6160  -14.0870  -22.1670 O.2   662  LYS662     -0.2867
    185  CB       -54.3610  -12.1080  -23.4540 C.3   662  LYS662      0.0271
    186  CG       -53.7780  -10.7930  -22.9390 C.3   662  LYS662      0.0035
    187  CD       -53.3890   -9.8670  -24.0950 C.3   662  LYS662      0.0206
    188  CE       -52.4760   -8.7600  -23.6660 C.3   662  LYS662      0.1093
    189  NZ       -51.0770   -9.2480  -23.5450 N.3   662  LYS662     -0.1314
    190  N        -56.5180  -15.6130  -19.3730 N.3   665  ARG665     -0.1245
    191  CA       -57.1810  -14.6740  -18.4890 C.3   665  ARG665      0.1563
    192  C        -58.6650  -14.7430  -18.8890 C.2   665  ARG665      0.2260
    193  O        -59.5140  -14.7200  -18.0200 O.2   665  ARG665     -0.2867
    194  CB       -56.6330  -13.2400  -18.6710 C.3   665  ARG665      0.0307
    195  CG       -55.2210  -13.0680  -18.1160 C.3   665  ARG665      0.0489
    196  CD       -54.7570  -11.6110  -18.1460 C.3   665  ARG665      0.2205
    197  NE       -55.2800  -10.8290  -17.0160 N.pl3 665  ARG665     -0.0865
    198  CZ       -54.7400   -9.7010  -16.5610 C.cat 665  ARG665      0.5346
    199  NH1      -53.6360   -9.2060  -17.1220 N.pl3 665  ARG665      0.1354
    200  NH2      -55.2920   -9.0600  -15.5400 N.pl3 665  ARG665      0.1354
@<TRIPOS>BOND
     1     8     6   am
     2    20    21    1
     3     1     2    1
     4     2     5    1
     5     2     3    1
     6    21    22    1
     7    21    24    1
     8    23    22    2
     9     6     5    1
    10     6     7    2
    11    27    25    1
    12     4     3    2
    13     3     9   am
    14    25    24    1
    15    25    26    1
    16    11    12    2
    17    11    10    1
    18     9    10    1
    19   152   153    2
    20   152   151    1
    21    10    13    1
    22   143   144    1
    23   187   188    1
    24   187   186    1
    25   144   145    1
    26   144   147    1
    27   145   146    2
    28   145   150   am
    29   150   151    1
    30    16    18   ar
    31    16    14   ar
    32   151   154    1
    33   188   189    1
    34    13    14    1
    35    18    19   ar
    36   185   186    1
    37   185   182    1
    38    14    15   ar
    39    79    80    1
    40   148   147    1
    41   147   149    1
    42    34    32    1
    43   154   155    1
    44   183   182    1
    45   183   184    2
    46    19    17   ar
    47   182   181    1
    48    15    17   ar
    49    33    32    1
    50    88    86   ar
    51    88    89   ar
    52    86    84   ar
    53    32    29    1
    54    80    81    1
    55    80    83    1
    56    81    82    2
    57    89    87   ar
    58   155   156   ar
    59   155   157   ar
    60    84    83    1
    61    84    85   ar
    62   156   158   ar
    63   160   157   ar
    64   160   162   ar
    65    87    85   ar
    66   157   159   ar
    67    29    28    1
    68    29    30    1
    69    74    73    2
    70    31    30    2
    71    73    72    1
    72    72    71    1
    73    72    75    1
    74   162   163   ar
    75   158   159   ar
    76    30    35   am
    77   190   191    1
    78   159   161   ar
    79    76    75    1
    80    76    78    1
    81   192   191    1
    82   192   193    2
    83   194   191    1
    84   194   195    1
    85    75    77    1
    86   163   161   ar
    87    35    36    1
    88   196   195    1
    89   196   197    1
    90    36    39    1
    91    36    37    1
    92   199   198    1
    93   197   198    2
    94   104   102    1
    95    39    40    1
    96   174   173    2
    97   198   200    1
    98    42    40   am
    99    40    41    2
   100    96    95    1
   101    96    97    1
   102    38    37    2
   103   173   172    1
   104   175   176    1
   105   175   172    1
   106    37    43   am
   107    94    95    1
   108    94    91    1
   109   102   103    1
   110   102    99    1
   111   176   177   ar
   112   176   178   ar
   113    90    91    1
   114   172   171    1
   115   177   179   ar
   116    98    99    1
   117    98    92   am
   118    43    44    1
   119    91    92    1
   120   178   180   ar
   121    99   100    1
   122   171   166   am
   123   179   180   ar
   124    92    93    2
   125    47    44    1
   126   164   165    1
   127    44    45    1
   128    58    56   ar
   129    58    57   ar
   130    56    54   ar
   131   166   165    1
   132   166   167    2
   133   100   101    2
   134    46    45    2
   135    57    55   ar
   136   165   168    1
   137   111   113   ar
   138   111   110   ar
   139    45    48   am
   140   113   114   ar
   141   110   109    1
   142   110   112   ar
   143   109   106    1
   144    54    53   ar
   145   123   121   ar
   146   141   140   ar
   147   138   139    1
   148   138   135    1
   149   114   112   ar
   150   170   168    1
   151    55    53   ar
   152   139   140    1
   153   137   136    2
   154   168   169    1
   155   140   142   ar
   156    48    49    1
   157    53    52    1
   158   136   135    1
   159   121   120    1
   160   121   122   ar
   161   135   134    1
   162   105   106    1
   163   106   107    1
   164   120   119    1
   165    49    52    1
   166    49    50    1
   167   115   107   am
   168   115   116    1
   169   107   108    2
   170   133   131   ar
   171   133   132   ar
   172   119   116    1
   173    50    51    2
   174    50    59   am
   175   116   117    1
   176   131   129   ar
   177   132   130   ar
   178    59    60    1
   179   129   130   ar
   180   129   128    1
   181   117   118    2
   182    60    63    1
   183    60    61    1
   184   128   125    1
   185    63    64    1
   186    62    61    2
   187   124   125    1
   188   125   126    1
   189    64    65   ar
   190    64    66   ar
   191    65    67   ar
   192   126   127    2
   193    66    68   ar
   194    67    69   ar
   195    68    69   ar
   196    69    70    1
