@<TRIPOS>MOLECULE
tmp/4ctmA00.pdb
 146 139 0 0 0
SMALL
GASTEIGER

@<TRIPOS>ATOM
      1  N         28.7590   23.7000   30.3090 N.3   124  GLY124     -0.1210
      2  CA        28.8550   22.4630   29.5570 C.3   124  GLY124      0.1956
      3  C         29.6230   21.3510   30.2350 C.2   124  GLY124      0.2611
      4  O         29.2040   20.1980   30.2010 O.2   124  GLY124     -0.2717
      5  N         30.7500   21.6950   30.8470 N.am  125  LEU125     -0.1979
      6  CA        31.5880   20.7040   31.5160 C.3   125  LEU125      0.1596
      7  C         30.8470   20.1270   32.7170 C.2   125  LEU125      0.2287
      8  O         30.8220   18.9120   32.9150 O.2   125  LEU125     -0.2864
      9  CB        32.9330   21.3250   31.9270 C.3   125  LEU125      0.0297
     10  CG        33.9060   20.4420   32.7250 C.3   125  LEU125      0.0022
     11  CD1       35.3350   20.9430   32.5570 C.3   125  LEU125      0.0001
     12  CD2       33.5490   20.4280   34.2020 C.3   125  LEU125      0.0001
     13  N         27.9000   17.9950   31.5300 N.3   128  LEU128     -0.1245
     14  CA        28.3770   16.7220   30.9900 C.3   128  LEU128      0.1561
     15  C         28.5640   15.6900   32.0910 C.2   128  LEU128      0.2260
     16  O         28.1740   14.5320   31.9380 O.2   128  LEU128     -0.2867
     17  CB        29.6800   16.9050   30.2260 C.3   128  LEU128      0.0270
     18  CG        30.1360   15.6420   29.4880 C.3   128  LEU128      0.0019
     19  CD1       29.2940   15.4040   28.2420 C.3   128  LEU128      0.0001
     20  CD2       31.6100   15.7400   29.1360 C.3   128  LEU128      0.0001
     21  N         34.0300   31.0720   36.5440 N.3   262  ASN262     -0.1225
     22  CA        34.7300   31.2210   35.2640 C.3   262  ASN262      0.1785
     23  C         34.4870   30.0570   34.3100 C.2   262  ASN262      0.2597
     24  O         34.7460   28.8990   34.6380 O.2   262  ASN262     -0.2718
     25  CB        36.2310   31.3270   35.4880 C.3   262  ASN262      0.1169
     26  CG        36.5920   32.4450   36.4290 C.2   262  ASN262      0.2627
     27  OD1       36.1240   33.5700   36.2700 O.2   262  ASN262     -0.2716
     28  ND2       37.4160   32.1420   37.4280 N.am  262  ASN262     -0.0877
     29  N         34.0050   30.3740   33.1210 N.am  263  ASP263     -0.1960
     30  CA        33.8070   29.3770   32.0870 C.3   263  ASP263      0.1840
     31  C         34.9570   29.5230   31.0910 C.2   263  ASP263      0.2622
     32  O         35.1350   30.5870   30.5100 O.2   263  ASP263     -0.2715
     33  CB        32.4720   29.6230   31.3960 C.3   263  ASP263      0.1450
     34  CG        32.0400   28.4630   30.5410 C.2   263  ASP263      0.3671
     35  OD1       31.3830   27.5590   31.0880 O.co2 263  ASP263     -0.2456
     36  OD2       32.3480   28.4580   29.3280 O.co2 263  ASP263     -0.2456
     37  N         35.7420   28.4670   30.8980 N.am  264  ASN264     -0.1972
     38  CA        36.8590   28.5060   29.9380 C.3   264  ASN264      0.1688
     39  C         37.8590   29.6460   30.2130 C.2   264  ASN264      0.2292
     40  O         38.3200   30.3220   29.2900 O.2   264  ASN264     -0.2864
     41  CB        36.3270   28.5890   28.4950 C.3   264  ASN264      0.1181
     42  CG        36.0740   27.2230   27.8840 C.2   264  ASN264      0.2629
     43  OD1       37.0040   26.5490   27.4470 O.2   264  ASN264     -0.2716
     44  ND2       34.8130   26.8150   27.8390 N.am  264  ASN264     -0.0877
     45  N         38.8430   17.1600   33.0640 N.3   310  ASP310     -0.1239
     46  CA        39.7590   18.2830   32.8270 C.3   310  ASP310      0.1674
     47  C         40.9500   18.1490   33.7880 C.2   310  ASP310      0.2266
     48  O         41.1180   17.1120   34.4260 O.2   310  ASP310     -0.2867
     49  CB        39.0470   19.6350   32.9930 C.3   310  ASP310      0.1410
     50  CG        39.5920   20.7050   32.0630 C.2   310  ASP310      0.3668
     51  OD1       40.8260   20.8480   31.9800 O.co2 310  ASP310     -0.2456
     52  OD2       38.7880   21.4160   31.4260 O.co2 310  ASP310     -0.2456
     53  N         41.3320   19.8960   36.4540 N.3   312  HIS312     -0.1241
     54  CA        40.9720   20.4410   37.7570 C.3   312  HIS312      0.1621
     55  C         41.3160   19.4920   38.9030 C.2   312  HIS312      0.2264
     56  O         41.7500   19.9540   39.9550 O.2   312  HIS312     -0.2867
     57  CB        39.5020   20.8790   37.8170 C.3   312  HIS312      0.0745
     58  CG        39.0940   21.7700   36.6830 C.ar  312  HIS312      0.0817
     59  ND1       37.8060   21.8160   36.2020 N.ar  312  HIS312     -0.2268
     60  CD2       39.8100   22.6320   35.9230 C.ar  312  HIS312      0.1154
     61  CE1       37.7430   22.6720   35.1980 C.ar  312  HIS312      0.1986
     62  NE2       38.9470   23.1790   35.0060 N.ar  312  HIS312     -0.2212
     63  N         38.9660   19.1340   27.7150 N.3   348  HIS348     -0.1226
     64  CA        37.6910   19.7120   27.2800 C.3   348  HIS348      0.1752
     65  C         37.8130   21.0130   26.4910 C.2   348  HIS348      0.2596
     66  O         36.8010   21.5570   26.0600 O.2   348  HIS348     -0.2718
     67  CB        36.7800   19.9520   28.4840 C.3   348  HIS348      0.0759
     68  CG        36.3550   18.7050   29.1910 C.ar  348  HIS348      0.0818
     69  ND1       35.2040   18.0250   28.8650 N.ar  348  HIS348     -0.2268
     70  CD2       36.9110   18.0320   30.2260 C.ar  348  HIS348      0.1154
     71  CE1       35.0710   16.9820   29.6630 C.ar  348  HIS348      0.1986
     72  NE2       36.0960   16.9610   30.4950 N.ar  348  HIS348     -0.2212
     73  N         39.0280   21.5230   26.2990 N.am  349  THR349     -0.1953
     74  CA        39.2030   22.7730   25.5580 C.3   349  THR349      0.1897
     75  C         40.6580   22.9990   25.1710 C.2   349  THR349      0.2313
     76  O         41.5650   22.5140   25.8410 O.2   349  THR349     -0.2863
     77  CB        38.6640   24.0010   26.3400 C.3   349  THR349      0.1794
     78  OG1       38.7880   25.1830   25.5350 O.3   349  THR349     -0.2208
     79  CG2       39.4050   24.1930   27.6730 C.3   349  THR349      0.0378
     80  N         36.8100   15.4050   23.2060 N.3   426  VAL426     -0.1245
     81  CA        35.3790   15.2670   23.4490 C.3   426  VAL426      0.1561
     82  C         34.5450   15.3930   22.1730 C.2   426  VAL426      0.2260
     83  O         33.3210   15.4170   22.2270 O.2   426  VAL426     -0.2867
     84  CB        34.9250   16.2840   24.5170 C.3   426  VAL426      0.0252
     85  CG1       35.4980   15.8930   25.8700 C.3   426  VAL426      0.0019
     86  CG2       35.3310   17.7090   24.1450 C.3   426  VAL426      0.0019
     87  N         31.1670   13.6390   22.9600 N.3   455  ASN455     -0.1240
     88  CA        30.1980   13.9370   24.0130 C.3   455  ASN455      0.1653
     89  C         28.7880   13.4970   23.6530 C.2   455  ASN455      0.2266
     90  O         28.4770   13.1820   22.4980 O.2   455  ASN455     -0.2867
     91  CB        30.1880   15.4490   24.3320 C.3   455  ASN455      0.1155
     92  CG        31.3490   15.8960   25.2270 C.2   455  ASN455      0.2627
     93  OD1       31.5700   17.1080   25.4090 O.2   455  ASN455     -0.2716
     94  ND2       32.0830   14.9510   25.7890 N.am  455  ASN455     -0.0877
     95  N         34.4190   33.6210   21.9800 N.3   544  TYR544     -0.1227
     96  CA        34.5800   32.5070   21.0410 C.3   544  TYR544      0.1736
     97  C         33.2440   31.9350   20.5720 C.2   544  TYR544      0.2595
     98  O         33.1510   31.4400   19.4520 O.2   544  TYR544     -0.2718
     99  CB        35.5210   31.4190   21.5820 C.3   544  TYR544      0.0548
    100  CG        34.9200   30.3090   22.4180 C.ar  544  TYR544     -0.0200
    101  CD1       34.3420   29.1920   21.8220 C.ar  544  TYR544     -0.0009
    102  CD2       35.0060   30.3340   23.8070 C.ar  544  TYR544     -0.0009
    103  CE1       33.8300   28.1560   22.5860 C.ar  544  TYR544      0.0417
    104  CE2       34.4950   29.3070   24.5790 C.ar  544  TYR544      0.0417
    105  CZ        33.9130   28.2160   23.9670 C.ar  544  TYR544      0.1957
    106  OH        33.3980   27.1980   24.7430 O.3   544  TYR544     -0.2866
    107  N         32.2190   32.0290   21.4110 N.am  545  LYS545     -0.1980
    108  CA        30.8850   31.5500   21.0550 C.3   545  LYS545      0.1596
    109  C         30.1540   32.5220   20.1090 C.2   545  LYS545      0.2287
    110  O         29.1550   32.1590   19.4870 O.2   545  LYS545     -0.2864
    111  CB        30.0650   31.2750   22.3200 C.3   545  LYS545      0.0298
    112  CG        30.5900   30.0880   23.1230 C.3   545  LYS545      0.0038
    113  CD        29.8770   29.9440   24.4580 C.3   545  LYS545      0.0206
    114  CE        30.4470   28.8440   25.3390 C.3   545  LYS545      0.1093
    115  NZ        30.0860   27.4660   24.8860 N.3   545  LYS545     -0.1314
    116  N         35.1650   25.6130   19.9050 N.3   643  GLU643     -0.1231
    117  CA        34.2320   24.8470   20.7370 C.3   643  GLU643      0.1699
    118  C         34.6260   23.3820   20.6700 C.2   643  GLU643      0.2592
    119  O         34.4070   22.7360   19.6550 O.2   643  GLU643     -0.2718
    120  CB        32.7850   25.0310   20.2600 C.3   643  GLU643      0.0402
    121  CG        31.7350   24.5360   21.2510 C.3   643  GLU643      0.1161
    122  CD        31.6100   25.4480   22.4550 C.2   643  GLU643      0.3649
    123  OE1       30.8750   26.4550   22.3780 O.co2 643  GLU643     -0.2457
    124  OE2       32.2880   25.1890   23.4670 O.co2 643  GLU643     -0.2457
    125  N         35.2090   22.8590   21.7460 N.am  644  ALA644     -0.1966
    126  CA        35.7270   21.4950   21.7390 C.3   644  ALA644      0.1728
    127  C         34.6630   20.5030   21.2710 C.2   644  ALA644      0.2617
    128  O         34.9230   19.6770   20.3990 O.2   644  ALA644     -0.2715
    129  CB        36.2540   21.1070   23.1090 C.3   644  ALA644      0.0334
    130  N         33.4670   20.6020   21.8460 N.am  645  SER645     -0.1936
    131  CA        32.3390   19.7730   21.4310 C.3   645  SER645      0.2055
    132  C         31.0750   20.6020   21.3430 C.2   645  SER645      0.2644
    133  O         30.4630   20.7040   20.2730 O.2   645  SER645     -0.2714
    134  CB        32.1370   18.6090   22.4030 C.3   645  SER645      0.2130
    135  OG        30.9550   17.8780   22.1170 O.3   645  SER645     -0.2179
    136  N         30.7010   21.2070   22.4670 N.am  646  GLY646     -0.1939
    137  CA        29.3590   21.7350   22.6420 C.3   646  GLY646      0.2014
    138  C         28.4530   20.5680   23.0080 C.2   646  GLY646      0.2639
    139  O         28.7100   19.4240   22.6220 O.2   646  GLY646     -0.2714
    140  N         27.4330   20.8460   23.8060 N.am  647  THR647     -0.1950
    141  CA        26.4070   19.8520   24.1320 C.3   647  THR647      0.1897
    142  C         25.0050   20.4240   23.9910 C.2   647  THR647      0.2313
    143  O         24.0520   19.6780   23.7500 O.2   647  THR647     -0.2863
    144  CB        26.5830   19.2770   25.5440 C.3   647  THR647      0.1794
    145  OG1       26.6740   20.3410   26.4890 O.3   647  THR647     -0.2208
    146  CG2       27.8200   18.4160   25.6200 C.3   647  THR647      0.0378
@<TRIPOS>BOND
     1    98    97    2
     2   110   109    2
     3   119   118    2
     4   116   117    1
     5   109   108    1
     6   120   117    1
     7   120   121    1
     8   133   132    2
     9   128   127    2
    10    97    96    1
    11    97   107   am
    12   118   117    1
    13   118   125   am
    14    96    99    1
    15    96    95    1
    16   108   107    1
    17   108   111    1
    18   121   122    1
    19   127   126    1
    20   127   130   am
    21   132   131    1
    22   132   136   am
    23   131   130    1
    24   131   134    1
    25    99   100    1
    26   126   125    1
    27   126   129    1
    28   101   100   ar
    29   101   103   ar
    30   135   134    1
    31    82    83    2
    32    82    81    1
    33   111   112    1
    34   123   122   ar
    35   100   102   ar
    36   122   124   ar
    37   136   137    1
    38    90    89    2
    39   103   105   ar
    40   139   138    2
    41   137   138    1
    42    87    88    1
    43   138   140   am
    44   112   113    1
    45    80    81    1
    46    81    84    1
    47    89    88    1
    48   143   142    2
    49   140   141    1
    50   102   104   ar
    51   105   104   ar
    52   105   106    1
    53   142   141    1
    54    88    91    1
    55   141   144    1
    56    86    84    1
    57    91    92    1
    58   113   114    1
    59    84    85    1
    60   115   114    1
    61    75    74    1
    62    75    76    2
    63    92    93    2
    64    92    94   am
    65    78    77    1
    66   144   146    1
    67   144   145    1
    68    74    73    1
    69    74    77    1
    70    66    65    2
    71    73    65   am
    72    77    79    1
    73    65    64    1
    74    64    63    1
    75    64    67    1
    76    43    42    2
    77    44    42   am
    78    42    41    1
    79    19    18    1
    80    67    68    1
    81    41    38    1
    82    69    68   ar
    83    69    71   ar
    84    20    18    1
    85    68    70   ar
    86    40    39    2
    87    36    34   ar
    88    18    17    1
    89     2     3    1
    90     2     1    1
    91    71    72   ar
    92    38    39    1
    93    38    37    1
    94     4     3    2
    95    70    72   ar
    96    17    14    1
    97     3     5   am
    98    32    31    2
    99    34    35   ar
   100    34    33    1
   101     5     6    1
   102    37    31   am
   103    14    13    1
   104    14    15    1
   105    31    30    1
   106    33    30    1
   107    52    50   ar
   108     6     9    1
   109     6     7    1
   110     9    10    1
   111    16    15    2
   112    51    50   ar
   113    50    49    1
   114    30    29    1
   115    11    10    1
   116     7     8    2
   117    10    12    1
   118    46    49    1
   119    46    45    1
   120    46    47    1
   121    29    23   am
   122    47    48    2
   123    23    24    2
   124    23    22    1
   125    62    61   ar
   126    62    60   ar
   127    61    59   ar
   128    22    25    1
   129    22    21    1
   130    25    26    1
   131    60    58   ar
   132    59    58   ar
   133    27    26    2
   134    26    28   am
   135    53    54    1
   136    58    57    1
   137    54    57    1
   138    54    55    1
   139    55    56    2
