@<TRIPOS>MOLECULE
tmp/4ctnA01.pdb
 222 212 0 0 0
SMALL
GASTEIGER

@<TRIPOS>ATOM
      1  N         32.7470   20.2590   39.1410 N.3    77  GLU77      -0.1245
      2  CA        31.4210   20.7460   38.7590 C.3    77  GLU77       0.1567
      3  C         30.4680   19.6000   38.4590 C.2    77  GLU77       0.2260
      4  O         30.8140   18.6580   37.7270 O.2    77  GLU77      -0.2867
      5  CB        31.5110   21.6530   37.5280 C.3    77  GLU77       0.0388
      6  CG        32.4600   22.8250   37.6790 C.3    77  GLU77       0.1160
      7  CD        32.3360   23.8500   36.5630 C.2    77  GLU77       0.3649
      8  OE1       31.3300   23.8600   35.8170 O.co2  77  GLU77      -0.2457
      9  OE2       33.2640   24.6630   36.4240 O.co2  77  GLU77      -0.2457
     10  N         29.2000   25.5280   35.9820 N.3   122  ASN122     -0.1240
     11  CA        29.1680   26.7430   35.1820 C.3   122  ASN122      0.1653
     12  C         28.3540   26.5860   33.9070 C.2   122  ASN122      0.2266
     13  O         27.7540   27.5400   33.4280 O.2   122  ASN122     -0.2867
     14  CB        30.5920   27.1560   34.8210 C.3   122  ASN122      0.1155
     15  CG        31.2460   27.9580   35.9150 C.2   122  ASN122      0.2627
     16  OD1       30.9030   29.1150   36.1180 O.2   122  ASN122     -0.2716
     17  ND2       32.1730   27.3480   36.6330 N.am  122  ASN122     -0.0877
     18  N         28.5910   23.6930   30.3550 N.3   124  GLY124     -0.1210
     19  CA        28.6730   22.4360   29.6440 C.3   124  GLY124      0.1956
     20  C         29.5030   21.3720   30.3200 C.2   124  GLY124      0.2611
     21  O         29.1760   20.1860   30.2560 O.2   124  GLY124     -0.2717
     22  N         30.5900   21.7750   30.9630 N.am  125  LEU125     -0.1979
     23  CA        31.4520   20.8070   31.6280 C.3   125  LEU125      0.1596
     24  C         30.7220   20.1710   32.8210 C.2   125  LEU125      0.2287
     25  O         30.7220   18.9530   32.9850 O.2   125  LEU125     -0.2864
     26  CB        32.7380   21.4910   32.0840 C.3   125  LEU125      0.0297
     27  CG        33.6520   20.6960   32.9980 C.3   125  LEU125      0.0022
     28  CD1       34.1450   19.4690   32.2670 C.3   125  LEU125      0.0001
     29  CD2       34.8060   21.5800   33.4230 C.3   125  LEU125      0.0001
     30  N         27.8130   18.0410   31.6010 N.3   128  LEU128     -0.1245
     31  CA        28.2820   16.7820   31.0520 C.3   128  LEU128      0.1561
     32  C         28.4620   15.7610   32.1460 C.2   128  LEU128      0.2260
     33  O         28.1310   14.5890   31.9670 O.2   128  LEU128     -0.2867
     34  CB        29.6000   16.9520   30.3050 C.3   128  LEU128      0.0270
     35  CG        30.0630   15.7210   29.5190 C.3   128  LEU128      0.0019
     36  CD1       29.2560   15.5660   28.2370 C.3   128  LEU128      0.0001
     37  CD2       31.5420   15.8250   29.1920 C.3   128  LEU128      0.0001
     38  N         33.7200   28.7610   41.6990 N.3   260  TYR260     -0.1241
     39  CA        34.3580   29.7530   40.8330 C.3   260  TYR260      0.1605
     40  C         33.5890   29.8710   39.5210 C.2   260  TYR260      0.2264
     41  O         33.4030   28.8720   38.8350 O.2   260  TYR260     -0.2867
     42  CB        35.8230   29.3920   40.5840 C.3   260  TYR260      0.0534
     43  CG        36.6920   29.9330   41.6750 C.ar  260  TYR260     -0.0201
     44  CD1       36.7830   29.2880   42.8930 C.ar  260  TYR260     -0.0009
     45  CD2       37.3470   31.1380   41.5220 C.ar  260  TYR260     -0.0009
     46  CE1       37.5570   29.8040   43.9170 C.ar  260  TYR260      0.0417
     47  CE2       38.1250   31.6640   42.5330 C.ar  260  TYR260      0.0417
     48  CZ        38.2220   30.9920   43.7260 C.ar  260  TYR260      0.1957
     49  OH        38.9730   31.5200   44.7280 O.3   260  TYR260     -0.2866
     50  N         34.3710   31.5380   36.7230 N.3   262  ASN262     -0.1225
     51  CA        35.1860   32.0180   35.6010 C.3   262  ASN262      0.1785
     52  C         35.4380   30.8870   34.6230 C.2   262  ASN262      0.2597
     53  O         36.5590   30.3850   34.5080 O.2   262  ASN262     -0.2718
     54  CB        36.4980   32.6520   36.0800 C.3   262  ASN262      0.1169
     55  CG        37.1490   31.8690   37.2020 C.2   262  ASN262      0.2627
     56  OD1       36.6120   31.7970   38.3040 O.2   262  ASN262     -0.2716
     57  ND2       38.3040   31.2740   36.9260 N.am  262  ASN262     -0.0877
     58  N         34.3670   30.5150   33.9210 N.am  263  ASP263     -0.1960
     59  CA        34.3270   29.3730   33.0100 C.3   263  ASP263      0.1840
     60  C         35.2460   29.5640   31.8000 C.2   263  ASP263      0.2622
     61  O         35.2320   30.6100   31.1560 O.2   263  ASP263     -0.2715
     62  CB        32.8850   29.1930   32.5130 C.3   263  ASP263      0.1450
     63  CG        32.6490   27.8590   31.8390 C.2   263  ASP263      0.3671
     64  OD1       33.4520   26.9200   32.0400 O.co2 263  ASP263     -0.2456
     65  OD2       31.6360   27.7420   31.1140 O.co2 263  ASP263     -0.2456
     66  N         36.0220   28.5350   31.4760 N.am  264  ASN264     -0.1958
     67  CA        36.9930   28.6010   30.3750 C.3   264  ASN264      0.1819
     68  C         38.0280   29.7230   30.5450 C.2   264  ASN264      0.2621
     69  O         38.5500   30.2440   29.5670 O.2   264  ASN264     -0.2715
     70  CB        36.2760   28.7140   29.0100 C.3   264  ASN264      0.1195
     71  CG        36.2280   27.3930   28.2640 C.2   264  ASN264      0.2630
     72  OD1       37.2530   26.7270   28.0790 O.2   264  ASN264     -0.2716
     73  ND2       35.0400   27.0100   27.8210 N.am  264  ASN264     -0.0877
     74  N         38.3420   30.0680   31.7890 N.am  265  PHE265     -0.1960
     75  CA        39.3240   31.1050   32.0680 C.3   265  PHE265      0.1771
     76  C         40.0470   30.8590   33.3930 C.2   265  PHE265      0.2619
     77  O         39.4530   30.9770   34.4670 O.2   265  PHE265     -0.2715
     78  CB        38.6520   32.4740   32.0870 C.3   265  PHE265      0.0574
     79  CG        39.6160   33.6070   32.2230 C.ar  265  PHE265     -0.0200
     80  CD1       40.2870   34.0950   31.1140 C.ar  265  PHE265     -0.0042
     81  CD2       39.8740   34.1740   33.4630 C.ar  265  PHE265     -0.0042
     82  CE1       41.1930   35.1410   31.2330 C.ar  265  PHE265     -0.0003
     83  CE2       40.7800   35.2170   33.5920 C.ar  265  PHE265     -0.0003
     84  CZ        41.4420   35.7000   32.4750 C.ar  265  PHE265     -0.0000
     85  N         41.3330   30.5300   33.3080 N.am  266  PHE266     -0.1974
     86  CA        42.1530   30.2680   34.4930 C.3   266  PHE266      0.1639
     87  C         42.6200   31.5740   35.1590 C.2   266  PHE266      0.2290
     88  O         43.2410   32.3960   34.5090 O.2   266  PHE266     -0.2864
     89  CB        43.3640   29.4190   34.0900 C.3   266  PHE266      0.0560
     90  CG        44.3640   29.2080   35.1960 C.ar  266  PHE266     -0.0200
     91  CD1       44.0380   28.4500   36.3070 C.ar  266  PHE266     -0.0042
     92  CD2       45.6400   29.7580   35.1140 C.ar  266  PHE266     -0.0042
     93  CE1       44.9640   28.2380   37.3170 C.ar  266  PHE266     -0.0003
     94  CE2       46.5710   29.5530   36.1210 C.ar  266  PHE266     -0.0003
     95  CZ        46.2330   28.7890   37.2210 C.ar  266  PHE266     -0.0000
     96  N         41.0410   28.4990   44.9390 N.3   272  ARG272     -0.1245
     97  CA        40.6940   27.5120   43.9240 C.3   272  ARG272      0.1563
     98  C         41.6350   26.3100   43.9720 C.2   272  ARG272      0.2260
     99  O         41.2070   25.1680   43.8210 O.2   272  ARG272     -0.2867
    100  CB        40.6920   28.1590   42.5480 C.3   272  ARG272      0.0307
    101  CG        40.6160   27.1920   41.3860 C.3   272  ARG272      0.0489
    102  CD        39.2490   26.5500   41.2430 C.3   272  ARG272      0.2205
    103  NE        39.1990   25.8270   39.9810 N.pl3 272  ARG272     -0.0865
    104  CZ        38.1040   25.3400   39.4060 C.cat 272  ARG272      0.5346
    105  NH1       36.9040   25.4840   39.9680 N.pl3 272  ARG272      0.1354
    106  NH2       38.2210   24.7020   38.2470 N.pl3 272  ARG272      0.1354
    107  N         39.1300   17.5490   32.9270 N.3   310  ASP310     -0.1239
    108  CA        40.0620   18.6580   32.7770 C.3   310  ASP310      0.1674
    109  C         41.1950   18.4340   33.7870 C.2   310  ASP310      0.2266
    110  O         41.2860   17.3700   34.4130 O.2   310  ASP310     -0.2867
    111  CB        39.3760   20.0170   32.9960 C.3   310  ASP310      0.1410
    112  CG        39.1420   20.8060   31.7070 C.2   310  ASP310      0.3668
    113  OD1       39.4520   20.3380   30.5790 O.co2 310  ASP310     -0.2456
    114  OD2       38.6120   21.9380   31.8480 O.co2 310  ASP310     -0.2456
    115  N         41.5090   20.0190   36.5330 N.3   312  HIS312     -0.1241
    116  CA        41.1060   20.5380   37.8410 C.3   312  HIS312      0.1621
    117  C         41.3960   19.5550   38.9900 C.2   312  HIS312      0.2264
    118  O         41.7870   19.9770   40.0580 O.2   312  HIS312     -0.2867
    119  CB        39.6420   20.9820   37.8360 C.3   312  HIS312      0.0745
    120  CG        39.2940   21.8870   36.6990 C.ar  312  HIS312      0.0817
    121  ND1       38.0230   21.9690   36.1790 N.ar  312  HIS312     -0.2268
    122  CD2       40.0600   22.7220   35.9530 C.ar  312  HIS312      0.1154
    123  CE1       38.0120   22.8390   35.1830 C.ar  312  HIS312      0.1986
    124  NE2       39.2390   23.3020   35.0190 N.ar  312  HIS312     -0.2212
    125  N         38.7410   19.1170   27.9170 N.3   348  HIS348     -0.1226
    126  CA        37.4660   19.6690   27.4820 C.3   348  HIS348      0.1752
    127  C         37.5830   21.0020   26.7840 C.2   348  HIS348      0.2596
    128  O         36.5650   21.5730   26.4050 O.2   348  HIS348     -0.2718
    129  CB        36.5180   19.8400   28.6640 C.3   348  HIS348      0.0759
    130  CG        36.1720   18.5670   29.3470 C.ar  348  HIS348      0.0818
    131  ND1       35.0160   17.8700   29.0730 N.ar  348  HIS348     -0.2268
    132  CD2       36.8230   17.8660   30.3020 C.ar  348  HIS348      0.1154
    133  CE1       34.9760   16.7840   29.8230 C.ar  348  HIS348      0.1986
    134  NE2       36.0590   16.7610   30.5810 N.ar  348  HIS348     -0.2212
    135  N         38.7990   21.5170   26.6190 N.am  349  THR349     -0.1953
    136  CA        38.9720   22.7990   25.9620 C.3   349  THR349      0.1897
    137  C         40.4380   23.0100   25.6190 C.2   349  THR349      0.2313
    138  O         41.3150   22.5590   26.3550 O.2   349  THR349     -0.2863
    139  CB        38.4530   23.9630   26.8450 C.3   349  THR349      0.1794
    140  OG1       38.4760   25.1900   26.1090 O.3   349  THR349     -0.2208
    141  CG2       39.2810   24.1110   28.1180 C.3   349  THR349      0.0378
    142  N         42.4250   29.0380   29.3120 N.3   354  ALA354     -0.1245
    143  CA        41.7780   28.0910   30.2290 C.3   354  ALA354      0.1562
    144  C         42.7880   27.1310   30.8560 C.2   354  ALA354      0.2260
    145  O         42.4830   26.4630   31.8420 O.2   354  ALA354     -0.2867
    146  CB        40.6900   27.3130   29.5060 C.3   354  ALA354      0.0290
    147  N         45.4910   25.4770   33.0390 N.3   356  GLU356     -0.1245
    148  CA        45.9510   25.6750   34.4070 C.3   356  GLU356      0.1567
    149  C         47.4630   25.5800   34.4900 C.2   356  GLU356      0.2260
    150  O         48.0410   24.5330   34.2230 O.2   356  GLU356     -0.2867
    151  CB        45.3470   24.6380   35.3430 C.3   356  GLU356      0.0388
    152  CG        43.8570   24.8110   35.5630 C.3   356  GLU356      0.1160
    153  CD        43.3910   24.0320   36.7650 C.2   356  GLU356      0.3649
    154  OE1       43.3970   22.7870   36.6990 O.co2 356  GLU356     -0.2457
    155  OE2       43.0550   24.6660   37.7750 O.co2 356  GLU356     -0.2457
    156  N         36.7430   15.4140   23.2450 N.3   426  VAL426     -0.1245
    157  CA        35.3170   15.2640   23.4880 C.3   426  VAL426      0.1561
    158  C         34.4840   15.4160   22.2300 C.2   426  VAL426      0.2260
    159  O         33.2530   15.4750   22.2990 O.2   426  VAL426     -0.2867
    160  CB        34.8580   16.2540   24.5710 C.3   426  VAL426      0.0252
    161  CG1       35.4150   15.8210   25.9120 C.3   426  VAL426      0.0019
    162  CG2       35.2710   17.6830   24.2320 C.3   426  VAL426      0.0019
    163  N         31.0990   13.6510   23.0040 N.3   455  ASN455     -0.1240
    164  CA        30.1700   13.9080   24.0830 C.3   455  ASN455      0.1653
    165  C         28.7510   13.4780   23.7340 C.2   455  ASN455      0.2266
    166  O         28.4170   13.2430   22.5700 O.2   455  ASN455     -0.2867
    167  CB        30.1800   15.4020   24.4270 C.3   455  ASN455      0.1155
    168  CG        31.3410   15.7900   25.3410 C.2   455  ASN455      0.2627
    169  OD1       31.9720   14.9370   25.9690 O.2   455  ASN455     -0.2716
    170  ND2       31.6050   17.0860   25.4380 N.am  455  ASN455     -0.0877
    171  N         34.3340   33.6030   22.0540 N.3   544  TYR544     -0.1227
    172  CA        34.5090   32.4900   21.1230 C.3   544  TYR544      0.1736
    173  C         33.1870   31.9010   20.6320 C.2   544  TYR544      0.2595
    174  O         33.1340   31.3430   19.5340 O.2   544  TYR544     -0.2718
    175  CB        35.4330   31.4140   21.6890 C.3   544  TYR544      0.0548
    176  CG        34.8170   30.2970   22.5010 C.ar  544  TYR544     -0.0200
    177  CD1       34.2570   29.1910   21.8810 C.ar  544  TYR544     -0.0009
    178  CD2       34.8930   30.2970   23.8890 C.ar  544  TYR544     -0.0009
    179  CE1       33.7320   28.1510   22.6140 C.ar  544  TYR544      0.0417
    180  CE2       34.3750   29.2510   24.6360 C.ar  544  TYR544      0.0417
    181  CZ        33.7990   28.1850   23.9960 C.ar  544  TYR544      0.1957
    182  OH        33.2840   27.1510   24.7360 O.3   544  TYR544     -0.2866
    183  N         32.1420   32.0370   21.4400 N.am  545  LYS545     -0.1980
    184  CA        30.8090   31.5500   21.0900 C.3   545  LYS545      0.1596
    185  C         30.0870   32.5380   20.1610 C.2   545  LYS545      0.2287
    186  O         29.0240   32.2350   19.6200 O.2   545  LYS545     -0.2864
    187  CB        29.9980   31.2720   22.3640 C.3   545  LYS545      0.0298
    188  CG        30.5480   30.1080   23.1700 C.3   545  LYS545      0.0038
    189  CD        29.9200   30.0140   24.5490 C.3   545  LYS545      0.0206
    190  CE        30.4070   28.8250   25.3560 C.3   545  LYS545      0.1093
    191  NZ        29.9650   27.5220   24.7930 N.3   545  LYS545     -0.1314
    192  N         35.1410   25.6150   20.1010 N.3   643  GLU643     -0.1231
    193  CA        34.1980   24.8370   20.9160 C.3   643  GLU643      0.1699
    194  C         34.6030   23.3730   20.8630 C.2   643  GLU643      0.2592
    195  O         34.3990   22.7430   19.8500 O.2   643  GLU643     -0.2718
    196  CB        32.7620   24.9890   20.3950 C.3   643  GLU643      0.0402
    197  CG        31.6890   24.4980   21.3650 C.3   643  GLU643      0.1161
    198  CD        31.5370   25.4240   22.5550 C.2   643  GLU643      0.3649
    199  OE1       30.8370   26.4500   22.4310 O.co2 643  GLU643     -0.2457
    200  OE2       32.1630   25.1620   23.5960 O.co2 643  GLU643     -0.2457
    201  N         35.1700   22.8300   21.9450 N.am  644  ALA644     -0.1966
    202  CA        35.6870   21.4590   21.9150 C.3   644  ALA644      0.1728
    203  C         34.6260   20.4870   21.4300 C.2   644  ALA644      0.2617
    204  O         34.8940   19.6470   20.5700 O.2   644  ALA644     -0.2715
    205  CB        36.2080   21.0280   23.2770 C.3   644  ALA644      0.0334
    206  N         33.4200   20.6070   21.9800 N.am  645  SER645     -0.1936
    207  CA        32.3040   19.7920   21.5240 C.3   645  SER645      0.2055
    208  C         31.0460   20.6180   21.4170 C.2   645  SER645      0.2644
    209  O         30.4690   20.7250   20.3300 O.2   645  SER645     -0.2714
    210  CB        32.0740   18.6020   22.4510 C.3   645  SER645      0.2130
    211  OG        30.8030   18.0110   22.2200 O.3   645  SER645     -0.2179
    212  N         30.6440   21.2180   22.5340 N.am  646  GLY646     -0.1939
    213  CA        29.2920   21.7210   22.6860 C.3   646  GLY646      0.2014
    214  C         28.3850   20.5570   23.0700 C.2   646  GLY646      0.2639
    215  O         28.6570   19.4070   22.7270 O.2   646  GLY646     -0.2714
    216  N         27.3500   20.8490   23.8480 N.am  647  THR647     -0.1950
    217  CA        26.3160   19.8640   24.1670 C.3   647  THR647      0.1897
    218  C         24.9190   20.4400   24.0090 C.2   647  THR647      0.2313
    219  O         23.9680   19.6990   23.7600 O.2   647  THR647     -0.2863
    220  CB        26.4590   19.3070   25.5860 C.3   647  THR647      0.1794
    221  OG1       26.5400   20.3930   26.5080 O.3   647  THR647     -0.2208
    222  CG2       27.6830   18.4470   25.6910 C.3   647  THR647      0.0378
@<TRIPOS>BOND
     1   174   173    2
     2   186   185    2
     3   195   194    2
     4   192   193    1
     5   185   184    1
     6   209   208    2
     7   196   193    1
     8   196   197    1
     9   204   203    2
    10   173   172    1
    11   173   183   am
    12   194   193    1
    13   194   201   am
    14   184   183    1
    15   184   187    1
    16   172   175    1
    17   172   171    1
    18   197   198    1
    19   208   207    1
    20   208   212   am
    21   203   202    1
    22   203   206   am
    23   207   206    1
    24   207   210    1
    25   175   176    1
    26   177   176   ar
    27   177   179   ar
    28   202   201    1
    29   202   205    1
    30   211   210    1
    31   158   159    2
    32   158   157    1
    33   187   188    1
    34   199   198   ar
    35   176   178   ar
    36   212   213    1
    37   198   200   ar
    38   166   165    2
    39   179   181   ar
    40   213   214    1
    41   215   214    2
    42   163   164    1
    43   214   216   am
    44   188   189    1
    45   156   157    1
    46   157   160    1
    47   165   164    1
    48   219   218    2
    49   216   217    1
    50   178   180   ar
    51   181   180   ar
    52   181   182    1
    53   218   217    1
    54   164   167    1
    55   217   220    1
    56   162   160    1
    57   167   168    1
    58   189   190    1
    59   160   161    1
    60   191   190    1
    61   168   170   am
    62   168   169    2
    63   220   222    1
    64   220   221    1
    65   137   136    1
    66   137   138    2
    67   136   135    1
    68   136   139    1
    69   140   139    1
    70   128   127    2
    71   135   127   am
    72   127   126    1
    73   139   141    1
    74   126   125    1
    75   126   129    1
    76    73    71   am
    77    72    71    2
    78    36    35    1
    79    71    70    1
    80   129   130    1
    81    70    67    1
    82   131   130   ar
    83   131   133   ar
    84    37    35    1
    85   142   143    1
    86   130   132   ar
    87   146   143    1
    88    35    34    1
    89    69    68    2
    90    19    20    1
    91    19    18    1
    92   133   134   ar
    93   143   144    1
    94    21    20    2
    95   132   134   ar
    96    34    31    1
    97    20    22   am
    98    67    68    1
    99    67    66    1
   100    68    74   am
   101   113   112   ar
   102   144   145    2
   103    22    23    1
   104    31    30    1
   105    31    32    1
   106    80    82   ar
   107    80    79   ar
   108    65    63   ar
   109    61    60    2
   110    82    84   ar
   111    66    60   am
   112    23    26    1
   113    23    24    1
   114   112   114   ar
   115   112   111    1
   116    74    75    1
   117    60    59    1
   118    63    64   ar
   119    63    62    1
   120    33    32    2
   121    75    78    1
   122    75    76    1
   123    26    27    1
   124    78    79    1
   125    79    81   ar
   126    28    27    1
   127    84    83   ar
   128    62    59    1
   129   108   107    1
   130   108   111    1
   131   108   109    1
   132    24    25    2
   133    27    29    1
   134    59    58    1
   135   147   148    1
   136    85    76   am
   137    85    86    1
   138    76    77    2
   139    13    12    2
   140    81    83   ar
   141   109   110    2
   142    12    11    1
   143    58    52   am
   144    89    86    1
   145    89    90    1
   146   150   149    2
   147   148   149    1
   148   148   151    1
   149    86    87    1
   150    53    52    2
   151    88    87    2
   152    52    51    1
   153    14    11    1
   154    14    15    1
   155   124   123   ar
   156   124   122   ar
   157    92    90   ar
   158    92    94   ar
   159    11    10    1
   160   123   121   ar
   161    90    91   ar
   162   151   152    1
   163   152   153    1
   164    51    54    1
   165    51    50    1
   166     8     7   ar
   167    15    16    2
   168    15    17   am
   169   122   120   ar
   170    54    55    1
   171    94    95   ar
   172   121   120   ar
   173    91    93   ar
   174     9     7   ar
   175   115   116    1
   176     7     6    1
   177   154   153   ar
   178   120   119    1
   179   153   155   ar
   180    57    55   am
   181    55    56    2
   182    95    93   ar
   183     5     6    1
   184     5     2    1
   185     4     3    2
   186   119   116    1
   187   116   117    1
   188   106   104    1
   189     3     2    1
   190     2     1    1
   191    41    40    2
   192   117   118    2
   193   104   105    1
   194   104   103    2
   195    40    39    1
   196   103   102    1
   197    42    39    1
   198    42    43    1
   199    39    38    1
   200   102   101    1
   201   101   100    1
   202    45    43   ar
   203    45    47   ar
   204    43    44   ar
   205    47    48   ar
   206   100    97    1
   207    44    46   ar
   208    48    46   ar
   209    48    49    1
   210    99    98    2
   211    97    98    1
   212    97    96    1
