@<TRIPOS>MOLECULE
tmp/4ctnA00.pdb
 120 117 0 0 0
SMALL
GASTEIGER

@<TRIPOS>ATOM
      1  N         39.1300   17.5490   32.9270 N.3   310  ASP310     -0.1225
      2  CA        40.0620   18.6580   32.7770 C.3   310  ASP310      0.1805
      3  C         41.1950   18.4340   33.7870 C.2   310  ASP310      0.2598
      4  O         41.2860   17.3700   34.4130 O.2   310  ASP310     -0.2718
      5  CB        39.3760   20.0170   32.9960 C.3   310  ASP310      0.1424
      6  CG        39.1420   20.8060   31.7070 C.2   310  ASP310      0.3668
      7  OD1       39.4520   20.3380   30.5790 O.co2 310  ASP310     -0.2456
      8  OD2       38.6120   21.9380   31.8480 O.co2 310  ASP310     -0.2456
      9  N         42.0460   19.4370   33.9470 N.am  311  THR311     -0.1939
     10  CA        43.1700   19.3490   34.8650 C.3   311  THR311      0.2028
     11  C         42.7720   19.6850   36.3130 C.2   311  THR311      0.2642
     12  O         43.5960   19.6430   37.2280 O.2   311  THR311     -0.2714
     13  CB        44.2700   20.3150   34.4130 C.3   311  THR311      0.1808
     14  OG1       43.7330   21.6360   34.3340 O.3   311  THR311     -0.2208
     15  CG2       44.8080   19.9220   33.0340 C.3   311  THR311      0.0379
     16  N         41.5090   20.0190   36.5330 N.am  312  HIS312     -0.1973
     17  CA        41.1060   20.5380   37.8410 C.3   312  HIS312      0.1656
     18  C         41.3960   19.5550   38.9900 C.2   312  HIS312      0.2291
     19  O         41.7870   19.9770   40.0580 O.2   312  HIS312     -0.2864
     20  CB        39.6420   20.9820   37.8360 C.3   312  HIS312      0.0771
     21  CG        39.2940   21.8870   36.6990 C.ar  312  HIS312      0.0820
     22  ND1       38.0230   21.9690   36.1790 N.ar  312  HIS312     -0.2267
     23  CD2       40.0600   22.7220   35.9530 C.ar  312  HIS312      0.1154
     24  CE1       38.0120   22.8390   35.1830 C.ar  312  HIS312      0.1986
     25  NE2       39.2390   23.3020   35.0190 N.ar  312  HIS312     -0.2212
     26  N         42.5860   10.8860   31.6010 N.3   345  TYR345     -0.1241
     27  CA        42.4070   12.3200   31.5360 C.3   345  TYR345      0.1605
     28  C         41.5500   12.7050   30.3420 C.2   345  TYR345      0.2264
     29  O         41.8100   12.2940   29.2170 O.2   345  TYR345     -0.2867
     30  CB        43.7840   12.9760   31.4770 C.3   345  TYR345      0.0534
     31  CG        43.8330   14.4060   30.9920 C.ar  345  TYR345     -0.0201
     32  CD1       43.0820   15.4020   31.5940 C.ar  345  TYR345     -0.0009
     33  CD2       44.6670   14.7640   29.9520 C.ar  345  TYR345     -0.0009
     34  CE1       43.1420   16.7160   31.1470 C.ar  345  TYR345      0.0417
     35  CE2       44.7330   16.0690   29.4940 C.ar  345  TYR345      0.0417
     36  CZ        43.9850   17.0470   30.1000 C.ar  345  TYR345      0.1957
     37  OH        44.0790   18.3470   29.6300 O.3   345  TYR345     -0.2866
     38  N         40.3430   16.0160   28.2760 N.3   347  ASN347     -0.1240
     39  CA        40.5010   17.4310   27.9880 C.3   347  ASN347      0.1653
     40  C         39.2050   17.9770   27.4180 C.2   347  ASN347      0.2266
     41  O         38.6420   17.3840   26.5140 O.2   347  ASN347     -0.2867
     42  CB        41.6090   17.6050   26.9560 C.3   347  ASN347      0.1155
     43  CG        41.7410   19.0310   26.4850 C.2   347  ASN347      0.2627
     44  OD1       41.2100   19.4040   25.4500 O.2   347  ASN347     -0.2716
     45  ND2       42.4520   19.8310   27.2410 N.am  347  ASN347     -0.0877
     46  N         38.7990   21.5170   26.6190 N.3   349  THR349     -0.1203
     47  CA        38.9720   22.7990   25.9620 C.3   349  THR349      0.1994
     48  C         40.4380   23.0100   25.6190 C.2   349  THR349      0.2618
     49  O         41.3150   22.5590   26.3550 O.2   349  THR349     -0.2717
     50  CB        38.4530   23.9630   26.8450 C.3   349  THR349      0.1784
     51  OG1       38.4760   25.1900   26.1090 O.3   349  THR349     -0.2211
     52  CG2       39.2810   24.1110   28.1180 C.3   349  THR349      0.0376
     53  N         40.6800   23.6830   24.4950 N.am  350  VAL350     -0.1965
     54  CA        42.0280   24.0480   24.0610 C.3   350  VAL350      0.1727
     55  C         42.2390   25.5640   24.0610 C.2   350  VAL350      0.2616
     56  O         43.2380   26.0410   23.5560 O.2   350  VAL350     -0.2715
     57  CB        42.3530   23.5030   22.6510 C.3   350  VAL350      0.0290
     58  CG1       42.0400   22.0140   22.5640 C.3   350  VAL350      0.0023
     59  CG2       41.6110   24.2840   21.5700 C.3   350  VAL350      0.0023
     60  N         41.3010   26.3220   24.6130 N.am  351  LEU351     -0.1964
     61  CA        41.4990   27.7620   24.7490 C.3   351  LEU351      0.1713
     62  C         42.6900   28.0010   25.6720 C.2   351  LEU351      0.2458
     63  O         42.6870   27.5160   26.8030 O.2   351  LEU351     -0.2730
     64  CB        40.2520   28.4330   25.3160 C.3   351  LEU351      0.0310
     65  CG        39.0600   28.4160   24.3620 C.3   351  LEU351      0.0022
     66  CD1       37.7840   28.8210   25.0810 C.3   351  LEU351      0.0001
     67  CD2       39.3140   29.3120   23.1600 C.3   351  LEU351      0.0001
     68  N         43.7160   28.7360   25.1900 N.am  352  PRO352     -0.2727
     69  CA        44.9600   28.9050   25.9610 C.3   352  PRO352      0.1402
     70  C         44.7530   29.5210   27.3340 C.2   352  PRO352      0.2269
     71  O         45.3910   29.1120   28.2930 O.2   352  PRO352     -0.2865
     72  CB        45.8200   29.8360   25.0810 C.3   352  PRO352      0.0296
     73  CG        44.9220   30.3510   24.0170 C.3   352  PRO352      0.0237
     74  CD        43.8050   29.3630   23.8590 C.3   352  PRO352      0.0939
     75  N         42.4250   29.0380   29.3120 N.3   354  ALA354     -0.1231
     76  CA        41.7780   28.0910   30.2290 C.3   354  ALA354      0.1694
     77  C         42.7880   27.1310   30.8560 C.2   354  ALA354      0.2592
     78  O         42.4830   26.4630   31.8420 O.2   354  ALA354     -0.2718
     79  CB        40.6900   27.3130   29.5060 C.3   354  ALA354      0.0304
     80  N         43.9840   27.0590   30.2800 N.am  355  LEU355     -0.1966
     81  CA        45.0140   26.1370   30.7430 C.3   355  LEU355      0.1728
     82  C         45.4900   26.4760   32.1570 C.2   355  LEU355      0.2616
     83  O         45.8260   27.6220   32.4540 O.2   355  LEU355     -0.2715
     84  CB        46.1830   26.1400   29.7540 C.3   355  LEU355      0.0311
     85  CG        47.4740   25.3560   30.0340 C.3   355  LEU355      0.0022
     86  CD1       47.2650   24.0030   30.7050 C.3   355  LEU355      0.0001
     87  CD2       48.2280   25.1820   28.7180 C.3   355  LEU355      0.0001
     88  N         45.4910   25.4770   33.0390 N.am  356  GLU356     -0.1977
     89  CA        45.9510   25.6750   34.4070 C.3   356  GLU356      0.1602
     90  C         47.4630   25.5800   34.4900 C.2   356  GLU356      0.2287
     91  O         48.0410   24.5330   34.2230 O.2   356  GLU356     -0.2864
     92  CB        45.3470   24.6380   35.3430 C.3   356  GLU356      0.0415
     93  CG        43.8570   24.8110   35.5630 C.3   356  GLU356      0.1163
     94  CD        43.3910   24.0320   36.7650 C.2   356  GLU356      0.3649
     95  OE1       43.3970   22.7870   36.6990 O.co2 356  GLU356     -0.2457
     96  OE2       43.0550   24.6660   37.7750 O.co2 356  GLU356     -0.2457
     97  N         48.1790   20.1510   32.4920 N.3   413  ALA413     -0.1245
     98  CA        47.8610   19.2980   31.3490 C.3   413  ALA413      0.1562
     99  C         49.0020   18.3190   31.0730 C.2   413  ALA413      0.2260
    100  O         48.7710   17.1320   30.8350 O.2   413  ALA413     -0.2867
    101  CB        47.5810   20.1370   30.1210 C.3   413  ALA413      0.0290
    102  N         48.0570   20.7910   19.9010 N.3   438  ILE438     -0.1231
    103  CA        48.2530   21.0970   21.3210 C.3   438  ILE438      0.1692
    104  C         49.1170   20.0730   22.0490 C.2   438  ILE438      0.2592
    105  O         49.9720   20.4510   22.8390 O.2   438  ILE438     -0.2718
    106  CB        46.9030   21.2210   22.0790 C.3   438  ILE438      0.0266
    107  CG1       45.9100   22.1050   21.3070 C.3   438  ILE438      0.0019
    108  CG2       47.1240   21.7780   23.4780 C.3   438  ILE438      0.0020
    109  CD1       46.4680   23.4490   20.8800 C.3   438  ILE438      0.0001
    110  N         48.8710   18.7880   21.8040 N.am  439  PHE439     -0.1976
    111  CA        49.6050   17.7200   22.4710 C.3   439  PHE439      0.1639
    112  C         50.3970   16.8860   21.4740 C.2   439  PHE439      0.2290
    113  O         50.7060   15.7240   21.7370 O.2   439  PHE439     -0.2864
    114  CB        48.6510   16.7970   23.2490 C.3   439  PHE439      0.0560
    115  CG        47.8600   17.4840   24.3260 C.ar  439  PHE439     -0.0200
    116  CD1       48.4000   18.5280   25.0720 C.ar  439  PHE439     -0.0042
    117  CD2       46.5740   17.0460   24.6300 C.ar  439  PHE439     -0.0042
    118  CE1       47.6560   19.1450   26.0670 C.ar  439  PHE439     -0.0003
    119  CE2       45.8360   17.6510   25.6370 C.ar  439  PHE439     -0.0003
    120  CZ        46.3740   18.7070   26.3480 C.ar  439  PHE439     -0.0000
@<TRIPOS>BOND
     1   102   103    1
     2   109   107    1
     3   107   106    1
     4   103   104    1
     5   103   106    1
     6   112   113    2
     7   112   111    1
     8    59    57    1
     9   110   104   am
    10   110   111    1
    11   104   105    2
    12   106   108    1
    13   111   114    1
    14    58    57    1
    15    57    54    1
    16    67    65    1
    17   114   115    1
    18    56    55    2
    19    74    73    1
    20    74    68    1
    21    73    72    1
    22    54    55    1
    23    54    53    1
    24    55    60   am
    25   115   117   ar
    26   115   116   ar
    27    65    66    1
    28    65    64    1
    29    53    48   am
    30    60    61    1
    31   117   119   ar
    32    61    64    1
    33    61    62    1
    34   116   118   ar
    35    72    69    1
    36    68    62   am
    37    68    69    1
    38    44    43    2
    39    48    47    1
    40    48    49    2
    41   119   120   ar
    42    62    63    2
    43    69    70    1
    44    47    46    1
    45    47    50    1
    46   118   120   ar
    47    51    50    1
    48    43    42    1
    49    43    45   am
    50    41    40    2
    51    50    52    1
    52    42    39    1
    53    70    71    2
    54    40    39    1
    55    39    38    1
    56    87    85    1
    57    29    28    2
    58    75    76    1
    59    35    33   ar
    60    35    36   ar
    61    79    76    1
    62    37    36    1
    63    84    85    1
    64    84    81    1
    65    33    31   ar
    66    85    86    1
    67    36    34   ar
    68   101    98    1
    69    76    77    1
    70    80    81    1
    71    80    77   am
    72    28    27    1
    73     7     6   ar
    74    81    82    1
    75   100    99    2
    76    77    78    2
    77    31    30    1
    78    31    32   ar
    79    99    98    1
    80    34    32   ar
    81    98    97    1
    82    30    27    1
    83    27    26    1
    84     6     8   ar
    85     6     5    1
    86    82    83    2
    87    82    88   am
    88     2     1    1
    89     2     5    1
    90     2     3    1
    91    15    13    1
    92    88    89    1
    93     3     9   am
    94     3     4    2
    95     9    10    1
    96    91    90    2
    97    14    13    1
    98    89    90    1
    99    89    92    1
   100    13    10    1
   101    10    11    1
   102    25    24   ar
   103    25    23   ar
   104    24    22   ar
   105    92    93    1
   106    93    94    1
   107    23    21   ar
   108    22    21   ar
   109    11    16   am
   110    11    12    2
   111    16    17    1
   112    21    20    1
   113    95    94   ar
   114    94    96   ar
   115    20    17    1
   116    17    18    1
   117    18    19    2
