@<TRIPOS>MOLECULE
tmp/4ctoA00.pdb
 217 207 0 0 0
SMALL
GASTEIGER

@<TRIPOS>ATOM
      1  N         32.8510   20.2180   39.0900 N.3    77  GLU77      -0.1245
      2  CA        31.5240   20.7010   38.7180 C.3    77  GLU77       0.1567
      3  C         30.5730   19.5500   38.4080 C.2    77  GLU77       0.2260
      4  O         30.9390   18.5980   37.7050 O.2    77  GLU77      -0.2867
      5  CB        31.6150   21.6090   37.4960 C.3    77  GLU77       0.0388
      6  CG        32.4560   22.8520   37.7290 C.3    77  GLU77       0.1160
      7  CD        32.3890   23.8380   36.5880 C.2    77  GLU77       0.3649
      8  OE1       31.3850   23.8340   35.8450 O.co2  77  GLU77      -0.2457
      9  OE2       33.3550   24.6190   36.4280 O.co2  77  GLU77      -0.2457
     10  N         29.0900   25.5320   35.8210 N.3   122  ASN122     -0.1240
     11  CA        29.0110   26.7560   35.0320 C.3   122  ASN122      0.1653
     12  C         28.2510   26.5660   33.7290 C.2   122  ASN122      0.2266
     13  O         27.5600   27.4650   33.2710 O.2   122  ASN122     -0.2867
     14  CB        30.4230   27.2340   34.7170 C.3   122  ASN122      0.1155
     15  CG        31.0360   27.9980   35.8640 C.2   122  ASN122      0.2627
     16  OD1       30.6860   29.1540   36.0980 O.2   122  ASN122     -0.2716
     17  ND2       31.9270   27.3550   36.6030 N.am  122  ASN122     -0.0877
     18  N         28.7570   23.6500   30.1890 N.3   124  GLY124     -0.1210
     19  CA        28.8890   22.3960   29.4640 C.3   124  GLY124      0.1956
     20  C         29.6910   21.3370   30.1800 C.2   124  GLY124      0.2611
     21  O         29.3190   20.1660   30.1710 O.2   124  GLY124     -0.2717
     22  N         30.7940   21.7440   30.8000 N.am  125  LEU125     -0.1979
     23  CA        31.6730   20.7990   31.4820 C.3   125  LEU125      0.1596
     24  C         30.9510   20.2020   32.6850 C.2   125  LEU125      0.2287
     25  O         30.9860   18.9880   32.8880 O.2   125  LEU125     -0.2864
     26  CB        32.9860   21.4810   31.8970 C.3   125  LEU125      0.0297
     27  CG        34.0810   20.6500   32.5890 C.3   125  LEU125      0.0022
     28  CD1       35.4450   21.3220   32.4530 C.3   125  LEU125      0.0001
     29  CD2       33.7780   20.4360   34.0580 C.3   125  LEU125      0.0001
     30  N         27.9360   18.0120   31.4840 N.3   128  LEU128     -0.1245
     31  CA        28.3980   16.7340   30.9480 C.3   128  LEU128      0.1561
     32  C         28.5900   15.7110   32.0530 C.2   128  LEU128      0.2260
     33  O         28.2230   14.5500   31.8960 O.2   128  LEU128     -0.2867
     34  CB        29.7040   16.9020   30.1820 C.3   128  LEU128      0.0270
     35  CG        30.1590   15.6390   29.4450 C.3   128  LEU128      0.0019
     36  CD1       29.3570   15.4500   28.1700 C.3   128  LEU128      0.0001
     37  CD2       31.6460   15.7070   29.1440 C.3   128  LEU128      0.0001
     38  N         33.7850   30.7840   36.4380 N.3   265  ASN265     -0.1225
     39  CA        34.4350   30.9640   35.1420 C.3   265  ASN265      0.1785
     40  C         34.2440   29.7660   34.2240 C.2   265  ASN265      0.2597
     41  O         34.3970   28.6180   34.6430 O.2   265  ASN265     -0.2718
     42  CB        35.9290   31.2050   35.3280 C.3   265  ASN265      0.1169
     43  CG        36.2150   32.3830   36.2350 C.2   265  ASN265      0.2627
     44  OD1       35.5770   33.4260   36.1250 O.2   265  ASN265     -0.2716
     45  ND2       37.1620   32.2160   37.1450 N.am  265  ASN265     -0.0877
     46  N         33.9120   30.0620   32.9740 N.am  266  ASP266     -0.1960
     47  CA        33.7470   29.0770   31.9220 C.3   266  ASP266      0.1840
     48  C         34.9340   29.2620   30.9810 C.2   266  ASP266      0.2622
     49  O         35.2020   30.3730   30.5400 O.2   266  ASP266     -0.2715
     50  CB        32.4320   29.3620   31.1880 C.3   266  ASP266      0.1450
     51  CG        32.0360   28.2650   30.2190 C.2   266  ASP266      0.3671
     52  OD1       31.4400   27.2640   30.6740 O.co2 266  ASP266     -0.2456
     53  OD2       32.2750   28.4200   28.9930 O.co2 266  ASP266     -0.2456
     54  N         35.6480   28.1810   30.6790 N.am  267  ASN267     -0.1958
     55  CA        36.7880   28.2320   29.7510 C.3   267  ASN267      0.1819
     56  C         37.7970   29.3130   30.1080 C.2   267  ASN267      0.2621
     57  O         38.2580   30.0480   29.2370 O.2   267  ASN267     -0.2715
     58  CB        36.3250   28.4670   28.3100 C.3   267  ASN267      0.1195
     59  CG        35.6840   27.2520   27.6990 C.2   267  ASN267      0.2630
     60  OD1       36.3390   26.4770   27.0140 O.2   267  ASN267     -0.2716
     61  ND2       34.4000   27.0780   27.9440 N.am  267  ASN267     -0.0877
     62  N         38.1240   29.4170   31.3890 N.am  268  PHE268     -0.1960
     63  CA        39.0660   30.4310   31.8420 C.3   268  PHE268      0.1771
     64  C         39.7270   29.9820   33.1330 C.2   268  PHE268      0.2619
     65  O         39.0470   29.6690   34.1120 O.2   268  PHE268     -0.2715
     66  CB        38.3540   31.7750   32.0340 C.3   268  PHE268      0.0574
     67  CG        39.2870   32.9200   32.3280 C.ar  268  PHE268     -0.0200
     68  CD1       40.0200   33.5120   31.3120 C.ar  268  PHE268     -0.0042
     69  CD2       39.4330   33.4010   33.6190 C.ar  268  PHE268     -0.0042
     70  CE1       40.8810   34.5670   31.5780 C.ar  268  PHE268     -0.0003
     71  CE2       40.2940   34.4540   33.8940 C.ar  268  PHE268     -0.0003
     72  CZ        41.0210   35.0370   32.8730 C.ar  268  PHE268     -0.0000
     73  N         41.0570   29.9390   33.1180 N.am  269  PHE269     -0.1974
     74  CA        41.8320   29.5840   34.2970 C.3   269  PHE269      0.1639
     75  C         42.0850   30.8320   35.1400 C.2   269  PHE269      0.2290
     76  O         42.6870   31.7930   34.6650 O.2   269  PHE269     -0.2864
     77  CB        43.1650   28.9470   33.8930 C.3   269  PHE269      0.0560
     78  CG        44.1040   28.7310   35.0410 C.ar  269  PHE269     -0.0200
     79  CD1       43.7350   27.9320   36.1110 C.ar  269  PHE269     -0.0042
     80  CD2       45.3630   29.3260   35.0520 C.ar  269  PHE269     -0.0042
     81  CE1       44.6020   27.7210   37.1730 C.ar  269  PHE269     -0.0003
     82  CE2       46.2310   29.1230   36.1150 C.ar  269  PHE269     -0.0003
     83  CZ        45.8520   28.3210   37.1740 C.ar  269  PHE269     -0.0000
     84  N         41.0920   28.3880   44.7880 N.3   275  ARG275     -0.1245
     85  CA        40.7820   27.3880   43.7680 C.3   275  ARG275      0.1563
     86  C         41.6970   26.1720   43.8750 C.2   275  ARG275      0.2260
     87  O         41.2590   25.0350   43.7210 O.2   275  ARG275     -0.2867
     88  CB        40.8840   27.9960   42.3750 C.3   275  ARG275      0.0307
     89  CG        40.7220   27.0030   41.2310 C.3   275  ARG275      0.0489
     90  CD        39.3520   26.3350   41.1910 C.3   275  ARG275      0.2205
     91  NE        39.2160   25.6110   39.9290 N.pl3 275  ARG275     -0.0865
     92  CZ        38.0740   25.2350   39.3560 C.cat 275  ARG275      0.5346
     93  NH1       36.8970   25.4800   39.9270 N.pl3 275  ARG275      0.1354
     94  NH2       38.1180   24.6140   38.1810 N.pl3 275  ARG275      0.1354
     95  N         38.9260   16.9810   33.0600 N.3   313  ASP313     -0.1239
     96  CA        39.9440   17.9840   32.7780 C.3   313  ASP313      0.1674
     97  C         41.0510   17.9380   33.8320 C.2   313  ASP313      0.2266
     98  O         41.1540   16.9710   34.5610 O.2   313  ASP313     -0.2867
     99  CB        39.3530   19.3790   32.6130 C.3   313  ASP313      0.1410
    100  CG        40.0770   20.1620   31.5470 C.2   313  ASP313      0.3668
    101  OD1       41.1440   20.7310   31.8680 O.co2 313  ASP313     -0.2456
    102  OD2       39.6260   20.1560   30.3860 O.co2 313  ASP313     -0.2456
    103  N         41.3900   19.7750   36.4270 N.3   315  HIS315     -0.1241
    104  CA        41.0110   20.3730   37.7040 C.3   315  HIS315      0.1621
    105  C         41.2950   19.4430   38.8970 C.2   315  HIS315      0.2264
    106  O         41.7070   19.9160   39.9520 O.2   315  HIS315     -0.2867
    107  CB        39.5600   20.8740   37.6810 C.3   315  HIS315      0.0745
    108  CG        39.2360   21.7110   36.4790 C.ar  315  HIS315      0.0817
    109  ND1       37.9520   21.8810   36.0120 N.ar  315  HIS315     -0.2268
    110  CD2       40.0380   22.3890   35.6240 C.ar  315  HIS315      0.1154
    111  CE1       37.9740   22.6490   34.9370 C.ar  315  HIS315      0.1986
    112  NE2       39.2300   22.9680   34.6790 N.ar  315  HIS315     -0.2212
    113  N         38.9670   19.1420   27.6700 N.3   351  HIS351     -0.1226
    114  CA        37.6900   19.7170   27.2320 C.3   351  HIS351      0.1752
    115  C         37.8110   21.0170   26.4360 C.2   351  HIS351      0.2596
    116  O         36.8020   21.5540   25.9950 O.2   351  HIS351     -0.2718
    117  CB        36.7710   19.9560   28.4320 C.3   351  HIS351      0.0759
    118  CG        36.3520   18.7060   29.1370 C.ar  351  HIS351      0.0818
    119  ND1       35.1680   18.0610   28.8590 N.ar  351  HIS351     -0.2268
    120  CD2       36.9540   17.9860   30.1100 C.ar  351  HIS351      0.1154
    121  CE1       35.0550   17.0000   29.6350 C.ar  351  HIS351      0.1986
    122  NE2       36.1280   16.9280   30.4010 N.ar  351  HIS351     -0.2212
    123  N         39.0230   21.5280   26.2410 N.am  352  THR352     -0.1953
    124  CA        39.1890   22.7650   25.4830 C.3   352  THR352      0.1897
    125  C         40.6420   22.9920   25.0920 C.2   352  THR352      0.2313
    126  O         41.5530   22.5230   25.7700 O.2   352  THR352     -0.2863
    127  CB        38.6690   23.9940   26.2680 C.3   352  THR352      0.1794
    128  OG1       38.6380   25.1410   25.4070 O.3   352  THR352     -0.2208
    129  CG2       39.5450   24.2760   27.4690 C.3   352  THR352      0.0378
    130  N         42.3440   28.8590   29.1130 N.3   357  ALA357     -0.1245
    131  CA        41.6360   27.8850   29.9460 C.3   357  ALA357      0.1562
    132  C         42.5810   26.8710   30.5980 C.2   357  ALA357      0.2260
    133  O         42.2030   26.1970   31.5570 O.2   357  ALA357     -0.2867
    134  CB        40.5860   27.1580   29.1150 C.3   357  ALA357      0.0290
    135  N         45.2890   25.1240   32.8290 N.3   359  GLU359     -0.1245
    136  CA        45.7930   25.3330   34.1760 C.3   359  GLU359      0.1567
    137  C         47.3090   25.2880   34.2270 C.2   359  GLU359      0.2260
    138  O         47.9230   24.2580   33.9550 O.2   359  GLU359     -0.2867
    139  CB        45.2420   24.2860   35.1260 C.3   359  GLU359      0.0388
    140  CG        43.7490   24.3960   35.3380 C.3   359  GLU359      0.1160
    141  CD        43.3280   23.6710   36.5870 C.2   359  GLU359      0.3649
    142  OE1       43.4090   22.4280   36.5910 O.co2 359  GLU359     -0.2457
    143  OE2       42.9450   24.3460   37.5600 O.co2 359  GLU359     -0.2457
    144  N         36.7930   15.3510   23.1460 N.3   429  VAL429     -0.1245
    145  CA        35.3610   15.2260   23.4090 C.3   429  VAL429      0.1561
    146  C         34.5150   15.3630   22.1390 C.2   429  VAL429      0.2260
    147  O         33.2830   15.4300   22.2020 O.2   429  VAL429     -0.2867
    148  CB        34.9390   16.2490   24.4810 C.3   429  VAL429      0.0252
    149  CG1       35.5450   15.8630   25.8250 C.3   429  VAL429      0.0019
    150  CG2       35.3600   17.6660   24.0870 C.3   429  VAL429      0.0019
    151  N         31.1420   13.6350   22.9310 N.3   458  ASN458     -0.1240
    152  CA        30.1890   13.9320   23.9870 C.3   458  ASN458      0.1653
    153  C         28.7750   13.5090   23.6190 C.2   458  ASN458      0.2266
    154  O         28.4700   13.1990   22.4630 O.2   458  ASN458     -0.2867
    155  CB        30.1890   15.4420   24.2960 C.3   458  ASN458      0.1155
    156  CG        31.3450   15.8750   25.1970 C.2   458  ASN458      0.2627
    157  OD1       31.5620   17.0770   25.4040 O.2   458  ASN458     -0.2716
    158  ND2       32.0770   14.9240   25.7370 N.am  458  ASN458     -0.0877
    159  N         34.3370   33.5770   21.9260 N.3   547  TYR547     -0.1227
    160  CA        34.5160   32.4800   20.9720 C.3   547  TYR547      0.1736
    161  C         33.1890   31.9010   20.4940 C.2   547  TYR547      0.2595
    162  O         33.1120   31.3770   19.3780 O.2   547  TYR547     -0.2718
    163  CB        35.4620   31.3930   21.5040 C.3   547  TYR547      0.0548
    164  CG        34.8500   30.2870   22.3350 C.ar  547  TYR547     -0.0200
    165  CD1       34.2900   29.1640   21.7370 C.ar  547  TYR547     -0.0009
    166  CD2       34.9010   30.3290   23.7190 C.ar  547  TYR547     -0.0009
    167  CE1       33.7570   28.1370   22.4990 C.ar  547  TYR547      0.0417
    168  CE2       34.3770   29.3090   24.4900 C.ar  547  TYR547      0.0417
    169  CZ        33.8100   28.2140   23.8810 C.ar  547  TYR547      0.1957
    170  OH        33.2920   27.2120   24.6660 O.3   547  TYR547     -0.2866
    171  N         32.1550   32.0160   21.3230 N.am  548  LYS548     -0.1980
    172  CA        30.8160   31.5400   20.9700 C.3   548  LYS548      0.1596
    173  C         30.0970   32.5030   20.0210 C.2   548  LYS548      0.2287
    174  O         29.1090   32.1380   19.3820 O.2   548  LYS548     -0.2864
    175  CB        29.9920   31.2940   22.2350 C.3   548  LYS548      0.0298
    176  CG        30.4790   30.0890   23.0260 C.3   548  LYS548      0.0038
    177  CD        29.8150   29.9940   24.3900 C.3   548  LYS548      0.0206
    178  CE        30.4220   28.9100   25.2720 C.3   548  LYS548      0.1093
    179  NZ        30.0620   27.5310   24.8400 N.3   548  LYS548     -0.1314
    180  N         37.2570   26.2180   18.0430 N.3   645  THR645     -0.1203
    181  CA        37.2210   26.7850   19.3950 C.3   645  THR645      0.1994
    182  C         36.2730   26.0580   20.3410 C.2   645  THR645      0.2618
    183  O         36.5880   25.9020   21.5090 O.2   645  THR645     -0.2717
    184  CB        36.8800   28.2850   19.3640 C.3   645  THR645      0.1784
    185  OG1       35.5720   28.4810   18.8190 O.3   645  THR645     -0.2211
    186  CG2       37.8980   29.0330   18.5110 C.3   645  THR645      0.0376
    187  N         35.1160   25.6220   19.8420 N.am  646  GLU646     -0.1965
    188  CA        34.1810   24.8470   20.6590 C.3   646  GLU646      0.1733
    189  C         34.5790   23.3810   20.5950 C.2   646  GLU646      0.2616
    190  O         34.3520   22.7350   19.5840 O.2   646  GLU646     -0.2715
    191  CB        32.7400   25.0370   20.1600 C.3   646  GLU646      0.0429
    192  CG        31.6730   24.5450   21.1280 C.3   646  GLU646      0.1163
    193  CD        31.5330   25.4510   22.3330 C.2   646  GLU646      0.3649
    194  OE1       30.7890   26.4520   22.2550 O.co2 646  GLU646     -0.2457
    195  OE2       32.2040   25.1970   23.3490 O.co2 646  GLU646     -0.2457
    196  N         35.1770   22.8580   21.6670 N.am  647  ALA647     -0.1963
    197  CA        35.6780   21.4820   21.6720 C.3   647  ALA647      0.1728
    198  C         34.6190   20.4830   21.2070 C.2   647  ALA647      0.2617
    199  O         34.8910   19.6390   20.3510 O.2   647  ALA647     -0.2715
    200  CB        36.1890   21.0990   23.0460 C.3   647  ALA647      0.0334
    201  N         33.4150   20.6000   21.7630 N.am  648  SER648     -0.1936
    202  CA        32.2980   19.7560   21.3590 C.3   648  SER648      0.2055
    203  C         31.0280   20.5730   21.2750 C.2   648  SER648      0.2644
    204  O         30.4340   20.7050   20.1990 O.2   648  SER648     -0.2714
    205  CB        32.1290   18.5900   22.3380 C.3   648  SER648      0.2130
    206  OG        30.9530   17.8410   22.0820 O.3   648  SER648     -0.2179
    207  N         30.6420   21.1520   22.4060 N.am  649  GLY649     -0.1939
    208  CA        29.3070   21.6800   22.5810 C.3   649  GLY649      0.2014
    209  C         28.4190   20.5100   22.9590 C.2   649  GLY649      0.2639
    210  O         28.6980   19.3640   22.5950 O.2   649  GLY649     -0.2714
    211  N         27.3860   20.7960   23.7370 N.am  650  THR650     -0.1950
    212  CA        26.3620   19.8110   24.0770 C.3   650  THR650      0.1897
    213  C         24.9700   20.3940   23.9330 C.2   650  THR650      0.2313
    214  O         24.0240   19.6580   23.6770 O.2   650  THR650     -0.2863
    215  CB        26.5260   19.2680   25.5040 C.3   650  THR650      0.1794
    216  OG1       26.6630   20.3630   26.4090 O.3   650  THR650     -0.2208
    217  CG2       27.7390   18.3640   25.5960 C.3   650  THR650      0.0378
@<TRIPOS>BOND
     1   180   181    1
     2   186   184    1
     3   185   184    1
     4   184   181    1
     5   162   161    2
     6   174   173    2
     7   181   182    1
     8   190   189    2
     9   187   182   am
    10   187   188    1
    11   173   172    1
    12   191   188    1
    13   191   192    1
    14   204   203    2
    15   182   183    2
    16   199   198    2
    17   161   160    1
    18   161   171   am
    19   189   188    1
    20   189   196   am
    21   172   171    1
    22   172   175    1
    23   160   163    1
    24   160   159    1
    25   192   193    1
    26   198   197    1
    27   198   201   am
    28   203   202    1
    29   203   207   am
    30   202   201    1
    31   202   205    1
    32   163   164    1
    33   196   197    1
    34   197   200    1
    35   165   164   ar
    36   165   167   ar
    37   206   205    1
    38   146   147    2
    39   146   145    1
    40   175   176    1
    41   194   193   ar
    42   193   195   ar
    43   164   166   ar
    44   207   208    1
    45   154   153    2
    46   167   169   ar
    47   208   209    1
    48   210   209    2
    49   151   152    1
    50   209   211   am
    51   176   177    1
    52   144   145    1
    53   145   148    1
    54   153   152    1
    55   214   213    2
    56   166   168   ar
    57   211   212    1
    58   169   168   ar
    59   169   170    1
    60   213   212    1
    61   152   155    1
    62   212   215    1
    63   150   148    1
    64   155   156    1
    65   177   178    1
    66   148   149    1
    67   179   178    1
    68   125   124    1
    69   125   126    2
    70   156   157    2
    71   156   158   am
    72   128   127    1
    73   124   123    1
    74   124   127    1
    75   215   217    1
    76   215   216    1
    77   116   115    2
    78   123   115   am
    79   127   129    1
    80   115   114    1
    81    60    59    2
    82   114   113    1
    83   114   117    1
    84    59    61   am
    85    59    58    1
    86    36    35    1
    87    58    55    1
    88   117   118    1
    89   119   118   ar
    90   119   121   ar
    91    53    51   ar
    92   130   131    1
    93   134   131    1
    94   118   120   ar
    95    37    35    1
    96    57    56    2
    97    35    34    1
    98    19    20    1
    99    19    18    1
   100   121   122   ar
   101    55    56    1
   102    55    54    1
   103   131   132    1
   104    56    62   am
   105   120   122   ar
   106    21    20    2
   107    20    22   am
   108    34    31    1
   109    51    52   ar
   110    51    50    1
   111   102   100   ar
   112    49    48    2
   113   132   133    2
   114    54    48   am
   115    22    23    1
   116    31    30    1
   117    31    32    1
   118    48    47    1
   119    50    47    1
   120    68    70   ar
   121    68    67   ar
   122    62    63    1
   123    23    26    1
   124    23    24    1
   125   100   101   ar
   126   100    99    1
   127    70    72   ar
   128    63    66    1
   129    63    64    1
   130    33    32    2
   131    26    27    1
   132    47    46    1
   133    66    67    1
   134    67    69   ar
   135    28    27    1
   136    27    29    1
   137    99    96    1
   138    24    25    2
   139    96    95    1
   140    96    97    1
   141   135   136    1
   142    72    71   ar
   143    46    40   am
   144    73    64   am
   145    73    74    1
   146    64    65    2
   147    13    12    2
   148    69    71   ar
   149    12    11    1
   150    97    98    2
   151    77    74    1
   152    77    78    1
   153   138   137    2
   154   136   137    1
   155   136   139    1
   156    40    41    2
   157    40    39    1
   158    74    75    1
   159    76    75    2
   160   112   111   ar
   161   112   110   ar
   162    14    11    1
   163    14    15    1
   164   111   109   ar
   165    11    10    1
   166    78    80   ar
   167    78    79   ar
   168    80    82   ar
   169   139   140    1
   170    39    42    1
   171    39    38    1
   172    42    43    1
   173   140   141    1
   174   110   108   ar
   175     8     7   ar
   176    15    16    2
   177    15    17   am
   178   109   108   ar
   179    79    81   ar
   180    82    83   ar
   181    44    43    2
   182    43    45   am
   183   103   104    1
   184     9     7   ar
   185   108   107    1
   186   141   142   ar
   187   141   143   ar
   188     7     6    1
   189    81    83   ar
   190     5     6    1
   191     5     2    1
   192   107   104    1
   193   104   105    1
   194     4     3    2
   195    94    92    1
   196     3     2    1
   197     2     1    1
   198   105   106    2
   199    92    93    1
   200    92    91    2
   201    91    90    1
   202    90    89    1
   203    89    88    1
   204    88    85    1
   205    87    86    2
   206    85    86    1
   207    85    84    1
