@<TRIPOS>MOLECULE
tmp/4cttA02.pdb
 173 170 0 0 0
SMALL
GASTEIGER

@<TRIPOS>ATOM
      1  N          2.6920    8.9320   34.8500 N.3    38  MET38      -0.1230
      2  CA         3.0960    8.4500   33.5150 C.3    38  MET38       0.1702
      3  C          3.1470    9.5080   32.4070 C.2    38  MET38       0.2592
      4  O          4.0940    9.5080   31.6100 O.2    38  MET38      -0.2718
      5  CB         2.1980    7.3080   33.0510 C.3    38  MET38       0.0401
      6  CG         2.6170    5.9620   33.6140 C.3    38  MET38       0.0596
      7  SD         2.8170    4.7170   32.3310 S.3    38  MET38      -0.1393
      8  CE         3.7390    5.6710   31.1280 C.3    38  MET38       0.0692
      9  N          2.1290   10.3780   32.3610 N.am   39  LEU39      -0.1980
     10  CA         1.9690   11.3860   31.3120 C.3    39  LEU39       0.1596
     11  C          1.5070   12.7540   31.8440 C.2    39  LEU39       0.2287
     12  O          0.3250   12.9420   32.1110 O.2    39  LEU39      -0.2864
     13  CB         0.9250   10.9310   30.2850 C.3    39  LEU39       0.0297
     14  CG         0.5650    9.4820   29.9320 C.3    39  LEU39       0.0022
     15  CD1       -0.9360    9.3080   30.1220 C.3    39  LEU39       0.0001
     16  CD2        0.9770    9.0920   28.5140 C.3    39  LEU39       0.0001
     17  N          1.7710    1.4400   17.6650 N.3   168  SER168     -0.1202
     18  CA         2.5590    2.1070   18.7030 C.3   168  SER168      0.2020
     19  C          4.0140    1.6320   18.6140 C.2   168  SER168      0.2618
     20  O          4.9530    2.3640   18.9530 O.2   168  SER168     -0.2717
     21  CB         1.9510    1.8970   20.0930 C.3   168  SER168      0.2103
     22  OG         1.7360    0.5210   20.3290 O.3   168  SER168     -0.2182
     23  N          4.1980    0.4230   18.0870 N.am  169  GLN169     -0.1979
     24  CA         5.5140   -0.0170   17.6160 C.3   169  GLN169      0.1601
     25  C          5.3420   -0.5460   16.2170 C.2   169  GLN169      0.2287
     26  O          4.2630   -1.0180   15.8570 O.2   169  GLN169     -0.2864
     27  CB         6.1260   -1.0870   18.5390 C.3   169  GLN169      0.0394
     28  CG         6.4960   -0.5820   19.9280 C.3   169  GLN169      0.0908
     29  CD         7.1370   -1.6550   20.8020 C.2   169  GLN169      0.2608
     30  OE1        7.7590   -2.6130   20.2960 O.2   169  GLN169     -0.2717
     31  NE2        6.9700   -1.5230   22.1150 N.am  169  GLN169     -0.0878
     32  N          4.6750   -5.2940   16.6720 N.3   172  ARG172     -0.1245
     33  CA         4.0550   -5.7630   17.8970 C.3   172  ARG172      0.1563
     34  C          3.0940   -6.9460   17.6290 C.2   172  ARG172      0.2260
     35  O          2.6140   -7.1340   16.5010 O.2   172  ARG172     -0.2867
     36  CB         3.3610   -4.6170   18.6340 C.3   172  ARG172      0.0307
     37  CG         4.1640   -4.1100   19.8290 C.3   172  ARG172      0.0489
     38  CD         3.4210   -3.0850   20.6710 C.3   172  ARG172      0.2205
     39  NE         3.8290   -3.1620   22.0720 N.pl3 172  ARG172     -0.0865
     40  CZ         3.3230   -2.3920   23.0480 C.cat 172  ARG172      0.5346
     41  NH1        2.3870   -1.4940   22.7580 N.pl3 172  ARG172      0.1354
     42  NH2        3.7450   -2.5090   24.3250 N.pl3 172  ARG172      0.1354
     43  N         13.0230   -3.2650   18.5610 N.3   256  PRO256     -0.2116
     44  CA        12.1140   -2.3740   19.2590 C.3   256  PRO256      0.1372
     45  C         12.0810   -1.0320   18.5290 C.2   256  PRO256      0.2244
     46  O         13.1150   -0.3760   18.3990 O.2   256  PRO256     -0.2868
     47  CB        12.7580   -2.2290   20.6460 C.3   256  PRO256      0.0268
     48  CG        14.2320   -2.4350   20.4000 C.3   256  PRO256      0.0207
     49  CD        14.3900   -3.2060   19.1010 C.3   256  PRO256      0.0892
     50  N          9.6020    2.3460   18.2720 N.3   258  VAL258     -0.1245
     51  CA         8.4490    3.0400   18.8090 C.3   258  VAL258      0.1561
     52  C          7.9510    3.9340   17.7300 C.2   258  VAL258      0.2260
     53  O          8.7320    4.6760   17.1530 O.2   258  VAL258     -0.2867
     54  CB         8.8120    3.8660   20.0750 C.3   258  VAL258      0.0252
     55  CG1        7.7700    4.9680   20.3490 C.3   258  VAL258      0.0019
     56  CG2        8.9690    2.9360   21.2710 C.3   258  VAL258      0.0019
     57  N          4.6330    5.8300   17.7850 N.3   260  ASN260     -0.1225
     58  CA         3.5230    6.7310   18.0790 C.3   260  ASN260      0.1785
     59  C          3.9280    8.0940   18.6220 C.2   260  ASN260      0.2597
     60  O          3.0490    8.9210   18.8790 O.2   260  ASN260     -0.2718
     61  CB         2.4420    6.0790   18.9790 C.3   260  ASN260      0.1169
     62  CG         3.0010    5.5020   20.2870 C.2   260  ASN260      0.2627
     63  OD1        2.2530    4.8930   21.0540 O.2   260  ASN260     -0.2716
     64  ND2        4.2980    5.6810   20.5500 N.am  260  ASN260     -0.0877
     65  N          5.2360    8.3450   18.7500 N.am  261  MET261     -0.1979
     66  CA         5.6960    9.5910   19.4010 C.3   261  MET261      0.1605
     67  C          5.8550   10.7590   18.4330 C.2   261  MET261      0.2287
     68  O          5.8920   10.5740   17.2270 O.2   261  MET261     -0.2864
     69  CB         6.9650    9.3510   20.2050 C.3   261  MET261      0.0413
     70  CG         6.7100    8.3630   21.3250 C.3   261  MET261      0.0598
     71  SD         7.9130    8.4190   22.6550 S.3   261  MET261     -0.1393
     72  CE         7.3470    9.8890   23.5050 C.3   261  MET261      0.0692
     73  N         11.1930    5.3420   15.4940 N.3   275  PHE275     -0.1227
     74  CA        12.6090    5.1920   15.8110 C.3   275  PHE275      0.1736
     75  C         12.8450    3.8330   16.4820 C.2   275  PHE275      0.2596
     76  O         11.9340    3.2580   17.0830 O.2   275  PHE275     -0.2718
     77  CB        13.0950    6.3590   16.6910 C.3   275  PHE275      0.0547
     78  CG        12.2850    6.5600   17.9510 C.ar  275  PHE275     -0.0202
     79  CD1       12.6300    5.9150   19.1230 C.ar  275  PHE275     -0.0042
     80  CD2       11.1850    7.4220   17.9690 C.ar  275  PHE275     -0.0042
     81  CE1       11.8970    6.1110   20.3060 C.ar  275  PHE275     -0.0003
     82  CE2       10.4490    7.6130   19.1330 C.ar  275  PHE275     -0.0003
     83  CZ        10.8030    6.9600   20.3050 C.ar  275  PHE275     -0.0000
     84  N         14.0610    3.3170   16.3610 N.am  276  SER276     -0.1938
     85  CA        14.3740    1.9910   16.8520 C.3   276  SER276      0.2055
     86  C         15.8190    1.9430   17.3100 C.2   276  SER276      0.2644
     87  O         16.6500    2.7190   16.8260 O.2   276  SER276     -0.2714
     88  CB        14.1650    0.9490   15.7590 C.3   276  SER276      0.2130
     89  OG        14.9950    1.2030   14.6150 O.3   276  SER276     -0.2179
     90  N         16.1010    1.0160   18.2330 N.am  277  GLY277     -0.1939
     91  CA        17.4400    0.6860   18.6550 C.3   277  GLY277      0.2014
     92  C         17.5140   -0.7990   18.8940 C.2   277  GLY277      0.2639
     93  O         17.3470   -1.6010   17.9640 O.2   277  GLY277     -0.2714
     94  N         17.8050   -1.1760   20.1320 N.am  278  TRP278     -0.1959
     95  CA        17.7640   -2.5720   20.5440 C.3   278  TRP278      0.1771
     96  C         17.3730   -2.7280   22.0130 C.2   278  TRP278      0.2620
     97  O         17.4760   -1.7770   22.8450 O.2   278  TRP278     -0.2715
     98  CB        19.0900   -3.2500   20.2790 C.3   278  TRP278      0.0590
     99  CG        20.2300   -2.5570   20.9680 C.ar  278  TRP278      0.0006
    100  CD1       20.5820   -2.6320   22.3240 C.ar  278  TRP278      0.0946
    101  CD2       21.2020   -1.6360   20.3740 C.ar  278  TRP278      0.0152
    102  NE1       21.6700   -1.8460   22.5850 N.ar  278  TRP278     -0.2442
    103  CE2       22.0930   -1.2240   21.4630 C.ar  278  TRP278      0.0810
    104  CE3       21.4070   -1.1180   19.1000 C.ar  278  TRP278      0.0012
    105  CZ2       23.1470   -0.3510   21.2550 C.ar  278  TRP278      0.0191
    106  CZ3       22.4720   -0.2340   18.9020 C.ar  278  TRP278      0.0001
    107  CH2       23.3270    0.1330   19.9480 C.ar  278  TRP278      0.0015
    108  N         16.9700   -3.9510   22.3460 N.am  279  TYR279     -0.1960
    109  CA        16.2820   -4.2100   23.5940 C.3   279  TYR279      0.1771
    110  C         17.2430   -4.2880   24.7750 C.2   279  TYR279      0.2619
    111  O         18.3810   -4.7780   24.6620 O.2   279  TYR279     -0.2715
    112  CB        15.5110   -5.5290   23.4680 C.3   279  TYR279      0.0574
    113  CG        14.0440   -5.4120   23.0510 C.ar  279  TYR279     -0.0198
    114  CD1       13.1240   -4.6860   23.8180 C.ar  279  TYR279     -0.0009
    115  CD2       13.5670   -6.0790   21.9270 C.ar  279  TYR279     -0.0009
    116  CE1       11.7820   -4.6030   23.4570 C.ar  279  TYR279      0.0417
    117  CE2       12.2340   -6.0030   21.5560 C.ar  279  TYR279      0.0417
    118  CZ        11.3460   -5.2580   22.3210 C.ar  279  TYR279      0.1957
    119  OH        10.0060   -5.2030   21.9630 O.3   279  TYR279     -0.2866
    120  N         16.7700   -3.8150   25.9190 N.am  280  MET280     -0.1977
    121  CA        17.3470   -4.1850   27.1900 C.3   280  MET280      0.1605
    122  C         16.5700   -5.4390   27.5620 C.2   280  MET280      0.2287
    123  O         15.3420   -5.4680   27.4150 O.2   280  MET280     -0.2864
    124  CB        17.2160   -3.0540   28.2290 C.3   280  MET280      0.0413
    125  CG        18.0430   -3.3020   29.5000 C.3   280  MET280      0.0598
    126  SD        18.2070   -1.9050   30.6670 S.3   280  MET280     -0.1393
    127  CE        16.4720   -1.7260   31.1120 C.3   280  MET280      0.0692
    128  N         12.9110   -5.4930   29.3260 N.3   283  GLU283     -0.1245
    129  CA        11.7340   -5.0010   28.6270 C.3   283  GLU283      0.1567
    130  C         10.8550   -6.1700   28.2200 C.2   283  GLU283      0.2260
    131  O          9.6350   -6.1400   28.4140 O.2   283  GLU283     -0.2867
    132  CB        12.1330   -4.2020   27.3950 C.3   283  GLU283      0.0388
    133  CG        12.6700   -2.7970   27.7050 C.3   283  GLU283      0.1160
    134  CD        13.1750   -2.0800   26.4440 C.2   283  GLU283      0.3649
    135  OE1       14.3620   -2.2750   26.0320 O.co2 283  GLU283     -0.2457
    136  OE2       12.3740   -1.3340   25.8320 O.co2 283  GLU283     -0.2457
    137  N          8.7380   -7.0600   31.7820 N.3   287  ARG287     -0.1245
    138  CA         7.4970   -6.3280   31.5400 C.3   287  ARG287      0.1563
    139  C          6.5440   -7.0960   30.6220 C.2   287  ARG287      0.2260
    140  O          5.4080   -7.3640   31.0150 O.2   287  ARG287     -0.2867
    141  CB         7.7680   -4.9030   30.9950 C.3   287  ARG287      0.0307
    142  CG         8.6610   -3.9900   31.8510 C.3   287  ARG287      0.0489
    143  CD         8.1300   -3.6860   33.2490 C.3   287  ARG287      0.2205
    144  NE         6.6900   -3.3760   33.2710 N.pl3 287  ARG287     -0.0865
    145  CZ         6.1570   -2.1910   32.9480 C.cat 287  ARG287      0.5346
    146  NH1        6.9400   -1.1820   32.5700 N.pl3 287  ARG287      0.1354
    147  NH2        4.8350   -2.0270   33.0030 N.pl3 287  ARG287      0.1354
    148  N         12.0960    5.8890   35.6290 N.3   369  TRP369     -0.1241
    149  CA        12.1750    5.1210   34.3950 C.3   369  TRP369      0.1605
    150  C         13.4970    4.4830   34.1150 C.2   369  TRP369      0.2264
    151  O         13.5410    3.4310   33.4470 O.2   369  TRP369     -0.2867
    152  CB        11.7890    5.9730   33.2220 C.3   369  TRP369      0.0550
    153  CG        10.3050    6.0880   33.1240 C.ar  369  TRP369      0.0003
    154  CD1        9.4170    6.6520   34.0590 C.ar  369  TRP369      0.0946
    155  CD2        9.4780    5.6490   32.0050 C.ar  369  TRP369      0.0152
    156  NE1        8.1280    6.5750   33.5980 N.ar  369  TRP369     -0.2442
    157  CE2        8.0980    5.9790   32.3630 C.ar  369  TRP369      0.0810
    158  CE3        9.7340    5.0170   30.8080 C.ar  369  TRP369      0.0012
    159  CZ2        7.0450    5.7060   31.5210 C.ar  369  TRP369      0.0191
    160  CZ3        8.6610    4.7470   29.9550 C.ar  369  TRP369      0.0001
    161  CH2        7.3430    5.0890   30.3060 C.ar  369  TRP369      0.0015
    162  N          4.7250   12.4900   23.8160 N.3   397  TYR397     -0.1241
    163  CA         3.5930   11.6310   23.5520 C.3   397  TYR397      0.1605
    164  C          2.5510   12.3940   22.7630 C.2   397  TYR397      0.2264
    165  O          2.5890   13.6260   22.6840 O.2   397  TYR397     -0.2867
    166  CB         2.9990   11.1030   24.8700 C.3   397  TYR397      0.0534
    167  CG         3.8150    9.9640   25.4330 C.ar  397  TYR397     -0.0201
    168  CD1        3.9280    8.7510   24.7240 C.ar  397  TYR397     -0.0009
    169  CD2        4.5140   10.1000   26.6450 C.ar  397  TYR397     -0.0009
    170  CE1        4.6950    7.7070   25.2110 C.ar  397  TYR397      0.0417
    171  CE2        5.2890    9.0570   27.1470 C.ar  397  TYR397      0.0417
    172  CZ         5.3740    7.8620   26.4190 C.ar  397  TYR397      0.1957
    173  OH         6.1210    6.8000   26.8860 O.3   397  TYR397     -0.2866
@<TRIPOS>BOND
     1    89    88    1
     2    73    74    1
     3    88    85    1
     4    74    75    1
     5    74    77    1
     6    26    25    2
     7    25    24    1
     8    84    75   am
     9    84    85    1
    10    75    76    2
    11    35    34    2
    12    32    33    1
    13    77    78    1
    14    87    86    2
    15    85    86    1
    16    53    52    2
    17    68    67    2
    18    86    90   am
    19    24    23    1
    20    24    27    1
    21    34    33    1
    22    17    18    1
    23    52    51    1
    24    57    58    1
    25    33    36    1
    26    78    80   ar
    27    78    79   ar
    28    93    92    2
    29    80    82   ar
    30    58    59    1
    31    58    61    1
    32    23    19   am
    33    90    91    1
    34    50    51    1
    35    46    45    2
    36    67    66    1
    37    45    44    1
    38    27    28    1
    39    43    49    1
    40    43    44    1
    41    19    18    1
    42    19    20    2
    43    59    65   am
    44    59    60    2
    45    36    37    1
    46    91    92    1
    47    18    21    1
    48    65    66    1
    49    51    54    1
    50    92    94   am
    51   106   104   ar
    52   106   107   ar
    53    61    62    1
    54   104   101   ar
    55    49    48    1
    56    79    81   ar
    57    82    83   ar
    58    44    47    1
    59    66    69    1
    60    37    38    1
    61    28    29    1
    62   107   105   ar
    63    54    55    1
    64    54    56    1
    65    21    22    1
    66    94    95    1
    67    69    70    1
    68    98    95    1
    69    98    99    1
    70    62    64   am
    71    62    63    2
    72    30    29    2
    73    83    81   ar
    74   101    99   ar
    75   101   103   ar
    76    48    47    1
    77    95    96    1
    78    38    39    1
    79    29    31   am
    80    99   100   ar
    81   105   103   ar
    82    70    71    1
    83   103   102   ar
    84   117   115   ar
    85   117   118   ar
    86   115   113   ar
    87   119   118    1
    88    96   108   am
    89    96    97    2
    90    39    40    2
    91   118   116   ar
    92   100   102   ar
    93   108   109    1
    94    71    72    1
    95   165   164    2
    96    41    40    1
    97   164   163    1
    98    40    42    1
    99   113   112    1
   100   113   114   ar
   101   116   114   ar
   102   112   109    1
   103   163   162    1
   104   163   166    1
   105   109   110    1
   106   111   110    2
   107   168   170   ar
   108   168   167   ar
   109   110   120   am
   110   166   167    1
   111   170   172   ar
   112   167   169   ar
   113   136   134   ar
   114   120   121    1
   115   135   134   ar
   116   172   173    1
   117   172   171   ar
   118   134   133    1
   119   169   171   ar
   120   121   122    1
   121   121   124    1
   122   132   133    1
   123   132   129    1
   124   123   122    2
   125   130   131    2
   126   130   129    1
   127   124   125    1
   128    16    14    1
   129   129   128    1
   130   125   126    1
   131    14    15    1
   132    14    13    1
   133   160   161   ar
   134   160   158   ar
   135    13    10    1
   136   161   159   ar
   137   139   140    2
   138   139   138    1
   139   126   127    1
   140   158   155   ar
   141   141   138    1
   142   141   142    1
   143     8     7    1
   144    10    11    1
   145    10     9    1
   146   159   157   ar
   147   138   137    1
   148     4     3    2
   149    11    12    2
   150   142   143    1
   151   155   157   ar
   152   155   153   ar
   153     7     6    1
   154     9     3   am
   155   157   156   ar
   156     3     2    1
   157   146   145    1
   158   145   147    1
   159   145   144    2
   160     5     2    1
   161     5     6    1
   162   153   152    1
   163   153   154   ar
   164   152   149    1
   165   143   144    1
   166   151   150    2
   167     2     1    1
   168   156   154   ar
   169   150   149    1
   170   149   148    1
