@<TRIPOS>MOLECULE
tmp/4ctwA02.pdb
 209 204 0 0 0
SMALL
GASTEIGER

@<TRIPOS>ATOM
      1  N          2.9280    8.8630   34.4710 N.3    38  MET38      -0.1230
      2  CA         3.3820    8.5350   33.1240 C.3    38  MET38       0.1702
      3  C          3.1930    9.6910   32.1340 C.2    38  MET38       0.2592
      4  O          4.0860    9.9430   31.3300 O.2    38  MET38      -0.2718
      5  CB         2.7440    7.2450   32.6090 C.3    38  MET38       0.0401
      6  CG         3.3040    5.9800   33.2610 C.3    38  MET38       0.0596
      7  SD         2.7080    4.4420   32.5030 S.3    38  MET38      -0.1393
      8  CE         3.9570    4.2690   31.2160 C.3    38  MET38       0.0692
      9  N          2.0540   10.3960   32.2210 N.am   39  LEU39      -0.1980
     10  CA         1.7540   11.5530   31.3670 C.3    39  LEU39       0.1596
     11  C          1.4310   12.8360   32.1840 C.2    39  LEU39       0.2287
     12  O          0.2580   13.1450   32.4140 O.2    39  LEU39      -0.2864
     13  CB         0.5830   11.2000   30.4290 C.3    39  LEU39       0.0297
     14  CG         0.6910    9.8450   29.7110 C.3    39  LEU39       0.0022
     15  CD1       -0.6530    9.3090   29.2380 C.3    39  LEU39       0.0001
     16  CD2        1.6710    9.9020   28.5580 C.3    39  LEU39       0.0001
     17  N         14.2620    9.4000   29.7480 N.3   105  ARG105     -0.1231
     18  CA        13.8400    8.0740   30.1520 C.3   105  ARG105      0.1694
     19  C         14.6470    6.9700   29.4830 C.2   105  ARG105      0.2592
     20  O         14.3020    5.7890   29.6520 O.2   105  ARG105     -0.2718
     21  CB        12.3400    7.8970   29.8800 C.3   105  ARG105      0.0321
     22  CG        11.5100    8.7930   30.7980 C.3   105  ARG105      0.0489
     23  CD        10.0790    8.9100   30.3190 C.3   105  ARG105      0.2205
     24  NE         9.1630    9.2370   31.4020 N.pl3 105  ARG105     -0.0865
     25  CZ         7.8800    9.5350   31.2080 C.cat 105  ARG105      0.5346
     26  NH1        7.3800    9.5800   29.9790 N.pl3 105  ARG105      0.1354
     27  NH2        7.0990    9.7920   32.2290 N.pl3 105  ARG105      0.1354
     28  N         15.6650    7.3340   28.6950 N.am  106  CYS106     -0.1970
     29  CA        16.3820    6.3320   27.8960 C.3   106  CYS106      0.1712
     30  C         17.7200    6.0170   28.5170 C.2   106  CYS106      0.2296
     31  O         18.5950    6.8930   28.5930 O.2   106  CYS106     -0.2864
     32  CB        16.5900    6.8150   26.4300 C.3   106  CYS106      0.0983
     33  SG        17.6350    5.7200   25.4140 S.3   106  CYS106     -0.0798
     34  N          1.7500    1.9340   17.6360 N.3   168  SER168     -0.1202
     35  CA         2.6070    2.4500   18.7140 C.3   168  SER168      0.2020
     36  C          4.0920    2.0770   18.5050 C.2   168  SER168      0.2618
     37  O          4.9940    2.8890   18.8070 O.2   168  SER168     -0.2717
     38  CB         2.0770    2.0150   20.0890 C.3   168  SER168      0.2103
     39  OG         2.0560    0.5990   20.2130 O.3   168  SER168     -0.2182
     40  N          4.3520    0.8660   18.0070 N.am  169  GLN169     -0.1979
     41  CA         5.7200    0.4710   17.5750 C.3   169  GLN169      0.1601
     42  C          5.5760   -0.1000   16.1700 C.2   169  GLN169      0.2287
     43  O          4.5050   -0.5800   15.8460 O.2   169  GLN169     -0.2864
     44  CB         6.3160   -0.6270   18.4530 C.3   169  GLN169      0.0394
     45  CG         6.7050   -0.2440   19.8710 C.3   169  GLN169      0.0908
     46  CD         7.0700   -1.4800   20.6910 C.2   169  GLN169      0.2608
     47  OE1        6.3920   -1.8050   21.6780 O.2   169  GLN169     -0.2717
     48  NE2        8.1150   -2.2000   20.2630 N.am  169  GLN169     -0.0878
     49  N          4.7500   -5.0660   16.4610 N.3   172  ARG172     -0.1245
     50  CA         4.0080   -5.4070   17.6760 C.3   172  ARG172      0.1563
     51  C          3.0210   -6.5220   17.3210 C.2   172  ARG172      0.2260
     52  O          2.6640   -6.6830   16.1620 O.2   172  ARG172     -0.2867
     53  CB         3.2460   -4.2060   18.2240 C.3   172  ARG172      0.0307
     54  CG         3.9980   -3.4530   19.3010 C.3   172  ARG172      0.0489
     55  CD         3.0600   -2.7270   20.2310 C.3   172  ARG172      0.2205
     56  NE         3.3800   -3.0380   21.6120 N.pl3 172  ARG172     -0.0865
     57  CZ         2.7610   -2.5090   22.6600 C.cat 172  ARG172      0.5346
     58  NH1        1.7800   -1.6330   22.4690 N.pl3 172  ARG172      0.1354
     59  NH2        3.1310   -2.8380   23.8920 N.pl3 172  ARG172      0.1354
     60  N         13.1220   -3.1500   18.5400 N.3   256  PRO256     -0.2116
     61  CA        12.2280   -2.1950   19.2050 C.3   256  PRO256      0.1372
     62  C         12.2320   -0.8460   18.4680 C.2   256  PRO256      0.2244
     63  O         13.2790   -0.1890   18.3170 O.2   256  PRO256     -0.2868
     64  CB        12.8400   -2.0610   20.6000 C.3   256  PRO256      0.0268
     65  CG        14.3210   -2.2890   20.3810 C.3   256  PRO256      0.0207
     66  CD        14.4740   -3.1650   19.1460 C.3   256  PRO256      0.0892
     67  N          9.8890    2.6210   18.1660 N.3   258  VAL258     -0.1245
     68  CA         8.7920    3.4950   18.5910 C.3   258  VAL258      0.1561
     69  C          8.3030    4.3350   17.4270 C.2   258  VAL258      0.2260
     70  O          9.0930    5.0420   16.7900 O.2   258  VAL258     -0.2867
     71  CB         9.2370    4.4760   19.6980 C.3   258  VAL258      0.0252
     72  CG1        8.0930    5.4450   20.0480 C.3   258  VAL258      0.0019
     73  CG2        9.7030    3.7180   20.9420 C.3   258  VAL258      0.0019
     74  N          5.0020    6.2050   17.6480 N.3   260  ASN260     -0.1225
     75  CA         3.8940    7.0830   18.0330 C.3   260  ASN260      0.1785
     76  C          4.3180    8.4080   18.6480 C.2   260  ASN260      0.2597
     77  O          3.4710    9.1900   19.1120 O.2   260  ASN260     -0.2718
     78  CB         2.8770    6.3530   18.9370 C.3   260  ASN260      0.1169
     79  CG         3.4930    5.8220   20.2390 C.2   260  ASN260      0.2627
     80  OD1        2.7910    5.2340   21.0550 O.2   260  ASN260     -0.2716
     81  ND2        4.7900    6.0010   20.4270 N.am  260  ASN260     -0.0877
     82  N          5.6120    8.6890   18.6170 N.am  261  MET261     -0.1979
     83  CA         6.0860    9.8960   19.2570 C.3   261  MET261      0.1605
     84  C          6.2560   11.0420   18.2940 C.2   261  MET261      0.2287
     85  O          6.2350   10.8580   17.0650 O.2   261  MET261     -0.2864
     86  CB         7.3410    9.6180   20.0790 C.3   261  MET261      0.0413
     87  CG         6.9800    8.8310   21.3310 C.3   261  MET261      0.0598
     88  SD         8.3450    8.5510   22.4610 S.3   261  MET261     -0.1393
     89  CE         8.2030    9.9230   23.6070 C.3   261  MET261      0.0692
     90  N         11.6150    5.4960   15.2480 N.3   275  PHE275     -0.1227
     91  CA        13.0250    5.3230   15.6140 C.3   275  PHE275      0.1736
     92  C         13.2610    3.9980   16.3180 C.2   275  PHE275      0.2596
     93  O         12.3560    3.4450   16.9320 O.2   275  PHE275     -0.2718
     94  CB        13.5390    6.5030   16.4500 C.3   275  PHE275      0.0547
     95  CG        12.7850    6.7350   17.7510 C.ar  275  PHE275     -0.0202
     96  CD1       13.1240    6.0420   18.9120 C.ar  275  PHE275     -0.0042
     97  CD2       11.7500    7.6590   17.8170 C.ar  275  PHE275     -0.0042
     98  CE1       12.4630    6.3010   20.1140 C.ar  275  PHE275     -0.0003
     99  CE2       11.0860    7.9250   19.0120 C.ar  275  PHE275     -0.0003
    100  CZ        11.4340    7.2330   20.1550 C.ar  275  PHE275     -0.0000
    101  N         14.4760    3.4910   16.2330 N.am  276  SER276     -0.1938
    102  CA        14.7730    2.1580   16.7560 C.3   276  SER276      0.2055
    103  C         16.1980    2.0240   17.2610 C.2   276  SER276      0.2644
    104  O         17.0850    2.7230   16.7950 O.2   276  SER276     -0.2714
    105  CB        14.4850    1.0760   15.6930 C.3   276  SER276      0.2130
    106  OG        15.2580    1.2580   14.4960 O.3   276  SER276     -0.2179
    107  N         16.3990    1.0990   18.2180 N.am  277  GLY277     -0.1939
    108  CA        17.7320    0.6770   18.6400 C.3   277  GLY277      0.2014
    109  C         17.8060   -0.8380   18.7720 C.2   277  GLY277      0.2639
    110  O         17.5610   -1.5900   17.8180 O.2   277  GLY277     -0.2714
    111  N         18.1210   -1.2830   19.9810 N.am  278  TRP278     -0.1959
    112  CA        18.0750   -2.6900   20.3200 C.3   278  TRP278      0.1771
    113  C         17.6080   -2.8240   21.7540 C.2   278  TRP278      0.2620
    114  O         17.6820   -1.8770   22.5360 O.2   278  TRP278     -0.2715
    115  CB        19.4360   -3.3590   20.1280 C.3   278  TRP278      0.0590
    116  CG        20.5930   -2.6950   20.8460 C.ar  278  TRP278      0.0006
    117  CD1       20.9240   -2.8220   22.1780 C.ar  278  TRP278      0.0946
    118  CD2       21.5890   -1.8410   20.2640 C.ar  278  TRP278      0.0152
    119  NE1       22.0630   -2.0900   22.4500 N.ar  278  TRP278     -0.2442
    120  CE2       22.4920   -1.4840   21.2960 C.ar  278  TRP278      0.0810
    121  CE3       21.7980   -1.3240   18.9720 C.ar  278  TRP278      0.0012
    122  CZ2       23.5820   -0.6170   21.0780 C.ar  278  TRP278      0.0191
    123  CZ3       22.9080   -0.4760   18.7500 C.ar  278  TRP278      0.0001
    124  CH2       23.7780   -0.1440   19.7920 C.ar  278  TRP278      0.0015
    125  N         17.1400   -4.0160   22.0820 N.am  279  TYR279     -0.1960
    126  CA        16.5250   -4.2990   23.3770 C.3   279  TYR279      0.1771
    127  C         17.4720   -4.3880   24.5570 C.2   279  TYR279      0.2619
    128  O         18.6210   -4.8250   24.4300 O.2   279  TYR279     -0.2715
    129  CB        15.7960   -5.6290   23.2800 C.3   279  TYR279      0.0574
    130  CG        14.3480   -5.4680   22.9150 C.ar  279  TYR279     -0.0198
    131  CD1       13.4960   -4.6940   23.7170 C.ar  279  TYR279     -0.0009
    132  CD2       13.8240   -6.0730   21.7800 C.ar  279  TYR279     -0.0009
    133  CE1       12.1590   -4.5680   23.4210 C.ar  279  TYR279      0.0417
    134  CE2       12.4820   -5.9430   21.4700 C.ar  279  TYR279      0.0417
    135  CZ        11.6610   -5.1830   22.2950 C.ar  279  TYR279      0.1957
    136  OH        10.3250   -5.0260   22.0060 O.3   279  TYR279     -0.2866
    137  N         16.9690   -3.9710   25.7090 N.am  280  MET280     -0.1977
    138  CA        17.5020   -4.4190   26.9790 C.3   280  MET280      0.1605
    139  C         16.6040   -5.5730   27.3590 C.2   280  MET280      0.2287
    140  O         15.3800   -5.4800   27.2140 O.2   280  MET280     -0.2864
    141  CB        17.4850   -3.3010   28.0250 C.3   280  MET280      0.0413
    142  CG        18.1950   -3.6700   29.3480 C.3   280  MET280      0.0598
    143  SD        18.3060   -2.2230   30.4230 S.3   280  MET280     -0.1393
    144  CE        16.5970   -1.9640   30.9060 C.3   280  MET280      0.0692
    145  N         13.0760   -5.5410   29.2240 N.3   283  GLU283     -0.1245
    146  CA        11.9260   -5.0140   28.5030 C.3   283  GLU283      0.1567
    147  C         11.0170   -6.1700   28.0600 C.2   283  GLU283      0.2260
    148  O          9.8080   -6.1010   28.2200 O.2   283  GLU283     -0.2867
    149  CB        12.3610   -4.2180   27.2790 C.3   283  GLU283      0.0388
    150  CG        13.1210   -2.9260   27.5890 C.3   283  GLU283      0.1160
    151  CD        13.4890   -2.2070   26.2900 C.2   283  GLU283      0.3649
    152  OE1       12.5750   -1.5700   25.7150 O.co2 283  GLU283     -0.2457
    153  OE2       14.6530   -2.3220   25.8310 O.co2 283  GLU283     -0.2457
    154  N          8.8090   -7.1530   31.4840 N.3   287  ARG287     -0.1231
    155  CA         7.6160   -6.3550   31.2270 C.3   287  ARG287      0.1694
    156  C          6.6430   -7.0510   30.2590 C.2   287  ARG287      0.2592
    157  O          5.5080   -7.2790   30.6110 O.2   287  ARG287     -0.2718
    158  CB         8.0020   -4.9510   30.7180 C.3   287  ARG287      0.0321
    159  CG         8.8430   -4.1070   31.6970 C.3   287  ARG287      0.0489
    160  CD         8.2010   -3.9410   33.0950 C.3   287  ARG287      0.2205
    161  NE         6.8120   -3.5070   32.9750 N.pl3 287  ARG287     -0.0865
    162  CZ         6.4530   -2.2530   32.6920 C.cat 287  ARG287      0.5346
    163  NH1        7.3930   -1.2760   32.5750 N.pl3 287  ARG287      0.1354
    164  NH2        5.1570   -1.9630   32.5600 N.pl3 287  ARG287      0.1354
    165  N          7.0950   -7.3720   29.0450 N.am  288  ASP288     -0.1974
    166  CA         6.2120   -7.9120   27.9980 C.3   288  ASP288      0.1709
    167  C          5.6600   -9.2820   28.3660 C.2   288  ASP288      0.2293
    168  O          4.4830   -9.5770   28.1130 O.2   288  ASP288     -0.2864
    169  CB         6.9510   -7.9980   26.6470 C.3   288  ASP288      0.1436
    170  CG         7.2880   -6.6420   26.0800 C.2   288  ASP288      0.3671
    171  OD1        6.5060   -5.6970   26.3070 O.co2 288  ASP288     -0.2456
    172  OD2        8.3350   -6.5140   25.4120 O.co2 288  ASP288     -0.2456
    173  N         -0.1060   -8.1500   30.5040 N.3   294  ARG294     -0.1245
    174  CA         0.5530   -8.4790   29.2410 C.3   294  ARG294      0.1563
    175  C          0.4540   -9.9700   28.9660 C.2   294  ARG294      0.2260
    176  O         -0.6520  -10.5370   29.0950 O.2   294  ARG294     -0.2867
    177  CB         1.9990   -7.9430   29.2050 C.3   294  ARG294      0.0307
    178  CG         2.0880   -6.4240   29.1570 C.3   294  ARG294      0.0489
    179  CD         1.4080   -5.8140   27.9280 C.3   294  ARG294      0.2205
    180  NE         2.1320   -6.0230   26.6620 N.pl3 294  ARG294     -0.0865
    181  CZ         3.3340   -5.5100   26.3550 C.cat 294  ARG294      0.5346
    182  NH1        4.0090   -4.7570   27.2230 N.pl3 294  ARG294      0.1354
    183  NH2        3.8740   -5.7620   25.1600 N.pl3 294  ARG294      0.1354
    184  N         12.2130    5.5980   35.3410 N.3   369  TRP369     -0.1241
    185  CA        12.3050    4.8080   34.1110 C.3   369  TRP369      0.1605
    186  C         13.6940    4.1530   33.8950 C.2   369  TRP369      0.2264
    187  O         13.7930    3.1260   33.2380 O.2   369  TRP369     -0.2867
    188  CB        11.9850    5.7030   32.9200 C.3   369  TRP369      0.0550
    189  CG        10.5130    5.8310   32.6740 C.ar  369  TRP369      0.0003
    190  CD1        9.5620    6.3420   33.5460 C.ar  369  TRP369      0.0946
    191  CD2        9.8120    5.4830   31.4680 C.ar  369  TRP369      0.0152
    192  NE1        8.3210    6.3150   32.9430 N.ar  369  TRP369     -0.2442
    193  CE2        8.4450    5.8080   31.6720 C.ar  369  TRP369      0.0810
    194  CE3       10.2100    4.9510   30.2260 C.ar  369  TRP369      0.0012
    195  CZ2        7.4640    5.5960   30.6870 C.ar  369  TRP369      0.0191
    196  CZ3        9.2320    4.7370   29.2390 C.ar  369  TRP369      0.0001
    197  CH2        7.8740    5.0650   29.4870 C.ar  369  TRP369      0.0015
    198  N          5.4160   12.4260   23.8600 N.3   397  TYR397     -0.1241
    199  CA         4.2990   11.5150   23.6970 C.3   397  TYR397      0.1605
    200  C          3.1930   12.2890   22.9680 C.2   397  TYR397      0.2264
    201  O          3.0680   13.5010   23.0940 O.2   397  TYR397     -0.2867
    202  CB         3.8380   10.9710   25.0630 C.3   397  TYR397      0.0534
    203  CG         2.5640   10.1280   25.0120 C.ar  397  TYR397     -0.0201
    204  CD1        1.2980   10.7320   25.0970 C.ar  397  TYR397     -0.0009
    205  CD2        2.6200    8.7290   24.8690 C.ar  397  TYR397     -0.0009
    206  CE1        0.1310    9.9800   25.0400 C.ar  397  TYR397      0.0417
    207  CE2        1.4560    7.9620   24.8140 C.ar  397  TYR397      0.0417
    208  CZ         0.2100    8.6010   24.9030 C.ar  397  TYR397      0.1957
    209  OH        -0.9700    7.8830   24.8560 O.3   397  TYR397     -0.2866
@<TRIPOS>BOND
     1   106   105    1
     2    90    91    1
     3    91    92    1
     4    91    94    1
     5   105   102    1
     6    43    42    2
     7    52    51    2
     8    42    41    1
     9   101    92   am
    10   101   102    1
    11    92    93    2
    12    94    95    1
    13    49    50    1
    14   102   103    1
    15    70    69    2
    16   104   103    2
    17    85    84    2
    18   103   107   am
    19    51    50    1
    20    69    68    1
    21    41    40    1
    22    41    44    1
    23    34    35    1
    24    74    75    1
    25    50    53    1
    26    95    97   ar
    27    95    96   ar
    28    97    99   ar
    29   110   109    2
    30    40    36   am
    31    75    76    1
    32    75    78    1
    33    67    68    1
    34   107   108    1
    35    53    54    1
    36    84    83    1
    37    63    62    2
    38    44    45    1
    39    62    61    1
    40    36    35    1
    41    36    37    2
    42    60    66    1
    43    60    61    1
    44    68    71    1
    45    82    76   am
    46    82    83    1
    47   108   109    1
    48    76    77    2
    49    35    38    1
    50   123   121   ar
    51   123   124   ar
    52   109   111   am
    53    96    98   ar
    54    78    79    1
    55   121   118   ar
    56    99   100   ar
    57    66    65    1
    58    61    64    1
    59    83    86    1
    60    54    55    1
    61    71    72    1
    62    71    73    1
    63   124   122   ar
    64    45    46    1
    65   111   112    1
    66    86    87    1
    67    38    39    1
    68    98   100   ar
    69   115   112    1
    70   115   116    1
    71    55    56    1
    72    79    81   am
    73    79    80    2
    74    48    46   am
    75   118   116   ar
    76   118   120   ar
    77   112   113    1
    78    65    64    1
    79    46    47    2
    80   116   117   ar
    81   122   120   ar
    82   120   119   ar
    83    87    88    1
    84   134   132   ar
    85   134   135   ar
    86    56    57    2
    87   113   125   am
    88   113   114    2
    89   132   130   ar
    90   136   135    1
    91   125   126    1
    92   117   119   ar
    93   135   133   ar
    94    88    89    1
    95    58    57    1
    96    57    59    1
    97   130   129    1
    98   130   131   ar
    99   200   201    2
   100   200   199    1
   101   129   126    1
   102   126   127    1
   103   133   131   ar
   104   199   198    1
   105   199   202    1
   106   128   127    2
   107   127   137   am
   108   207   205   ar
   109   207   208   ar
   110   209   208    1
   111   205   203   ar
   112   208   206   ar
   113   203   202    1
   114   203   204   ar
   115   206   204   ar
   116   183   181    1
   117   172   170   ar
   118    33    32    1
   119   137   138    1
   120   152   151   ar
   121   153   151   ar
   122   170   171   ar
   123   170   169    1
   124   151   150    1
   125   181   180    2
   126   181   182    1
   127    32    29    1
   128   169   166    1
   129   180   179    1
   130   138   139    1
   131   138   141    1
   132   140   139    2
   133   149   150    1
   134   149   146    1
   135    29    30    1
   136    29    28    1
   137   179   178    1
   138   166   167    1
   139   166   165    1
   140   141   142    1
   141   147   148    2
   142   147   146    1
   143   168   167    2
   144   146   145    1
   145    30    31    2
   146    16    14    1
   147    28    19   am
   148   175   176    2
   149   175   174    1
   150   165   156   am
   151   178   177    1
   152   177   174    1
   153    15    14    1
   154   196   197   ar
   155   196   194   ar
   156   174   173    1
   157   142   143    1
   158    19    20    2
   159    19    18    1
   160   197   195   ar
   161    14    13    1
   162    17    18    1
   163    21    18    1
   164    21    22    1
   165    26    25    1
   166   194   191   ar
   167   156   157    2
   168   156   155    1
   169    23    22    1
   170    23    24    1
   171   143   144    1
   172    13    10    1
   173   195   193   ar
   174   158   155    1
   175   158   159    1
   176    25    24    2
   177    25    27    1
   178     8     7    1
   179   155   154    1
   180     4     3    2
   181    10    11    1
   182    10     9    1
   183   191   193   ar
   184   191   189   ar
   185   193   192   ar
   186   159   160    1
   187     3     9   am
   188     3     2    1
   189    11    12    2
   190     7     6    1
   191   164   162    1
   192   163   162    1
   193     5     2    1
   194     5     6    1
   195   189   188    1
   196   189   190   ar
   197   162   161    2
   198   188   185    1
   199   192   190   ar
   200   161   160    1
   201     2     1    1
   202   187   186    2
   203   186   185    1
   204   185   184    1
