@<TRIPOS>MOLECULE
tmp/4ctyB03.pdb
 183 179 0 0 0
SMALL
GASTEIGER

@<TRIPOS>ATOM
      1  N          6.1770   -2.1800   55.3930 N.3    38  VAL38      -0.1231
      2  CA         5.6610   -1.7950   56.6830 C.3    38  VAL38       0.1692
      3  C          6.3190   -2.5870   57.8180 C.2    38  VAL38       0.2591
      4  O          6.6710   -2.0360   58.8540 O.2    38  VAL38      -0.2718
      5  CB         4.1360   -2.0310   56.7210 C.3    38  VAL38       0.0266
      6  CG1        3.6120   -1.8820   58.1510 C.3    38  VAL38       0.0020
      7  CG2        3.4600   -1.0740   55.7470 C.3    38  VAL38       0.0020
      8  N          6.4350   -3.8860   57.6070 N.am   39  LEU39      -0.1980
      9  CA         7.1120   -4.7750   58.5290 C.3    39  LEU39       0.1596
     10  C          8.4740   -5.2750   58.0490 C.2    39  LEU39       0.2287
     11  O          8.6620   -5.5920   56.8680 O.2    39  LEU39      -0.2864
     12  CB         6.2370   -5.9790   58.7880 C.3    39  LEU39       0.0297
     13  CG         5.2550   -5.7260   59.9110 C.3    39  LEU39       0.0022
     14  CD1        4.2600   -6.8680   59.9800 C.3    39  LEU39       0.0001
     15  CD2        5.9990   -5.5920   61.2440 C.3    39  LEU39       0.0001
     16  N          9.5110    6.9520   61.9560 N.3   106  ARG106     -0.1245
     17  CA         8.1860    7.1540   61.4160 C.3   106  ARG106      0.1563
     18  C          7.3780    8.2150   62.1170 C.2   106  ARG106      0.2260
     19  O          6.2890    8.4760   61.6780 O.2   106  ARG106     -0.2867
     20  CB         7.3900    5.8110   61.4370 C.3   106  ARG106      0.0307
     21  CG         7.8930    4.8390   60.3800 C.3   106  ARG106      0.0489
     22  CD         7.3050    3.4560   60.4350 C.3   106  ARG106      0.2205
     23  NE         7.7360    2.6390   59.2770 N.pl3 106  ARG106     -0.0865
     24  CZ         7.4250    1.3580   59.0520 C.cat 106  ARG106      0.5346
     25  NH1        6.6740    0.6720   59.8770 N.pl3 106  ARG106      0.1354
     26  NH2        7.8790    0.7470   57.9780 N.pl3 106  ARG106      0.1354
     27  N         -4.5000   -2.7000   70.1900 N.3   169  SER169     -0.1202
     28  CA        -3.3670   -2.0230   69.5400 C.3   169  SER169      0.2020
     29  C         -3.3060   -0.5560   69.9110 C.2   169  SER169      0.2618
     30  O         -2.2510    0.0090   69.8920 O.2   169  SER169     -0.2717
     31  CB        -3.3530   -2.1910   68.0290 C.3   169  SER169      0.2103
     32  OG        -4.4380   -1.5410   67.4750 O.3   169  SER169     -0.2182
     33  N         -4.4440    0.0420   70.2340 N.am  170  GLN170     -0.1979
     34  CA        -4.4980    1.3800   70.8030 C.3   170  GLN170      0.1601
     35  C         -5.3910    1.3260   72.0720 C.2   170  GLN170      0.2287
     36  O         -6.2260    0.4120   72.2090 O.2   170  GLN170     -0.2864
     37  CB        -5.1210    2.3710   69.7870 C.3   170  GLN170      0.0394
     38  CG        -4.2690    2.9080   68.6340 C.3   170  GLN170      0.0908
     39  CD        -4.9790    4.1080   67.8910 C.2   170  GLN170      0.2608
     40  OE1       -5.2540    5.1770   68.4650 O.2   170  GLN170     -0.2717
     41  NE2       -5.2590    3.9150   66.6010 N.am  170  GLN170     -0.0878
     42  N        -10.3010    2.4040   70.5890 N.3   173  ARG173     -0.1245
     43  CA       -10.5450    1.8320   69.2890 C.3   173  ARG173      0.1563
     44  C        -12.0260    1.5740   69.1330 C.2   173  ARG173      0.2260
     45  O        -12.7220    1.2060   70.0890 O.2   173  ARG173     -0.2867
     46  CB        -9.8550    0.4900   69.1880 C.3   173  ARG173      0.0307
     47  CG        -8.3510    0.5490   69.2600 C.3   173  ARG173      0.0489
     48  CD        -7.7980    0.3890   67.8840 C.3   173  ARG173      0.2205
     49  NE        -7.8560    1.6370   67.1480 N.pl3 173  ARG173     -0.0865
     50  CZ        -7.7320    1.7110   65.8280 C.cat 173  ARG173      0.5346
     51  NH1       -7.6250    0.6080   65.0970 N.pl3 173  ARG173      0.1354
     52  NH2       -7.7270    2.9000   65.2380 N.pl3 173  ARG173      0.1354
     53  N         -4.7830    9.4820   70.7010 N.3   257  PRO257     -0.2116
     54  CA        -4.1100    8.4380   70.0050 C.3   257  PRO257      0.1372
     55  C         -3.0900    7.8040   70.9220 C.2   257  PRO257      0.2244
     56  O         -2.0750    8.3920   71.1880 O.2   257  PRO257     -0.2868
     57  CB        -3.4090    9.1940   68.8500 C.3   257  PRO257      0.0268
     58  CG        -3.0870   10.5180   69.3870 C.3   257  PRO257      0.0207
     59  CD        -4.0840   10.7700   70.5040 C.3   257  PRO257      0.0892
     60  N         -0.9720    4.3860   71.4320 N.3   259  VAL259     -0.1245
     61  CA        -0.4550    3.1020   70.9490 C.3   259  VAL259      0.1561
     62  C         -0.0830    2.1710   72.1310 C.2   259  VAL259      0.2260
     63  O          0.5840    2.6100   73.0810 O.2   259  VAL259     -0.2867
     64  CB         0.7890    3.3550   70.0950 C.3   259  VAL259      0.0252
     65  CG1        1.4120    2.0600   69.6740 C.3   259  VAL259      0.0019
     66  CG2        0.4390    4.1570   68.8330 C.3   259  VAL259      0.0019
     67  N          0.3630   -1.5660   71.7550 N.3   261  ASN261     -0.1225
     68  CA         0.9320   -2.8710   71.4280 C.3   261  ASN261      0.1785
     69  C          2.4200   -2.8670   70.9570 C.2   261  ASN261      0.2597
     70  O          2.8420   -3.8440   70.3970 O.2   261  ASN261     -0.2718
     71  CB         0.0790   -3.5830   70.3960 C.3   261  ASN261      0.1169
     72  CG         0.1360   -2.9370   69.0300 C.2   261  ASN261      0.2627
     73  OD1       -0.2020   -3.5900   68.0510 O.2   261  ASN261     -0.2716
     74  ND2        0.5880   -1.6730   68.9310 N.am  261  ASN261     -0.0877
     75  N          3.1730   -1.7900   71.1560 N.am  262  MET262     -0.1979
     76  CA         4.5820   -1.7710   70.7050 C.3   262  MET262      0.1605
     77  C          5.4880   -1.9930   71.9040 C.2   262  MET262      0.2287
     78  O          5.2000   -1.5810   73.0320 O.2   262  MET262     -0.2864
     79  CB         4.9580   -0.4740   69.9710 C.3   262  MET262      0.0413
     80  CG         4.2770   -0.3160   68.6070 C.3   262  MET262      0.0598
     81  SD         4.7840    1.1840   67.7640 S.3   262  MET262     -0.1393
     82  CE         6.3490    0.7180   67.0860 C.3   262  MET262      0.0692
     83  N          1.6810    4.5460   74.9270 N.3   276  PHE276     -0.1227
     84  CA         2.1320    5.9220   74.7680 C.3   276  PHE276      0.1736
     85  C          1.1830    6.7190   73.9280 C.2   276  PHE276      0.2596
     86  O          0.5320    6.1900   73.0410 O.2   276  PHE276     -0.2718
     87  CB         3.5740    6.0090   74.2110 C.3   276  PHE276      0.0547
     88  CG         3.7590    5.3400   72.8750 C.ar  276  PHE276     -0.0202
     89  CD1        3.4330    6.0010   71.6920 C.ar  276  PHE276     -0.0042
     90  CD2        4.2910    4.0820   72.7840 C.ar  276  PHE276     -0.0042
     91  CE1        3.5860    5.3910   70.4430 C.ar  276  PHE276     -0.0003
     92  CE2        4.4510    3.4700   71.5420 C.ar  276  PHE276     -0.0003
     93  CZ         4.1120    4.1280   70.3700 C.ar  276  PHE276     -0.0000
     94  N          1.0890    8.0010   74.2480 N.am  277  SER277     -0.1938
     95  CA         0.1610    8.8740   73.5760 C.3   277  SER277      0.2055
     96  C          0.7200   10.3000   73.3880 C.2   277  SER277      0.2644
     97  O          1.5620   10.7840   74.1470 O.2   277  SER277     -0.2714
     98  CB        -1.2240    8.8530   74.2800 C.3   277  SER277      0.2130
     99  OG        -1.1960    9.3340   75.6210 O.3   277  SER277     -0.2179
    100  N          0.2450   10.9410   72.3240 N.am  278  GLY278     -0.1939
    101  CA         0.4500   12.3700   72.0610 C.3   278  GLY278      0.2014
    102  C         -0.9030   12.9810   71.6590 C.2   278  GLY278      0.2639
    103  O         -1.8380   12.8540   72.3690 O.2   278  GLY278     -0.2714
    104  N         -0.9590   13.6220   70.4940 N.am  279  TRP279     -0.1959
    105  CA        -2.1610   14.1250   69.9380 C.3   279  TRP279      0.1771
    106  C         -2.1370   13.8610   68.4330 C.2   279  TRP279      0.2620
    107  O         -1.0950   13.6690   67.8320 O.2   279  TRP279     -0.2715
    108  CB        -2.3290   15.6270   70.2610 C.3   279  TRP279      0.0590
    109  CG        -1.1660   16.5080   69.8960 C.ar  279  TRP279      0.0006
    110  CD1       -0.8740   16.9700   68.6590 C.ar  279  TRP279      0.0946
    111  CD2       -0.1700   17.0610   70.7810 C.ar  279  TRP279      0.0152
    112  NE1        0.2550   17.7540   68.6990 N.ar  279  TRP279     -0.2442
    113  CE2        0.6980   17.8410   69.9950 C.ar  279  TRP279      0.0810
    114  CE3        0.0650   16.9770   72.1760 C.ar  279  TRP279      0.0012
    115  CZ2        1.8140   18.5480   70.5480 C.ar  279  TRP279      0.0191
    116  CZ3        1.1710   17.6660   72.7420 C.ar  279  TRP279      0.0001
    117  CH2        2.0320   18.4380   71.9210 C.ar  279  TRP279      0.0015
    118  N         -3.2920   13.9170   67.8220 N.am  280  TYR280     -0.1960
    119  CA        -3.4390   13.5280   66.4430 C.3   280  TYR280      0.1771
    120  C         -2.9980   14.6210   65.4890 C.2   280  TYR280      0.2619
    121  O         -3.0570   15.7940   65.8050 O.2   280  TYR280     -0.2715
    122  CB        -4.8860   13.2410   66.1590 C.3   280  TYR280      0.0574
    123  CG        -5.3170   11.8200   66.2520 C.ar  280  TYR280     -0.0198
    124  CD1       -4.7990   10.8690   65.3850 C.ar  280  TYR280     -0.0009
    125  CD2       -6.3290   11.4530   67.0610 C.ar  280  TYR280     -0.0009
    126  CE1       -5.2380    9.5520   65.3950 C.ar  280  TYR280      0.0417
    127  CE2       -6.7700   10.1370   67.0820 C.ar  280  TYR280      0.0417
    128  CZ        -6.2110    9.1990   66.2460 C.ar  280  TYR280      0.1957
    129  OH        -6.6480    7.8920   66.2490 O.3   280  TYR280     -0.2866
    130  N         -2.5330   14.2040   64.3290 N.am  281  MET281     -0.1977
    131  CA        -2.4090   15.0900   63.1910 C.3   281  MET281      0.1605
    132  C         -3.6700   14.8280   62.3640 C.2   281  MET281      0.2287
    133  O         -4.0530   13.6940   62.1480 O.2   281  MET281     -0.2864
    134  CB        -1.1220   14.7840   62.4000 C.3   281  MET281      0.0413
    135  CG        -0.9700   15.5530   61.1030 C.3   281  MET281      0.0598
    136  SD         0.6980   15.3830   60.3660 S.3   281  MET281     -0.1393
    137  CE         0.6040   13.7640   59.5810 C.3   281  MET281      0.0692
    138  N         -4.4200   11.8640   59.7820 N.3   284  GLU284     -0.1245
    139  CA        -4.5840   10.4950   60.2900 C.3   284  GLU284      0.1567
    140  C         -6.0620   10.1350   60.3650 C.2   284  GLU284      0.2260
    141  O         -6.4500    9.0350   59.9770 O.2   284  GLU284     -0.2867
    142  CB        -4.0120   10.3510   61.6840 C.3   284  GLU284      0.0388
    143  CG        -2.5290   10.5870   61.7570 C.3   284  GLU284      0.1160
    144  CD        -2.0000   10.5080   63.1920 C.2   284  GLU284      0.3649
    145  OE1       -2.0450    9.3760   63.7460 O.co2 284  GLU284     -0.2457
    146  OE2       -1.6380   11.5820   63.7750 O.co2 284  GLU284     -0.2457
    147  N        -10.9740    1.1440   55.4970 N.3   295  ARG295     -0.1245
    148  CA       -11.4300    1.7160   56.7630 C.3   295  ARG295      0.1563
    149  C        -12.9060    2.1370   56.6360 C.2   295  ARG295      0.2260
    150  O        -13.7160    1.3760   56.1390 O.2   295  ARG295     -0.2867
    151  CB       -10.5060    2.8320   57.2520 C.3   295  ARG295      0.0307
    152  CG        -9.0070    2.4390   57.3410 C.3   295  ARG295      0.0489
    153  CD        -8.6810    1.4900   58.4950 C.3   295  ARG295      0.2205
    154  NE        -9.0940    2.0350   59.7920 N.pl3 295  ARG295     -0.0865
    155  CZ        -8.4500    2.9930   60.4610 C.cat 295  ARG295      0.5346
    156  NH1       -7.2960    3.5060   60.0070 N.pl3 295  ARG295      0.1354
    157  NH2       -8.9640    3.4470   61.6050 N.pl3 295  ARG295      0.1354
    158  N          6.4890    7.5410   55.5260 N.3   369  TRP369     -0.1241
    159  CA         5.5790    7.8180   56.6590 C.3   369  TRP369      0.1605
    160  C          5.5800    9.2660   57.1030 C.2   369  TRP369      0.2264
    161  O          4.6030    9.7480   57.6520 O.2   369  TRP369     -0.2867
    162  CB         5.9210    6.9800   57.8850 C.3   369  TRP369      0.0550
    163  CG         5.4600    5.5660   57.8130 C.ar  369  TRP369      0.0003
    164  CD1        5.7340    4.6960   56.8530 C.ar  369  TRP369      0.0946
    165  CD2        4.6140    4.8960   58.7310 C.ar  369  TRP369      0.0152
    166  NE1        5.1280    3.5020   57.1000 N.ar  369  TRP369     -0.2442
    167  CE2        4.4570    3.5940   58.2730 C.ar  369  TRP369      0.0810
    168  CE3        4.0250    5.2570   59.9300 C.ar  369  TRP369      0.0012
    169  CZ2        3.7350    2.6520   58.9540 C.ar  369  TRP369      0.0191
    170  CZ3        3.2910    4.3170   60.6170 C.ar  369  TRP369      0.0001
    171  CH2        3.1390    3.0370   60.1220 C.ar  369  TRP369      0.0015
    172  N          7.7170   -3.0160   66.6750 N.3   397  TYR397     -0.1241
    173  CA         6.5430   -3.7830   66.4700 C.3   397  TYR397      0.1605
    174  C          6.7350   -5.1260   67.1850 C.2   397  TYR397      0.2264
    175  O          7.8740   -5.5930   67.3480 O.2   397  TYR397     -0.2867
    176  CB         6.2640   -3.9370   64.9650 C.3   397  TYR397      0.0534
    177  CG         4.8670   -4.4760   64.7370 C.ar  397  TYR397     -0.0201
    178  CD1        3.7430   -3.6600   64.9320 C.ar  397  TYR397     -0.0009
    179  CD2        4.6580   -5.8270   64.4140 C.ar  397  TYR397     -0.0009
    180  CE1        2.4560   -4.1650   64.7830 C.ar  397  TYR397      0.0417
    181  CE2        3.3760   -6.3410   64.2330 C.ar  397  TYR397      0.0417
    182  CZ         2.2780   -5.5130   64.4220 C.ar  397  TYR397      0.1957
    183  OH         1.0010   -6.0290   64.2330 O.3   397  TYR397     -0.2866
@<TRIPOS>BOND
     1     1     2    1
     2   147   148    1
     3   158   159    1
     4     7     5    1
     5   150   149    2
     6   149   148    1
     7   159   160    1
     8   159   162    1
     9     2     5    1
    10     2     3    1
    11     5     6    1
    12   148   151    1
    13   164   166   ar
    14   164   163   ar
    15    11    10    2
    16   166   167   ar
    17   160   161    2
    18   151   152    1
    19   152   153    1
    20     8     3   am
    21     8     9    1
    22   163   162    1
    23   163   165   ar
    24     3     4    2
    25    26    24    1
    26    10     9    1
    27   167   165   ar
    28   167   169   ar
    29   153   154    1
    30     9    12    1
    31   165   168   ar
    32    12    13    1
    33   169   171   ar
    34    24    23    2
    35    24    25    1
    36    23    22    1
    37   137   136    1
    38   138   139    1
    39   154   155    2
    40    13    14    1
    41    13    15    1
    42   168   170   ar
    43   141   140    2
    44   156   155    1
    45   171   170   ar
    46   139   140    1
    47   139   142    1
    48   136   135    1
    49    21    22    1
    50    21    20    1
    51   155   157    1
    52   135   134    1
    53    17    20    1
    54    17    16    1
    55    17    18    1
    56    19    18    2
    57   142   143    1
    58   143   144    1
    59   133   132    2
    60   132   131    1
    61   134   131    1
    62   131   130    1
    63   144   145   ar
    64   144   146   ar
    65   183   182    1
    66   181   179   ar
    67   181   182   ar
    68   130   120   am
    69   179   177   ar
    70   182   180   ar
    71   177   178   ar
    72   177   176    1
    73   180   178   ar
    74   176   173    1
    75    51    50    1
    76    52    50    1
    77   124   126   ar
    78   124   123   ar
    79   126   128   ar
    80   120   121    2
    81   120   119    1
    82    50    49    2
    83   122   123    1
    84   122   119    1
    85   128   129    1
    86   128   127   ar
    87   123   125   ar
    88   119   118    1
    89   173   172    1
    90   173   174    1
    91    41    39   am
    92   125   127   ar
    93    82    81    1
    94    49    48    1
    95   174   175    2
    96    32    31    1
    97    81    80    1
    98   118   106   am
    99   107   106    2
   100    48    47    1
   101    39    40    2
   102    39    38    1
   103    31    28    1
   104    73    72    2
   105   106   105    1
   106    80    79    1
   107    38    37    1
   108   110   112   ar
   109   110   109   ar
   110   112   113   ar
   111    66    64    1
   112    57    58    1
   113    57    54    1
   114    74    72   am
   115    72    71    1
   116    44    43    1
   117    44    45    2
   118    46    47    1
   119    46    43    1
   120    43    42    1
   121    58    59    1
   122    28    29    1
   123    28    27    1
   124    65    64    1
   125    37    34    1
   126    30    29    2
   127   109   108    1
   128   109   111   ar
   129    29    33   am
   130   105   108    1
   131   105   104    1
   132    79    76    1
   133   113   115   ar
   134   113   111   ar
   135    54    53    1
   136    54    55    1
   137    64    61    1
   138    33    34    1
   139    93    91   ar
   140    93    92   ar
   141    71    68    1
   142    70    69    2
   143    91    89   ar
   144   104   102   am
   145    59    53    1
   146   115   117   ar
   147    76    75    1
   148    76    77    1
   149   111   114   ar
   150    34    35    1
   151    55    56    2
   152    61    60    1
   153    61    62    1
   154    69    75   am
   155    69    68    1
   156    68    67    1
   157    92    90   ar
   158   102   101    1
   159   102   103    2
   160    89    88   ar
   161    77    78    2
   162   117   116   ar
   163   101   100    1
   164    35    36    2
   165    62    63    2
   166   114   116   ar
   167   100    96   am
   168    90    88   ar
   169    88    87    1
   170    86    85    2
   171    96    95    1
   172    96    97    2
   173    95    94    1
   174    95    98    1
   175    85    94   am
   176    85    84    1
   177    87    84    1
   178    98    99    1
   179    84    83    1
