@<TRIPOS>MOLECULE
tmp/4cu1B03.pdb
 183 179 0 0 0
SMALL
GASTEIGER

@<TRIPOS>ATOM
      1  N          5.8780   -1.9400   54.8950 N.3    38  VAL38      -0.1231
      2  CA         5.3880   -1.5100   56.1950 C.3    38  VAL38       0.1692
      3  C          6.0430   -2.2760   57.3660 C.2    38  VAL38       0.2591
      4  O          6.5090   -1.6720   58.3310 O.2    38  VAL38      -0.2718
      5  CB         3.8490   -1.6380   56.2600 C.3    38  VAL38       0.0266
      6  CG1        3.3260   -1.3280   57.6720 C.3    38  VAL38       0.0020
      7  CG2        3.2180   -0.7100   55.2310 C.3    38  VAL38       0.0020
      8  N          6.0850   -3.5950   57.2690 N.am   39  LEU39      -0.1980
      9  CA         6.6060   -4.4110   58.3800 C.3    39  LEU39       0.1596
     10  C          7.8890   -5.1390   57.9950 C.2    39  LEU39       0.2287
     11  O          8.0370   -5.5600   56.8350 O.2    39  LEU39      -0.2864
     12  CB         5.5710   -5.4490   58.8340 C.3    39  LEU39       0.0297
     13  CG         4.1520   -5.0060   59.2120 C.3    39  LEU39       0.0022
     14  CD1        3.2480   -6.2260   59.3480 C.3    39  LEU39       0.0001
     15  CD2        4.1190   -4.1310   60.4740 C.3    39  LEU39       0.0001
     16  N         -4.6830   -2.4500   69.2140 N.3   170  SER170     -0.1202
     17  CA        -3.5590   -1.7750   68.5760 C.3   170  SER170      0.2020
     18  C         -3.5240   -0.2950   68.9970 C.2   170  SER170      0.2618
     19  O         -2.4640    0.3220   68.9940 O.2   170  SER170     -0.2717
     20  CB        -3.6240   -1.9230   67.0600 C.3   170  SER170      0.2103
     21  OG        -4.8230   -1.3330   66.6020 O.3   170  SER170     -0.2182
     22  N         -4.6800    0.2520   69.3780 N.am  171  GLN171     -0.1979
     23  CA        -4.7400    1.5530   70.0290 C.3   171  GLN171      0.1601
     24  C         -5.6070    1.4180   71.2490 C.2   171  GLN171      0.2287
     25  O         -6.4060    0.4860   71.3440 O.2   171  GLN171     -0.2864
     26  CB        -5.3120    2.6530   69.1070 C.3   171  GLN171      0.0394
     27  CG        -4.4920    2.9260   67.8580 C.3   171  GLN171      0.0908
     28  CD        -4.9940    4.1320   67.0400 C.2   171  GLN171      0.2608
     29  OE1       -4.7410    4.2030   65.8390 O.2   171  GLN171     -0.2717
     30  NE2       -5.6930    5.0770   67.6780 N.am  171  GLN171     -0.0878
     31  N        -10.3480    2.5280   69.7440 N.3   174  ARG174     -0.1245
     32  CA       -10.5180    1.9550   68.4060 C.3   174  ARG174      0.1563
     33  C        -12.0150    1.7700   68.2650 C.2   174  ARG174      0.2260
     34  O        -12.6700    1.4420   69.2370 O.2   174  ARG174     -0.2867
     35  CB        -9.9490    0.5280   68.3590 C.3   174  ARG174      0.0307
     36  CG        -8.4310    0.3380   68.3960 C.3   174  ARG174      0.0489
     37  CD        -7.8560    0.3250   66.9900 C.3   174  ARG174      0.2205
     38  NE        -7.9310    1.6580   66.4330 N.pl3 174  ARG174     -0.0865
     39  CZ        -7.6780    1.9680   65.1710 C.cat 174  ARG174      0.5346
     40  NH1       -7.3420    1.0280   64.3000 N.pl3 174  ARG174      0.1354
     41  NH2       -7.7830    3.2390   64.7810 N.pl3 174  ARG174      0.1354
     42  N         -4.9230    9.6750   69.8320 N.3   258  PRO258     -0.2116
     43  CA        -4.3160    8.5640   69.1520 C.3   258  PRO258      0.1372
     44  C         -3.3100    7.9350   70.0790 C.2   258  PRO258      0.2244
     45  O         -2.2890    8.5400   70.3990 O.2   258  PRO258     -0.2868
     46  CB        -3.6340    9.2200   67.9410 C.3   258  PRO258      0.0268
     47  CG        -3.2370   10.5600   68.4430 C.3   258  PRO258      0.0207
     48  CD        -4.3180   10.9650   69.4270 C.3   258  PRO258      0.0892
     49  N         -1.1800    4.5440   70.5230 N.3   260  VAL260     -0.1245
     50  CA        -0.6780    3.2660   70.0210 C.3   260  VAL260      0.1561
     51  C         -0.3080    2.3920   71.2080 C.2   260  VAL260      0.2260
     52  O          0.3550    2.8500   72.1340 O.2   260  VAL260     -0.2867
     53  CB         0.5630    3.4800   69.1470 C.3   260  VAL260      0.0252
     54  CG1        1.1850    2.1450   68.7480 C.3   260  VAL260      0.0019
     55  CG2        0.1950    4.3160   67.9180 C.3   260  VAL260      0.0019
     56  N          0.2170   -1.3200   70.7960 N.3   262  ASN262     -0.1225
     57  CA         0.7450   -2.6480   70.3870 C.3   262  ASN262      0.1785
     58  C          2.2520   -2.6750   70.0710 C.2   262  ASN262      0.2597
     59  O          2.7680   -3.6960   69.6570 O.2   262  ASN262     -0.2718
     60  CB        -0.0640   -3.2570   69.2100 C.3   262  ASN262      0.1169
     61  CG        -0.0580   -2.3980   67.9590 C.2   262  ASN262      0.2627
     62  OD1       -0.7220   -2.7460   66.9880 O.2   262  ASN262     -0.2716
     63  ND2        0.6600   -1.2940   67.9530 N.am  262  ASN262     -0.0877
     64  N          2.9400   -1.5520   70.2370 N.am  263  MET263     -0.1979
     65  CA         4.3630   -1.4940   69.8880 C.3   263  MET263      0.1605
     66  C          5.2590   -1.8230   71.0740 C.2   263  MET263      0.2287
     67  O          4.8650   -1.6660   72.2310 O.2   263  MET263     -0.2864
     68  CB         4.7160   -0.1430   69.2210 C.3   263  MET263      0.0413
     69  CG         4.1050   -0.0930   67.8110 C.3   263  MET263      0.0598
     70  SD         4.6840    1.3950   67.0070 S.3   263  MET263     -0.1393
     71  CE         6.2680    0.8840   66.3410 C.3   263  MET263      0.0692
     72  N          1.6300    4.7260   73.9980 N.3   277  PHE277     -0.1227
     73  CA         1.9840    6.1120   73.9360 C.3   277  PHE277      0.1736
     74  C          0.9250    6.8680   73.1510 C.2   277  PHE277      0.2596
     75  O          0.2860    6.3200   72.2430 O.2   277  PHE277     -0.2718
     76  CB         3.3820    6.2640   73.3020 C.3   277  PHE277      0.0547
     77  CG         3.5160    5.6280   71.9430 C.ar  277  PHE277     -0.0202
     78  CD1        3.2390    6.3560   70.8010 C.ar  277  PHE277     -0.0042
     79  CD2        3.9640    4.3190   71.8120 C.ar  277  PHE277     -0.0042
     80  CE1        3.3680    5.7810   69.5510 C.ar  277  PHE277     -0.0003
     81  CE2        4.1340    3.7430   70.5570 C.ar  277  PHE277     -0.0003
     82  CZ         3.8280    4.4820   69.4290 C.ar  277  PHE277     -0.0000
     83  N          0.7840    8.1490   73.4340 N.am  278  SER278     -0.1938
     84  CA        -0.2170    8.9230   72.7400 C.3   278  SER278      0.2055
     85  C          0.2610   10.3470   72.5350 C.2   278  SER278      0.2644
     86  O          1.0270   10.8790   73.3260 O.2   278  SER278     -0.2714
     87  CB        -1.5270    8.9140   73.5100 C.3   278  SER278      0.2130
     88  OG        -1.3620    9.5020   74.7860 O.3   278  SER278     -0.2179
     89  N         -0.1590   10.9540   71.4350 N.am  279  GLY279     -0.1939
     90  CA         0.0880   12.3770   71.2790 C.3   279  GLY279      0.2014
     91  C         -1.2170   12.9880   70.8830 C.2   279  GLY279      0.2639
     92  O         -2.2050   12.8650   71.5710 O.2   279  GLY279     -0.2714
     93  N         -1.2140   13.6630   69.7480 N.am  280  TRP280     -0.1959
     94  CA        -2.4390   14.2030   69.2240 C.3   280  TRP280      0.1771
     95  C         -2.3850   13.9350   67.7350 C.2   280  TRP280      0.2620
     96  O         -1.3270   13.6670   67.1960 O.2   280  TRP280     -0.2715
     97  CB        -2.5730   15.6980   69.5030 C.3   280  TRP280      0.0590
     98  CG        -1.3950   16.5510   69.1410 C.ar  280  TRP280      0.0006
     99  CD1       -1.0500   17.0060   67.8940 C.ar  280  TRP280      0.0946
    100  CD2       -0.4250   17.0840   70.0470 C.ar  280  TRP280      0.0152
    101  NE1        0.0830   17.7910   67.9730 N.ar  280  TRP280     -0.2442
    102  CE2        0.4840   17.8490   69.2870 C.ar  280  TRP280      0.0810
    103  CE3       -0.2380   16.9860   71.4470 C.ar  280  TRP280      0.0012
    104  CZ2        1.5740   18.5090   69.8710 C.ar  280  TRP280      0.0191
    105  CZ3        0.8320   17.6390   72.0280 C.ar  280  TRP280      0.0001
    106  CH2        1.7290   18.4000   71.2400 C.ar  280  TRP280      0.0015
    107  N         -3.5240   14.0430   67.0880 N.am  281  TYR281     -0.1960
    108  CA        -3.6170   13.6940   65.7020 C.3   281  TYR281      0.1771
    109  C         -3.0870   14.7480   64.7860 C.2   281  TYR281      0.2619
    110  O         -3.1060   15.9440   65.0980 O.2   281  TYR281     -0.2715
    111  CB        -5.0770   13.4730   65.3500 C.3   281  TYR281      0.0574
    112  CG        -5.5250   12.0490   65.4920 C.ar  281  TYR281     -0.0198
    113  CD1       -5.0220   11.0830   64.6460 C.ar  281  TYR281     -0.0009
    114  CD2       -6.5150   11.6840   66.4160 C.ar  281  TYR281     -0.0009
    115  CE1       -5.4230    9.7670   64.7480 C.ar  281  TYR281      0.0417
    116  CE2       -6.9450   10.3670   66.5080 C.ar  281  TYR281      0.0417
    117  CZ        -6.3890    9.4300   65.6570 C.ar  281  TYR281      0.1957
    118  OH        -6.7660    8.1290   65.6820 O.3   281  TYR281     -0.2866
    119  N         -2.6000   14.2730   63.6510 N.am  282  MET282     -0.1977
    120  CA        -2.4440   15.1220   62.4920 C.3   282  MET282      0.1605
    121  C         -3.7150   14.8330   61.6760 C.2   282  MET282      0.2287
    122  O         -4.1240   13.6760   61.5430 O.2   282  MET282     -0.2864
    123  CB        -1.1630   14.7860   61.7290 C.3   282  MET282      0.0413
    124  CG        -1.0500   15.5450   60.3910 C.3   282  MET282      0.0598
    125  SD         0.6290   15.3500   59.7940 S.3   282  MET282     -0.1393
    126  CE         0.5020   13.7520   58.9820 C.3   282  MET282      0.0692
    127  N         -4.4870   11.8680   59.1640 N.3   285  GLU285     -0.1245
    128  CA        -4.6340   10.4910   59.6610 C.3   285  GLU285      0.1567
    129  C         -6.1370   10.1920   59.7410 C.2   285  GLU285      0.2260
    130  O         -6.5790    9.1120   59.3760 O.2   285  GLU285     -0.2867
    131  CB        -4.0470   10.3720   61.0610 C.3   285  GLU285      0.0388
    132  CG        -2.5480   10.6540   61.1120 C.3   285  GLU285      0.1160
    133  CD        -2.0870   10.5770   62.5430 C.2   285  GLU285      0.3649
    134  OE1       -1.9360    9.4220   63.0390 O.co2 285  GLU285     -0.2457
    135  OE2       -1.9190   11.6600   63.1640 O.co2 285  GLU285     -0.2457
    136  N         -6.7730    9.0550   55.8970 N.3   289  ARG289     -0.1245
    137  CA        -6.5970    7.6110   56.0040 C.3   289  ARG289      0.1563
    138  C         -7.8280    6.9410   56.6210 C.2   289  ARG289      0.2260
    139  O         -8.4410    6.0860   56.0100 O.2   289  ARG289     -0.2867
    140  CB        -5.3160    7.2810   56.7520 C.3   289  ARG289      0.0307
    141  CG        -4.0460    7.8960   56.1250 C.3   289  ARG289      0.0489
    142  CD        -3.8000    7.4640   54.6590 C.3   289  ARG289      0.2205
    143  NE        -3.9300    6.0150   54.5380 N.pl3 289  ARG289     -0.0865
    144  CZ        -3.0650    5.1200   55.0150 C.cat 289  ARG289      0.5346
    145  NH1       -1.8930    5.5120   55.5150 N.pl3 289  ARG289      0.1354
    146  NH2       -3.3400    3.8200   54.9110 N.pl3 289  ARG289      0.1354
    147  N        -10.9300    1.2700   54.8300 N.3   296  ARG296     -0.1245
    148  CA       -11.3650    1.7960   56.1150 C.3   296  ARG296      0.1563
    149  C        -12.8570    2.2160   55.9800 C.2   296  ARG296      0.2260
    150  O        -13.6730    1.4700   55.4400 O.2   296  ARG296     -0.2867
    151  CB       -10.4380    2.9260   56.5820 C.3   296  ARG296      0.0307
    152  CG        -8.9700    2.5060   56.7850 C.3   296  ARG296      0.0489
    153  CD        -8.7800    1.5080   57.9390 C.3   296  ARG296      0.2205
    154  NE        -9.1710    2.0680   59.2450 N.pl3 296  ARG296     -0.0865
    155  CZ        -8.4650    2.9740   59.9290 C.cat 296  ARG296      0.5346
    156  NH1       -7.3040    3.4060   59.4640 N.pl3 296  ARG296      0.1354
    157  NH2       -8.9020    3.4470   61.0940 N.pl3 296  ARG296      0.1354
    158  N          6.4390    7.6790   55.0060 N.3   371  TRP371     -0.1241
    159  CA         5.5510    7.8800   56.1360 C.3   371  TRP371      0.1605
    160  C          5.4880    9.3310   56.5650 C.2   371  TRP371      0.2264
    161  O          4.4520    9.7950   57.0340 O.2   371  TRP371     -0.2867
    162  CB         5.9910    7.0400   57.3340 C.3   371  TRP371      0.0550
    163  CG         5.4830    5.6710   57.2350 C.ar  371  TRP371      0.0003
    164  CD1        5.7730    4.7570   56.2670 C.ar  371  TRP371      0.0946
    165  CD2        4.5690    5.0430   58.1300 C.ar  371  TRP371      0.0152
    166  NE1        5.1020    3.5930   56.5110 N.ar  371  TRP371     -0.2442
    167  CE2        4.3630    3.7330   57.6550 C.ar  371  TRP371      0.0810
    168  CE3        3.9400    5.4510   59.3190 C.ar  371  TRP371      0.0012
    169  CZ2        3.5200    2.8220   58.2910 C.ar  371  TRP371      0.0191
    170  CZ3        3.1210    4.5360   59.9810 C.ar  371  TRP371      0.0001
    171  CH2        2.9380    3.2170   59.4670 C.ar  371  TRP371      0.0015
    172  N          7.7350   -2.9220   66.0030 N.3   399  TYR399     -0.1241
    173  CA         6.5680   -3.7530   65.8910 C.3   399  TYR399      0.1605
    174  C          6.8100   -5.0720   66.6000 C.2   399  TYR399      0.2264
    175  O          7.9430   -5.4940   66.7510 O.2   399  TYR399     -0.2867
    176  CB         6.2720   -4.0330   64.4320 C.3   399  TYR399      0.0534
    177  CG         5.9070   -2.8020   63.6650 C.ar  399  TYR399     -0.0201
    178  CD1        4.7910   -2.0420   64.0160 C.ar  399  TYR399     -0.0009
    179  CD2        6.6610   -2.4040   62.5670 C.ar  399  TYR399     -0.0009
    180  CE1        4.4390   -0.9170   63.2910 C.ar  399  TYR399      0.0417
    181  CE2        6.3180   -1.2760   61.8310 C.ar  399  TYR399      0.0417
    182  CZ         5.2040   -0.5390   62.1950 C.ar  399  TYR399      0.1957
    183  OH         4.8580    0.5850   61.4710 O.3   399  TYR399     -0.2866
@<TRIPOS>BOND
     1   143   142    1
     2   143   144    2
     3   142   141    1
     4   147   148    1
     5     1     2    1
     6   146   144    1
     7   158   159    1
     8   144   145    1
     9     7     5    1
    10   150   149    2
    11   136   137    1
    12   149   148    1
    13   137   138    1
    14   137   140    1
    15   139   138    2
    16   148   151    1
    17   141   140    1
    18   159   160    1
    19   159   162    1
    20     2     5    1
    21     2     3    1
    22     5     6    1
    23   164   166   ar
    24   164   163   ar
    25   166   167   ar
    26   160   161    2
    27   151   152    1
    28   152   153    1
    29    11    10    2
    30   163   162    1
    31   163   165   ar
    32     8     3   am
    33     8     9    1
    34     3     4    2
    35   167   165   ar
    36   167   169   ar
    37   153   154    1
    38    10     9    1
    39   165   168   ar
    40   169   171   ar
    41     9    12    1
    42    12    13    1
    43   126   125    1
    44   127   128    1
    45    13    14    1
    46    13    15    1
    47   154   155    2
    48   168   170   ar
    49   130   129    2
    50   156   155    1
    51   171   170   ar
    52   128   129    1
    53   128   131    1
    54   125   124    1
    55   155   157    1
    56   124   123    1
    57   131   132    1
    58   132   133    1
    59   183   182    1
    60   122   121    2
    61   121   120    1
    62   123   120    1
    63   181   182   ar
    64   181   179   ar
    65   182   180   ar
    66   120   119    1
    67   133   134   ar
    68   133   135   ar
    69   179   177   ar
    70   180   178   ar
    71   119   109   am
    72   177   178   ar
    73   177   176    1
    74    40    39    1
    75   176   173    1
    76   113   115   ar
    77   113   112   ar
    78   115   117   ar
    79    41    39    1
    80   109   110    2
    81   109   108    1
    82    39    38    2
    83   111   112    1
    84   111   108    1
    85   112   114   ar
    86   117   118    1
    87   117   116   ar
    88   108   107    1
    89    29    28    2
    90   173   172    1
    91   173   174    1
    92    71    70    1
    93   114   116   ar
    94    38    37    1
    95   174   175    2
    96    21    20    1
    97    62    61    2
    98    37    36    1
    99    70    69    1
   100    28    30   am
   101    28    27    1
   102    20    17    1
   103   107    95   am
   104    96    95    2
   105    95    94    1
   106    69    68    1
   107    27    26    1
   108    99   101   ar
   109    99    98   ar
   110    55    53    1
   111    46    47    1
   112    46    43    1
   113    63    61   am
   114    61    60    1
   115   101   102   ar
   116    33    32    1
   117    33    34    2
   118    35    36    1
   119    35    32    1
   120    32    31    1
   121    47    48    1
   122    17    18    1
   123    17    16    1
   124    54    53    1
   125    19    18    2
   126    18    22   am
   127    26    23    1
   128    98    97    1
   129    98   100   ar
   130    53    50    1
   131    43    42    1
   132    43    44    1
   133    60    57    1
   134    68    65    1
   135    94    97    1
   136    94    93    1
   137   102   104   ar
   138   102   100   ar
   139    22    23    1
   140    48    42    1
   141    82    80   ar
   142    82    81   ar
   143    80    78   ar
   144    59    58    2
   145    93    91   am
   146   104   106   ar
   147    65    64    1
   148    65    66    1
   149    50    49    1
   150    50    51    1
   151    23    24    1
   152   100   103   ar
   153    58    64   am
   154    58    57    1
   155    44    45    2
   156    57    56    1
   157    81    79   ar
   158    78    77   ar
   159    91    90    1
   160    91    92    2
   161    66    67    2
   162    51    52    2
   163   106   105   ar
   164    24    25    2
   165    90    89    1
   166    89    85   am
   167   103   105   ar
   168    79    77   ar
   169    77    76    1
   170    75    74    2
   171    85    84    1
   172    85    86    2
   173    84    83    1
   174    84    87    1
   175    74    83   am
   176    74    73    1
   177    76    73    1
   178    87    88    1
   179    73    72    1
