@<TRIPOS>MOLECULE
tmp/4cu4A09.pdb
 97 93 0 0 0
SMALL
GASTEIGER

@<TRIPOS>ATOM
      1  N        -29.0330  -55.1180   23.5080 N.3   426  VAL426     -0.1245
      2  CA       -28.9760  -53.7650   24.0360 C.3   426  VAL426      0.1561
      3  C        -27.5640  -53.1950   23.8410 C.2   426  VAL426      0.2260
      4  O        -26.5860  -53.8380   24.2500 O.2   426  VAL426     -0.2867
      5  CB       -29.4190  -53.6920   25.5240 C.3   426  VAL426      0.0252
      6  CG1      -29.3200  -52.2530   26.0740 C.3   426  VAL426      0.0019
      7  CG2      -30.8280  -54.2420   25.7020 C.3   426  VAL426      0.0019
      8  N        -25.2680  -49.8870   24.7960 N.3   428  LEU428     -0.1245
      9  CA       -25.2280  -48.7280   25.6820 C.3   428  LEU428      0.1561
     10  C        -23.7920  -48.3000   25.8690 C.2   428  LEU428      0.2260
     11  O        -22.9180  -49.1290   26.1200 O.2   428  LEU428     -0.2867
     12  CB       -25.8960  -49.0700   27.0360 C.3   428  LEU428      0.0270
     13  CG       -26.1670  -47.9370   28.0320 C.3   428  LEU428      0.0019
     14  CD1      -27.1780  -46.9110   27.4810 C.3   428  LEU428      0.0001
     15  CD2      -26.6360  -48.5080   29.3700 C.3   428  LEU428      0.0001
     16  N        -23.4100  -39.8680   24.8890 N.3   457  TRP457     -0.1241
     17  CA       -23.8290  -41.2430   25.1080 C.3   457  TRP457      0.1605
     18  C        -24.7880  -41.6980   23.9840 C.2   457  TRP457      0.2264
     19  O        -25.2880  -40.8730   23.2110 O.2   457  TRP457     -0.2867
     20  CB       -24.4290  -41.4430   26.5210 C.3   457  TRP457      0.0550
     21  CG       -25.7760  -40.8150   26.7350 C.ar  457  TRP457      0.0003
     22  CD1      -26.0390  -39.5050   27.0150 C.ar  457  TRP457      0.0946
     23  CD2      -27.0440  -41.4840   26.7030 C.ar  457  TRP457      0.0152
     24  NE1      -27.3950  -39.3160   27.1590 N.ar  457  TRP457     -0.2442
     25  CE2      -28.0350  -40.5160   26.9810 C.ar  457  TRP457      0.0810
     26  CE3      -27.4370  -42.8250   26.5210 C.ar  457  TRP457      0.0012
     27  CZ2      -29.3990  -40.8360   27.0360 C.ar  457  TRP457      0.0191
     28  CZ3      -28.7890  -43.1350   26.5470 C.ar  457  TRP457      0.0001
     29  CH2      -29.7490  -42.1560   26.8350 C.ar  457  TRP457      0.0015
     30  N        -27.8000  -44.9890   23.3940 N.3   459  GLY459     -0.1210
     31  CA       -28.5580  -46.1010   23.9680 C.3   459  GLY459      0.1956
     32  C        -29.4620  -46.6810   22.9110 C.2   459  GLY459      0.2612
     33  O        -30.2170  -45.9370   22.2860 O.2   459  GLY459     -0.2717
     34  N        -29.3470  -47.9870   22.6690 N.am  460  GLY460     -0.1942
     35  CA       -30.1430  -48.6590   21.6520 C.3   460  GLY460      0.2014
     36  C        -30.6020  -50.0580   21.9850 C.2   460  GLY460      0.2638
     37  O        -30.0740  -50.6980   22.8940 O.2   460  GLY460     -0.2714
     38  N        -31.6200  -50.5320   21.2450 N.am  461  VAL461     -0.1977
     39  CA       -32.2130  -51.8790   21.3340 C.3   461  VAL461      0.1596
     40  C        -32.5300  -52.3690   19.9320 C.2   461  VAL461      0.2287
     41  O        -33.0800  -51.6040   19.1480 O.2   461  VAL461     -0.2864
     42  CB       -33.5000  -51.9650   22.2180 C.3   461  VAL461      0.0276
     43  CG1      -33.8260  -53.4140   22.5820 C.3   461  VAL461      0.0022
     44  CG2      -33.4000  -51.1140   23.4720 C.3   461  VAL461      0.0022
     45  N        -34.4440  -49.2390   17.7930 N.3   473  PHE473     -0.1241
     46  CA       -34.5880  -47.8770   18.2770 C.3   473  PHE473      0.1605
     47  C        -33.2660  -47.4290   18.9080 C.2   473  PHE473      0.2264
     48  O        -32.5680  -48.2420   19.5090 O.2   473  PHE473     -0.2867
     49  CB       -35.7580  -47.7490   19.2900 C.3   473  PHE473      0.0534
     50  CG       -35.7780  -46.4140   20.0000 C.ar  473  PHE473     -0.0203
     51  CD1      -36.2970  -45.2830   19.3780 C.ar  473  PHE473     -0.0042
     52  CD2      -35.1980  -46.2660   21.2560 C.ar  473  PHE473     -0.0042
     53  CE1      -36.2480  -44.0310   20.0030 C.ar  473  PHE473     -0.0003
     54  CE2      -35.1760  -45.0170   21.8900 C.ar  473  PHE473     -0.0003
     55  CZ       -35.6960  -43.9080   21.2580 C.ar  473  PHE473     -0.0000
     56  N        -31.1950  -43.6400   20.7230 N.3   475  TYR475     -0.1241
     57  CA       -30.9490  -42.2490   21.0170 C.3   475  TYR475      0.1605
     58  C        -29.4410  -42.0780   20.8600 C.2   475  TYR475      0.2264
     59  O        -28.7110  -42.9440   21.3440 O.2   475  TYR475     -0.2867
     60  CB       -31.4390  -41.8690   22.4080 C.3   475  TYR475      0.0534
     61  CG       -31.0230  -40.4660   22.7830 C.ar  475  TYR475     -0.0201
     62  CD1      -31.6100  -39.3580   22.1750 C.ar  475  TYR475     -0.0009
     63  CD2      -29.9700  -40.2440   23.6620 C.ar  475  TYR475     -0.0009
     64  CE1      -31.1680  -38.0730   22.4430 C.ar  475  TYR475      0.0417
     65  CE2      -29.5500  -38.9570   23.9720 C.ar  475  TYR475      0.0417
     66  CZ       -30.1540  -37.8760   23.3630 C.ar  475  TYR475      0.1957
     67  OH       -29.7950  -36.6040   23.6980 O.3   475  TYR475     -0.2866
     68  N        -25.8660  -39.0890   20.4570 N.3   477  GLU477     -0.1245
     69  CA       -25.3910  -37.7130   20.5890 C.3   477  GLU477      0.1567
     70  C        -24.0380  -37.3850   19.9470 C.2   477  GLU477      0.2260
     71  O        -23.1270  -38.2210   19.8520 O.2   477  GLU477     -0.2867
     72  CB       -25.2740  -37.3600   22.0690 C.3   477  GLU477      0.0388
     73  CG       -26.5750  -37.3720   22.8590 C.3   477  GLU477      0.1160
     74  CD       -26.3990  -36.9460   24.3060 C.2   477  GLU477      0.3649
     75  OE1      -25.2420  -36.9520   24.7890 O.co2 477  GLU477     -0.2457
     76  OE2      -27.4160  -36.6100   24.9590 O.co2 477  GLU477     -0.2457
     77  N        -28.4430  -34.2540   18.6770 N.3   498  LYS498     -0.1245
     78  CA       -29.2630  -35.1510   19.5050 C.3   498  LYS498      0.1561
     79  C        -30.2220  -35.8940   18.5570 C.2   498  LYS498      0.2260
     80  O        -30.9960  -35.2530   17.8460 O.2   498  LYS498     -0.2867
     81  CB       -30.0020  -34.3730   20.6160 C.3   498  LYS498      0.0271
     82  CG       -29.1180  -33.4150   21.4190 C.3   498  LYS498      0.0035
     83  CD       -29.1940  -33.5610   22.9360 C.3   498  LYS498      0.0206
     84  CE       -27.9940  -32.9230   23.6260 C.3   498  LYS498      0.1093
     85  NZ       -26.6990  -33.5930   23.2830 N.3   498  LYS498     -0.1314
     86  N        -33.0100  -39.1750   17.5770 N.3   500  TYR500     -0.1241
     87  CA       -33.9210  -40.2900   17.8600 C.3   500  TYR500      0.1605
     88  C        -34.1420  -40.9880   16.5340 C.2   500  TYR500      0.2264
     89  O        -34.2710  -40.3140   15.5160 O.2   500  TYR500     -0.2867
     90  CB       -35.2520  -39.8090   18.4870 C.3   500  TYR500      0.0534
     91  CG       -35.1040  -39.1180   19.8290 C.ar  500  TYR500     -0.0201
     92  CD1      -34.7840  -37.7640   19.9090 C.ar  500  TYR500     -0.0009
     93  CD2      -35.3370  -39.8040   21.0170 C.ar  500  TYR500     -0.0009
     94  CE1      -34.6410  -37.1250   21.1420 C.ar  500  TYR500      0.0417
     95  CE2      -35.2180  -39.1710   22.2560 C.ar  500  TYR500      0.0417
     96  CZ       -34.8580  -37.8340   22.3140 C.ar  500  TYR500      0.1957
     97  OH       -34.7500  -37.2010   23.5280 O.3   500  TYR500     -0.2866
@<TRIPOS>BOND
     1    89    88    2
     2    88    87    1
     3    86    87    1
     4    45    46    1
     5    80    79    2
     6    87    90    1
     7    46    47    1
     8    46    49    1
     9    90    91    1
    10    79    78    1
    11    77    78    1
    12    47    48    2
    13    41    40    2
    14    49    50    1
    15    51    50   ar
    16    51    53   ar
    17    78    81    1
    18    91    92   ar
    19    91    93   ar
    20    71    70    2
    21    92    94   ar
    22    40    39    1
    23    70    69    1
    24    50    52   ar
    25    53    55   ar
    26    68    69    1
    27    69    72    1
    28    81    82    1
    29    56    57    1
    30    58    57    1
    31    58    59    2
    32    57    60    1
    33    93    95   ar
    34    94    96   ar
    35    38    39    1
    36    38    36   am
    37    52    54   ar
    38    55    54   ar
    39    39    42    1
    40    82    83    1
    41    35    36    1
    42    35    34    1
    43    36    37    2
    44    72    73    1
    45    62    64   ar
    46    62    61   ar
    47    42    43    1
    48    42    44    1
    49    95    96   ar
    50    33    32    2
    51    96    97    1
    52    60    61    1
    53    64    66   ar
    54    34    32   am
    55    61    63   ar
    56    73    74    1
    57    32    31    1
    58    83    84    1
    59    19    18    2
    60    85    84    1
    61    66    67    1
    62    66    65   ar
    63    30    31    1
    64     1     2    1
    65    63    65   ar
    66     3     2    1
    67     3     4    2
    68    18    17    1
    69     2     5    1
    70    74    75   ar
    71    74    76   ar
    72     8     9    1
    73    16    17    1
    74    17    20    1
    75     5     7    1
    76     5     6    1
    77     9    10    1
    78     9    12    1
    79    10    11    2
    80    20    21    1
    81    26    28   ar
    82    26    23   ar
    83    28    29   ar
    84    23    21   ar
    85    23    25   ar
    86    21    22   ar
    87    29    27   ar
    88    25    27   ar
    89    25    24   ar
    90    22    24   ar
    91    12    13    1
    92    14    13    1
    93    13    15    1
