@<TRIPOS>MOLECULE
tmp/4cu4A12.pdb
 104 94 0 0 0
SMALL
GASTEIGER

@<TRIPOS>ATOM
      1  N          0.4910  -41.3760   11.4550 N.3   283  PHE283     -0.1241
      2  CA         1.1470  -40.0760   11.3260 C.3   283  PHE283      0.1605
      3  C          0.9560  -39.6160    9.8460 C.2   283  PHE283      0.2264
      4  O          1.3050  -40.3490    8.9250 O.2   283  PHE283     -0.2867
      5  CB         2.6530  -40.0580   11.7480 C.3   283  PHE283      0.0534
      6  CG         3.2180  -38.6540   11.5690 C.ar  283  PHE283     -0.0203
      7  CD1        3.0140  -37.6730   12.5360 C.ar  283  PHE283     -0.0042
      8  CD2        3.8590  -38.2850   10.3870 C.ar  283  PHE283     -0.0042
      9  CE1        3.4560  -36.3540   12.3350 C.ar  283  PHE283     -0.0003
     10  CE2        4.2830  -36.9630   10.1830 C.ar  283  PHE283     -0.0003
     11  CZ         4.0810  -36.0050   11.1640 C.ar  283  PHE283     -0.0000
     12  N          1.0930  -36.0670    7.0360 N.3   285  GLU285     -0.1245
     13  CA         1.5240  -34.7320    6.6620 C.3   285  GLU285      0.1567
     14  C          0.8650  -34.4170    5.3370 C.2   285  GLU285      0.2260
     15  O          0.9830  -35.1970    4.3990 O.2   285  GLU285     -0.2867
     16  CB         3.0730  -34.6440    6.6060 C.3   285  GLU285      0.0388
     17  CG         3.5850  -33.2080    6.5500 C.3   285  GLU285      0.1160
     18  CD         5.0610  -33.0090    6.8380 C.2   285  GLU285      0.3649
     19  OE1        5.8730  -33.1280    5.8910 O.co2 285  GLU285     -0.2457
     20  OE2        5.4010  -32.6840    8.0000 O.co2 285  GLU285     -0.2457
     21  N          0.7020  -26.3400    5.2260 N.3   332  LYS332     -0.1245
     22  CA         1.3820  -27.5360    5.6790 C.3   332  LYS332      0.1561
     23  C          0.6950  -27.9870    6.9810 C.2   332  LYS332      0.2260
     24  O          0.5260  -27.1710    7.8830 O.2   332  LYS332     -0.2867
     25  CB         2.8760  -27.2520    5.9090 C.3   332  LYS332      0.0271
     26  CG         3.7390  -28.5190    5.9670 C.3   332  LYS332      0.0035
     27  CD         5.1480  -28.1480    6.4790 C.3   332  LYS332      0.0206
     28  CE         6.2330  -29.0650    5.9970 C.3   332  LYS332      0.1093
     29  NZ         7.5750  -28.5280    6.3480 N.3   332  LYS332     -0.1314
     30  N          0.2780  -31.2930    9.9620 N.3   334  GLN334     -0.1245
     31  CA         0.7540  -32.5710   10.5200 C.3   334  GLN334      0.1566
     32  C         -0.3460  -33.0480   11.4230 C.2   334  GLN334      0.2260
     33  O         -0.9940  -32.2480   12.0830 O.2   334  GLN334     -0.2867
     34  CB         2.1690  -32.5760   11.1730 C.3   334  GLN334      0.0367
     35  CG         2.6790  -31.2550   11.7430 C.3   334  GLN334      0.0905
     36  CD         3.1150  -30.1910   10.7690 C.2   334  GLN334      0.2608
     37  OE1        3.9580  -30.3970    9.8950 O.2   334  GLN334     -0.2717
     38  NE2        2.5770  -28.9990   10.9480 N.am  334  GLN334     -0.0878
     39  N         -4.0330  -35.2870   17.4520 N.3   363  ARG363     -0.1245
     40  CA        -3.4460  -33.9390   17.4500 C.3   363  ARG363      0.1563
     41  C         -3.3050  -33.4990   15.9850 C.2   363  ARG363      0.2260
     42  O         -2.9440  -34.3100   15.1240 O.2   363  ARG363     -0.2867
     43  CB        -2.1150  -33.8050   18.2370 C.3   363  ARG363      0.0307
     44  CG        -0.9340  -34.6890   17.7500 C.3   363  ARG363      0.0489
     45  CD         0.4320  -34.1490   18.2150 C.3   363  ARG363      0.2205
     46  NE         0.6920  -32.7980   17.6990 N.pl3 363  ARG363     -0.0865
     47  CZ         1.3930  -32.5310   16.5970 C.cat 363  ARG363      0.5346
     48  NH1        1.9710  -33.5070   15.9170 N.pl3 363  ARG363      0.1354
     49  NH2        1.5240  -31.2830   16.1730 N.pl3 363  ARG363      0.1354
     50  N         -1.9750  -30.0140   13.5620 N.3   365  ARG365     -0.1245
     51  CA        -1.3490  -28.7060   13.4310 C.3   365  ARG365      0.1563
     52  C         -1.4000  -28.2880   11.9590 C.2   365  ARG365      0.2260
     53  O         -0.8880  -29.0250   11.1410 O.2   365  ARG365     -0.2867
     54  CB         0.1020  -28.7930   13.9140 C.3   365  ARG365      0.0307
     55  CG         0.8040  -27.4630   13.8250 C.3   365  ARG365      0.0489
     56  CD         1.7920  -27.3660   14.9510 C.3   365  ARG365      0.2205
     57  NE         2.9680  -26.6470   14.4980 N.pl3 365  ARG365     -0.0865
     58  CZ         3.9280  -26.2310   15.3030 C.cat 365  ARG365      0.5346
     59  NH1        3.8620  -26.4740   16.6010 N.pl3 365  ARG365      0.1354
     60  NH2        4.9600  -25.5610   14.8180 N.pl3 365  ARG365      0.1354
     61  N         -0.4700  -24.9390    9.3870 N.3   367  ASP367     -0.1239
     62  CA         0.1840  -23.6410    9.2090 C.3   367  ASP367      0.1674
     63  C         -0.2510  -23.0170    7.8520 C.2   367  ASP367      0.2266
     64  O          0.1450  -23.4820    6.7830 O.2   367  ASP367     -0.2867
     65  CB         1.7190  -23.8280    9.3140 C.3   367  ASP367      0.1410
     66  CG         2.5090  -22.5390    9.4520 C.2   367  ASP367      0.3668
     67  OD1        2.4890  -21.7260    8.4990 O.co2 367  ASP367     -0.2456
     68  OD2        3.2400  -22.3970   10.4580 O.co2 367  ASP367     -0.2456
     69  N         -1.6920  -20.1010   12.4540 N.3   405  LEU405     -0.1245
     70  CA        -1.2190  -21.4030   12.9100 C.3   405  LEU405      0.1561
     71  C         -2.3210  -22.0080   13.7650 C.2   405  LEU405      0.2260
     72  O         -2.5500  -21.5140   14.8610 O.2   405  LEU405     -0.2867
     73  CB         0.0940  -21.2890   13.6830 C.3   405  LEU405      0.0270
     74  CG         0.6530  -22.5950   14.2500 C.3   405  LEU405      0.0019
     75  CD1        1.2320  -23.4770   13.1510 C.3   405  LEU405      0.0001
     76  CD2        1.7140  -22.3040   15.3250 C.3   405  LEU405      0.0001
     77  N         -4.0350  -25.1380   15.9290 N.3   407  LYS407     -0.1245
     78  CA        -3.7400  -26.3520   16.6950 C.3   407  LYS407      0.1561
     79  C         -5.0000  -26.9570   17.2910 C.2   407  LYS407      0.2260
     80  O         -5.8260  -26.2450   17.8280 O.2   407  LYS407     -0.2867
     81  CB        -2.7480  -26.0870   17.8290 C.3   407  LYS407      0.0271
     82  CG        -1.3490  -25.6690   17.4000 C.3   407  LYS407      0.0035
     83  CD        -0.4210  -25.6060   18.6370 C.3   407  LYS407      0.0206
     84  CE         0.7600  -24.7010   18.3890 C.3   407  LYS407      0.1093
     85  NZ         1.9030  -25.0350   19.2740 N.3   407  LYS407     -0.1314
     86  N         -3.1720  -19.0600   16.4190 N.3   440  LEU440     -0.1245
     87  CA        -2.2560  -17.9400   16.3610 C.3   440  LEU440      0.1561
     88  C         -2.3760  -17.1990   15.0570 C.2   440  LEU440      0.2260
     89  O         -1.9730  -17.7260   14.0160 O.2   440  LEU440     -0.2867
     90  CB        -0.7760  -18.3610   16.5600 C.3   440  LEU440      0.0270
     91  CG         0.2760  -17.2440   16.2720 C.3   440  LEU440      0.0019
     92  CD1        0.1790  -16.0620   17.2930 C.3   440  LEU440      0.0001
     93  CD2        1.6790  -17.8130   16.1880 C.3   440  LEU440      0.0001
     94  N         -0.6790  -14.7250   13.1100 N.3   442  ARG442     -0.1245
     95  CA         0.6810  -14.1990   12.9800 C.3   442  ARG442      0.1563
     96  C          0.7280  -12.7230   12.5680 C.2   442  ARG442      0.2260
     97  O          1.7790  -12.0900   12.7370 O.2   442  ARG442     -0.2867
     98  CB         1.4940  -14.9960   11.9590 C.3   442  ARG442      0.0307
     99  CG         1.6640  -16.4660   12.2690 C.3   442  ARG442      0.0489
    100  CD         2.7000  -17.0550   11.3400 C.3   442  ARG442      0.2205
    101  NE         2.8010  -18.5050   11.4730 N.pl3 442  ARG442     -0.0865
    102  CZ         3.4950  -19.1350   12.4100 C.cat 442  ARG442      0.5346
    103  NH1        4.1080  -18.4500   13.3670 N.pl3 442  ARG442      0.1354
    104  NH2        3.5290  -20.4550   12.4370 N.pl3 442  ARG442      0.1354
@<TRIPOS>BOND
     1    15    14    2
     2    21    22    1
     3    14    13    1
     4    22    25    1
     5    22    23    1
     6    19    18   ar
     7    25    26    1
     8    26    27    1
     9    28    29    1
    10    28    27    1
    11    17    16    1
    12    17    18    1
    13    16    13    1
    14    13    12    1
    15    64    63    2
    16    18    20   ar
    17    23    24    2
    18    63    62    1
    19    67    66   ar
    20     4     3    2
    21    62    65    1
    22    62    61    1
    23    65    66    1
    24    66    68   ar
    25     3     2    1
    26    37    36    2
    27    30    31    1
    28    10     8   ar
    29    10    11   ar
    30     8     6   ar
    31    31    34    1
    32    31    32    1
    33    36    38   am
    34    36    35    1
    35    53    52    2
    36    11     9   ar
    37    34    35    1
    38     2     1    1
    39     2     5    1
    40   100   101    1
    41   100    99    1
    42    32    33    2
    43   101   102    2
    44     6     5    1
    45     6     7   ar
    46    98    99    1
    47    98    95    1
    48    52    51    1
    49     9     7   ar
    50   102   104    1
    51   102   103    1
    52    69    70    1
    53    96    97    2
    54    96    95    1
    55    70    73    1
    56    70    71    1
    57    95    94    1
    58    75    74    1
    59    51    50    1
    60    51    54    1
    61    73    74    1
    62    71    72    2
    63    55    54    1
    64    55    56    1
    65    89    88    2
    66    74    76    1
    67    57    56    1
    68    57    58    2
    69    60    58    1
    70    88    87    1
    71    42    41    2
    72    58    59    1
    73    48    47    1
    74    77    78    1
    75    41    40    1
    76    49    47    1
    77    93    91    1
    78    91    90    1
    79    91    92    1
    80    87    86    1
    81    87    90    1
    82    47    46    2
    83    78    79    1
    84    78    81    1
    85    79    80    2
    86    82    81    1
    87    82    83    1
    88    40    39    1
    89    40    43    1
    90    46    45    1
    91    44    45    1
    92    44    43    1
    93    84    83    1
    94    84    85    1
