@<TRIPOS>MOLECULE
tmp/4cu4A18.pdb
 114 111 0 0 0
SMALL
GASTEIGER

@<TRIPOS>ATOM
      1  N         -2.6880  -55.3120  -13.2010 N.3   145  VAL145     -0.1245
      2  CA        -2.2290  -54.1450  -13.9570 C.3   145  VAL145      0.1561
      3  C         -3.4840  -53.6690  -14.7210 C.2   145  VAL145      0.2260
      4  O         -4.2120  -54.4930  -15.2690 O.2   145  VAL145     -0.2867
      5  CB        -0.9740  -54.4120  -14.8440 C.3   145  VAL145      0.0252
      6  CG1       -0.6490  -53.2070  -15.6990 C.3   145  VAL145      0.0019
      7  CG2        0.2460  -54.7620  -13.9960 C.3   145  VAL145      0.0019
      8  N         -5.5230  -50.3210  -17.1260 N.3   147  PHE147     -0.1241
      9  CA        -5.3690  -49.1750  -18.0330 C.3   147  PHE147      0.1605
     10  C         -6.7140  -48.5760  -18.3500 C.2   147  PHE147      0.2264
     11  O         -7.6900  -49.2990  -18.5700 O.2   147  PHE147     -0.2867
     12  CB        -4.6440  -49.5470  -19.3370 C.3   147  PHE147      0.0534
     13  CG        -3.3590  -50.3160  -19.1490 C.ar  147  PHE147     -0.0203
     14  CD1       -2.1550  -49.6510  -18.9530 C.ar  147  PHE147     -0.0042
     15  CD2       -3.3510  -51.7080  -19.1760 C.ar  147  PHE147     -0.0042
     16  CE1       -0.9640  -50.3640  -18.7590 C.ar  147  PHE147     -0.0003
     17  CE2       -2.1610  -52.4210  -18.9870 C.ar  147  PHE147     -0.0003
     18  CZ        -0.9740  -51.7420  -18.7830 C.ar  147  PHE147     -0.0000
     19  N         -3.0490  -45.4500  -15.6100 N.3   157  THR157     -0.1203
     20  CA        -2.3280  -46.7060  -15.5210 C.3   157  THR157      0.1994
     21  C         -2.2550  -47.0640  -14.0270 C.2   157  THR157      0.2618
     22  O         -1.7620  -46.2690  -13.2290 O.2   157  THR157     -0.2717
     23  CB        -0.9530  -46.6300  -16.1810 C.3   157  THR157      0.1784
     24  OG1       -0.1710  -45.6590  -15.4920 O.3   157  THR157     -0.2211
     25  CG2       -1.0200  -46.3220  -17.6820 C.3   157  THR157      0.0376
     26  N         -2.7770  -48.2210  -13.6540 N.am  158  GLY158     -0.1942
     27  CA        -2.7470  -48.6630  -12.2680 C.3   158  GLY158      0.2014
     28  C         -2.1680  -50.0510  -12.1220 C.2   158  GLY158      0.2638
     29  O         -2.1610  -50.8270  -13.0820 O.2   158  GLY158     -0.2714
     30  N         -1.6850  -50.3790  -10.9240 N.am  159  PHE159     -0.1973
     31  CA        -1.1620  -51.7080  -10.6270 C.3   159  PHE159      0.1639
     32  C         -1.4850  -52.0600   -9.1830 C.2   159  PHE159      0.2290
     33  O         -1.5520  -51.1610   -8.3480 O.2   159  PHE159     -0.2864
     34  CB         0.3370  -51.8170  -10.9250 C.3   159  PHE159      0.0560
     35  CG         1.2540  -51.2250   -9.8930 C.ar  159  PHE159     -0.0200
     36  CD1        1.6640  -51.9730   -8.7910 C.ar  159  PHE159     -0.0042
     37  CD2        1.7400  -49.9330  -10.0330 C.ar  159  PHE159     -0.0042
     38  CE1        2.4940  -51.4120   -7.8130 C.ar  159  PHE159     -0.0003
     39  CE2        2.6070  -49.3920   -9.0750 C.ar  159  PHE159     -0.0003
     40  CZ         2.9650  -50.1330   -7.9650 C.ar  159  PHE159     -0.0000
     41  N         -0.9390  -45.8010   -8.9260 N.3   178  LEU178     -0.1231
     42  CA        -1.6800  -45.2510  -10.0570 C.3   178  LEU178      0.1693
     43  C         -1.1010  -43.9330  -10.4990 C.2   178  LEU178      0.2591
     44  O         -0.5340  -43.1890   -9.7040 O.2   178  LEU178     -0.2718
     45  CB        -3.2060  -45.1190   -9.8170 C.3   178  LEU178      0.0284
     46  CG        -3.7200  -44.0480   -8.8530 C.3   178  LEU178      0.0019
     47  CD1       -4.0140  -42.7320   -9.5800 C.3   178  LEU178      0.0001
     48  CD2       -4.9800  -44.5160   -8.1790 C.3   178  LEU178      0.0001
     49  N         -1.2750  -43.6540  -11.7810 N.am  179  ALA179     -0.1980
     50  CA        -0.9360  -42.4160  -12.4390 C.3   179  ALA179      0.1597
     51  C         -2.1380  -42.0740  -13.2900 C.2   179  ALA179      0.2287
     52  O         -2.5800  -42.9320  -14.0410 O.2   179  ALA179     -0.2864
     53  CB         0.3310  -42.5690  -13.2600 C.3   179  ALA179      0.0319
     54  N         -0.7090  -38.9450   -8.8580 N.3   194  TYR194     -0.1227
     55  CA         0.2860  -40.0070   -8.7430 C.3   194  TYR194      0.1736
     56  C          0.2210  -40.4960   -7.2960 C.2   194  TYR194      0.2595
     57  O          0.5220  -39.7290   -6.3720 O.2   194  TYR194     -0.2718
     58  CB         1.6710  -39.5050   -9.1460 C.3   194  TYR194      0.0548
     59  CG         1.6330  -38.7230  -10.4350 C.ar  194  TYR194     -0.0200
     60  CD1        1.3740  -39.3540  -11.6460 C.ar  194  TYR194     -0.0009
     61  CD2        1.7810  -37.3390  -10.4400 C.ar  194  TYR194     -0.0009
     62  CE1        1.2740  -38.6310  -12.8320 C.ar  194  TYR194      0.0417
     63  CE2        1.7370  -36.6120  -11.6290 C.ar  194  TYR194      0.0417
     64  CZ         1.5010  -37.2680  -12.8280 C.ar  194  TYR194      0.1957
     65  OH         1.4500  -36.5910  -14.0230 O.3   194  TYR194     -0.2866
     66  N         -0.2430  -41.7330   -7.0960 N.am  195  ALA195     -0.1966
     67  CA        -0.4320  -42.3220   -5.7690 C.3   195  ALA195      0.1728
     68  C          0.1410  -43.7260   -5.6790 C.2   195  ALA195      0.2616
     69  O          0.0510  -44.4990   -6.6320 O.2   195  ALA195     -0.2715
     70  CB        -1.9300  -42.3430   -5.4200 C.3   195  ALA195      0.0334
     71  N          0.7410  -44.0440   -4.5410 N.am  196  ILE196     -0.1977
     72  CA         1.3230  -45.3580   -4.2450 C.3   196  ILE196      0.1596
     73  C          0.9810  -45.7190   -2.7930 C.2   196  ILE196      0.2287
     74  O          0.9970  -44.8390   -1.9090 O.2   196  ILE196     -0.2864
     75  CB         2.8530  -45.4660   -4.5440 C.3   196  ILE196      0.0276
     76  CG1        3.3130  -46.9560   -4.5860 C.3   196  ILE196      0.0022
     77  CG2        3.7240  -44.6360   -3.5860 C.3   196  ILE196      0.0022
     78  CD1        4.0610  -47.3470   -5.8460 C.3   196  ILE196      0.0001
     79  N          0.9700  -42.4490   -0.1370 N.3   216  PHE216     -0.1227
     80  CA         1.7070  -41.2790   -0.6630 C.3   216  PHE216      0.1736
     81  C          1.0780  -40.8550   -1.9530 C.2   216  PHE216      0.2595
     82  O          0.8560  -41.6910   -2.8460 O.2   216  PHE216     -0.2718
     83  CB         3.2000  -41.5790   -0.8560 C.3   216  PHE216      0.0547
     84  CG         3.8710  -42.1240    0.3790 C.ar  216  PHE216     -0.0202
     85  CD1        4.3140  -41.2690    1.3880 C.ar  216  PHE216     -0.0042
     86  CD2        4.0390  -43.4930    0.5530 C.ar  216  PHE216     -0.0042
     87  CE1        4.9200  -41.7760    2.5430 C.ar  216  PHE216     -0.0003
     88  CE2        4.6470  -44.0000    1.7180 C.ar  216  PHE216     -0.0003
     89  CZ         5.0790  -43.1390    2.7060 C.ar  216  PHE216     -0.0000
     90  N          0.7430  -39.5640   -2.0450 N.am  217  GLN217     -0.1965
     91  CA         0.0410  -39.0170   -3.2080 C.3   217  GLN217      0.1733
     92  C          0.5030  -37.6000   -3.5320 C.2   217  GLN217      0.2616
     93  O          0.7240  -36.7710   -2.6470 O.2   217  GLN217     -0.2715
     94  CB        -1.4810  -39.0330   -2.9470 C.3   217  GLN217      0.0408
     95  CG        -2.3370  -38.5610   -4.1020 C.3   217  GLN217      0.0908
     96  CD        -3.7700  -38.7900   -3.7710 C.2   217  GLN217      0.2608
     97  OE1       -4.4730  -37.8550   -3.3890 O.2   217  GLN217     -0.2717
     98  NE2       -4.2420  -40.0310   -3.9260 N.am  217  GLN217     -0.0878
     99  N          0.6490  -37.3400   -4.8130 N.am  218  ASN218     -0.1972
    100  CA         1.0750  -36.0400   -5.3150 C.3   218  ASN218      0.1688
    101  C          0.2060  -35.6740   -6.4520 C.2   218  ASN218      0.2292
    102  O          0.0530  -36.4590   -7.3860 O.2   218  ASN218     -0.2864
    103  CB         2.5450  -36.0220   -5.7170 C.3   218  ASN218      0.1181
    104  CG         2.9700  -34.6460   -6.1600 C.2   218  ASN218      0.2629
    105  OD1        3.0820  -33.7240   -5.3610 O.2   218  ASN218     -0.2716
    106  ND2        3.1000  -34.4500   -7.4500 N.am  218  ASN218     -0.0877
    107  N         -0.4240  -32.4340   -1.7270 N.3   259  ASN259     -0.1240
    108  CA         0.5490  -33.4900   -1.4990 C.3   259  ASN259      0.1653
    109  C          0.2010  -34.2170   -0.2040 C.2   259  ASN259      0.2266
    110  O         -0.1020  -33.5510    0.7760 O.2   259  ASN259     -0.2867
    111  CB         1.9510  -32.8960   -1.4650 C.3   259  ASN259      0.1155
    112  CG         3.0300  -33.9270   -1.4890 C.2   259  ASN259      0.2627
    113  OD1        3.3100  -34.5820   -0.4840 O.2   259  ASN259     -0.2716
    114  ND2        3.6420  -34.1140   -2.6510 N.am  259  ASN259     -0.0877
@<TRIPOS>BOND
     1    12    13    1
     2    12     9    1
     3    15    13   ar
     4    15    17   ar
     5    13    14   ar
     6    17    18   ar
     7    14    16   ar
     8    18    16   ar
     9    11    10    2
    10    10     9    1
    11     9     8    1
    12    25    23    1
    13    23    20    1
    14    23    24    1
    15     6     5    1
    16    19    20    1
    17    20    21    1
    18     4     3    2
    19     5     7    1
    20     5     2    1
    21     3     2    1
    22    52    51    2
    23    21    26   am
    24    21    22    2
    25    65    64    1
    26     2     1    1
    27    26    27    1
    28    51    50    1
    29    53    50    1
    30    29    28    2
    31    62    64   ar
    32    62    60   ar
    33    64    63   ar
    34    50    49    1
    35    27    28    1
    36    28    30   am
    37    49    43   am
    38    60    59   ar
    39    63    61   ar
    40    34    31    1
    41    34    35    1
    42    30    31    1
    43    31    32    1
    44    43    42    1
    45    43    44    2
    46    61    59   ar
    47    59    58    1
    48    42    45    1
    49    42    41    1
    50    37    35   ar
    51    37    39   ar
    52    35    36   ar
    53    45    46    1
    54    47    46    1
    55    32    33    2
    56    58    55    1
    57    39    40   ar
    58    54    55    1
    59    46    48    1
    60    36    38   ar
    61    55    56    1
    62    40    38   ar
    63   106   104   am
    64   102   101    2
    65    56    66   am
    66    56    57    2
    67    66    67    1
    68    69    68    2
    69   101   100    1
    70   104   103    1
    71   104   105    2
    72    78    76    1
    73    67    68    1
    74    67    70    1
    75   103   100    1
    76    68    71   am
    77   100    99    1
    78    99    92   am
    79    76    75    1
    80    75    72    1
    81    75    77    1
    82    71    72    1
    83    72    73    1
    84    95    96    1
    85    95    94    1
    86    98    96   am
    87    96    97    2
    88    92    91    1
    89    92    93    2
    90    91    94    1
    91    91    90    1
    92    82    81    2
    93    73    74    2
    94   114   112   am
    95    90    81   am
    96    81    80    1
    97   107   108    1
    98   108   111    1
    99   108   109    1
   100   112   111    1
   101   112   113    2
   102    83    80    1
   103    83    84    1
   104    80    79    1
   105   109   110    2
   106    84    86   ar
   107    84    85   ar
   108    86    88   ar
   109    85    87   ar
   110    88    89   ar
   111    87    89   ar
