@<TRIPOS>MOLECULE
tmp/4cu4A02.pdb
 86 80 0 0 0
SMALL
GASTEIGER

@<TRIPOS>ATOM
      1  N        -36.6600  -64.9040   11.4220 N.3   467  ASN467     -0.1240
      2  CA       -36.8530  -64.7640    9.9720 C.3   467  ASN467      0.1653
      3  C        -35.9720  -63.6470    9.2980 C.2   467  ASN467      0.2266
      4  O        -35.9860  -63.5260    8.0670 O.2   467  ASN467     -0.2867
      5  CB       -38.3320  -64.5200    9.6550 C.3   467  ASN467      0.1155
      6  CG       -38.9160  -63.2040   10.1170 C.2   467  ASN467      0.2627
      7  OD1      -38.3440  -62.4750   10.9290 O.2   467  ASN467     -0.2716
      8  ND2      -40.1040  -62.8890    9.6220 N.am  467  ASN467     -0.0877
      9  N        -36.0630  -60.2210   10.1890 N.3   469  VAL469     -0.1245
     10  CA       -36.6920  -58.9330   10.4630 C.3   469  VAL469      0.1561
     11  C        -36.1500  -58.4300   11.8060 C.2   469  VAL469      0.2260
     12  O        -36.2750  -59.1340   12.8140 O.2   469  VAL469     -0.2867
     13  CB       -38.2500  -59.0500   10.4580 C.3   469  VAL469      0.0252
     14  CG1      -38.9230  -57.7680   10.9610 C.3   469  VAL469      0.0019
     15  CG2      -38.7750  -59.4370    9.0810 C.3   469  VAL469      0.0019
     16  N        -36.2750  -50.6730   10.8460 N.3   504  VAL504     -0.1245
     17  CA       -36.3530  -52.1330   10.7320 C.3   504  VAL504      0.1561
     18  C        -35.3130  -52.5490    9.7000 C.2   504  VAL504      0.2260
     19  O        -35.2300  -51.9690    8.6100 O.2   504  VAL504     -0.2867
     20  CB       -37.7750  -52.7310   10.4290 C.3   504  VAL504      0.0252
     21  CG1      -38.8030  -52.3530   11.4970 C.3   504  VAL504      0.0019
     22  CG2      -38.2890  -52.3200    9.0650 C.3   504  VAL504      0.0019
     23  N        -33.9820  -55.7210    7.4580 N.3   506  TYR506     -0.1241
     24  CA       -34.3110  -57.0590    6.9670 C.3   506  TYR506      0.1605
     25  C        -33.0590  -57.6880    6.3810 C.2   506  TYR506      0.2264
     26  O        -32.6340  -57.3570    5.2690 O.2   506  TYR506     -0.2867
     27  CB       -35.4820  -57.0760    5.9660 C.3   506  TYR506      0.0534
     28  CG       -35.8150  -58.4830    5.5010 C.ar  506  TYR506     -0.0201
     29  CD1      -36.2230  -59.4610    6.4080 C.ar  506  TYR506     -0.0009
     30  CD2      -35.6970  -58.8420    4.1620 C.ar  506  TYR506     -0.0009
     31  CE1      -36.4970  -60.7630    5.9950 C.ar  506  TYR506      0.0417
     32  CE2      -35.9920  -60.1380    3.7310 C.ar  506  TYR506      0.0417
     33  CZ       -36.3890  -61.0960    4.6540 C.ar  506  TYR506      0.1957
     34  OH       -36.6530  -62.3820    4.2560 O.3   506  TYR506     -0.2866
     35  N        -32.0510  -61.4960    6.1140 N.3   508  PRO508     -0.2116
     36  CA       -32.2890  -62.9450    6.3130 C.3   508  PRO508      0.1372
     37  C        -31.0210  -63.7730    6.1300 C.2   508  PRO508      0.2244
     38  O        -30.2980  -63.5800    5.1550 O.2   508  PRO508     -0.2868
     39  CB       -33.3170  -63.2860    5.2300 C.3   508  PRO508      0.0268
     40  CG       -33.0430  -62.2910    4.1340 C.3   508  PRO508      0.0207
     41  CD       -32.5320  -61.0410    4.7910 C.3   508  PRO508      0.0892
     42  N        -30.7590  -66.9170    5.2510 N.3   510  ASP510     -0.1225
     43  CA       -30.9320  -67.8680    4.1480 C.3   510  ASP510      0.1805
     44  C        -31.2140  -67.2470    2.7470 C.2   510  ASP510      0.2597
     45  O        -31.3590  -68.0120    1.7880 O.2   510  ASP510     -0.2718
     46  CB       -32.0680  -68.8530    4.5020 C.3   510  ASP510      0.1424
     47  CG       -33.4510  -68.2420    4.7420 C.2   510  ASP510      0.3668
     48  OD1      -33.5290  -67.0210    5.0220 O.co2 510  ASP510     -0.2456
     49  OD2      -34.4510  -68.9970    4.6980 O.co2 510  ASP510     -0.2456
     50  N        -31.2780  -65.9010    2.6110 N.am  511  ARG511     -0.1979
     51  CA       -31.5380  -65.2320    1.3190 C.3   511  ARG511      0.1597
     52  C        -30.5320  -64.0950    1.0480 C.2   511  ARG511      0.2287
     53  O        -30.1580  -63.4010    2.0010 O.2   511  ARG511     -0.2864
     54  CB       -32.9640  -64.6560    1.2800 C.3   511  ARG511      0.0334
     55  CG       -34.0940  -65.6550    1.4850 C.3   511  ARG511      0.0492
     56  CD       -35.3390  -64.9160    1.9200 C.3   511  ARG511      0.2205
     57  NE       -36.3660  -65.8100    2.4550 N.pl3 511  ARG511     -0.0865
     58  CZ       -37.4940  -66.1220    1.8220 C.cat 511  ARG511      0.5346
     59  NH1      -37.7470  -65.6260    0.6150 N.pl3 511  ARG511      0.1354
     60  NH2      -38.3800  -66.9300    2.3910 N.pl3 511  ARG511      0.1354
     61  N        -32.4760  -55.2330    3.2010 N.3   515  VAL515     -0.1231
     62  CA       -33.4470  -54.1440    3.0570 C.3   515  VAL515      0.1692
     63  C        -33.5410  -53.4660    4.4090 C.2   515  VAL515      0.2593
     64  O        -33.7080  -54.1570    5.4140 O.2   515  VAL515     -0.2718
     65  CB       -34.8460  -54.5770    2.5100 C.3   515  VAL515      0.0266
     66  CG1      -35.8000  -53.3870    2.4300 C.3   515  VAL515      0.0020
     67  CG2      -34.7390  -55.2580    1.1420 C.3   515  VAL515      0.0020
     68  N        -33.3910  -52.1300    4.4530 N.am  516  THR516     -0.1939
     69  CA       -33.4620  -51.3680    5.7090 C.3   516  THR516      0.2028
     70  C        -34.3950  -50.1930    5.5600 C.2   516  THR516      0.2642
     71  O        -34.4830  -49.5880    4.4950 O.2   516  THR516     -0.2714
     72  CB       -32.0650  -50.8380    6.1620 C.3   516  THR516      0.1808
     73  OG1      -31.6400  -49.8160    5.2590 O.3   516  THR516     -0.2208
     74  CG2      -30.9830  -51.9310    6.2860 C.3   516  THR516      0.0379
     75  N        -35.0280  -49.8440    6.6590 N.am  517  GLY517     -0.1954
     76  CA       -35.9170  -48.6990    6.7710 C.3   517  GLY517      0.1869
     77  C        -35.5970  -47.9930    8.0640 C.2   517  GLY517      0.2309
     78  O        -35.2750  -48.6480    9.0570 O.2   517  GLY517     -0.2863
     79  N        -34.7120  -45.4180    2.9660 N.3   551  ILE551     -0.1245
     80  CA       -34.8770  -46.8080    2.5800 C.3   551  ILE551      0.1561
     81  C        -33.7170  -47.2050    1.6970 C.2   551  ILE551      0.2260
     82  O        -33.3720  -46.4780    0.7760 O.2   551  ILE551     -0.2867
     83  CB       -36.2450  -47.0700    1.8840 C.3   551  ILE551      0.0252
     84  CG1      -37.4240  -46.8480    2.8620 C.3   551  ILE551      0.0019
     85  CG2      -36.3050  -48.4920    1.3010 C.3   551  ILE551      0.0019
     86  CD1      -38.6250  -46.2300    2.2130 C.3   551  ILE551      0.0001
@<TRIPOS>BOND
     1    59    58    1
     2    82    81    2
     3    52    51    1
     4    52    53    2
     5    67    65    1
     6    54    51    1
     7    54    55    1
     8    85    83    1
     9    51    50    1
    10    55    56    1
    11    81    80    1
    12    45    44    2
    13    58    60    1
    14    58    57    2
    15    83    80    1
    16    83    84    1
    17    56    57    1
    18    86    84    1
    19    66    65    1
    20    65    62    1
    21    80    79    1
    22    50    44   am
    23    44    43    1
    24    62    61    1
    25    62    63    1
    26    32    30   ar
    27    32    33   ar
    28    40    41    1
    29    40    39    1
    30    43    46    1
    31    43    42    1
    32    30    28   ar
    33    34    33    1
    34    63    68   am
    35    63    64    2
    36    68    69    1
    37    71    70    2
    38    46    47    1
    39    33    31   ar
    40    49    47   ar
    41    47    48   ar
    42    41    35    1
    43    38    37    2
    44    39    36    1
    45    73    72    1
    46    26    25    2
    47    28    27    1
    48    28    29   ar
    49    70    69    1
    50    70    75   am
    51    69    72    1
    52    27    24    1
    53    31    29   ar
    54    35    36    1
    55    37    36    1
    56    72    74    1
    57    25    24    1
    58    75    76    1
    59    76    77    1
    60    24    23    1
    61    77    78    2
    62     4     3    2
    63    19    18    2
    64    22    20    1
    65    15    13    1
    66     3     2    1
    67     8     6   am
    68     5     2    1
    69     5     6    1
    70    18    17    1
    71     2     1    1
    72     6     7    2
    73     9    10    1
    74    20    17    1
    75    20    21    1
    76    13    10    1
    77    13    14    1
    78    10    11    1
    79    17    16    1
    80    11    12    2
