@<TRIPOS>MOLECULE
tmp/4cu7A00.pdb
 144 142 0 0 0
SMALL
GASTEIGER

@<TRIPOS>ATOM
      1  N         99.9300   21.3560    4.2950 N.3   152  ARG152     -0.1231
      2  CA       100.3980   20.0480    3.8410 C.3   152  ARG152      0.1694
      3  C         99.4810   19.4840    2.7410 C.2   152  ARG152      0.2592
      4  O         99.6400   18.3360    2.3220 O.2   152  ARG152     -0.2718
      5  CB       100.5130   19.0590    5.0130 C.3   152  ARG152      0.0321
      6  CG       101.4310   19.5140    6.1720 C.3   152  ARG152      0.0489
      7  CD       101.5220   18.4690    7.2900 C.3   152  ARG152      0.2205
      8  NE       100.2010   18.1320    7.8420 N.pl3 152  ARG152     -0.0865
      9  CZ        99.5080   17.0450    7.5170 C.cat 152  ARG152      0.5346
     10  NH1       99.9790   16.1780    6.6280 N.pl3 152  ARG152      0.1354
     11  NH2       98.3220   16.8100    8.0890 N.pl3 152  ARG152      0.1354
     12  N         98.5070   20.2770    2.3250 N.am  153  TRP153     -0.1976
     13  CA        97.5320   19.8850    1.2810 C.3   153  TRP153      0.1640
     14  C         97.1460   21.1550    0.5560 C.2   153  TRP153      0.2290
     15  O         97.4700   22.2330    1.0220 O.2   153  TRP153     -0.2864
     16  CB        96.2820   19.2470    1.9220 C.3   153  TRP153      0.0576
     17  CG        95.5520   20.1290    2.9290 C.ar  153  TRP153      0.0006
     18  CD1       94.5430   21.0420    2.6740 C.ar  153  TRP153      0.0946
     19  CD2       95.7750   20.1590    4.3360 C.ar  153  TRP153      0.0152
     20  NE1       94.1200   21.6330    3.8620 N.ar  153  TRP153     -0.2442
     21  CE2       94.8580   21.1040    4.8940 C.ar  153  TRP153      0.0810
     22  CE3       96.6360   19.4510    5.1940 C.ar  153  TRP153      0.0012
     23  CZ2       94.8030   21.3850    6.2720 C.ar  153  TRP153      0.0191
     24  CZ3       96.5790   19.7290    6.5570 C.ar  153  TRP153      0.0001
     25  CH2       95.6510   20.6870    7.0850 C.ar  153  TRP153      0.0015
     26  N         89.2320   16.2240    2.9170 N.3   314  HIS314     -0.1241
     27  CA        89.7490   17.5750    2.7770 C.3   314  HIS314      0.1621
     28  C         88.6660   18.4360    2.1600 C.2   314  HIS314      0.2264
     29  O         87.6650   17.9260    1.6620 O.2   314  HIS314     -0.2867
     30  CB        91.0580   17.5810    1.9380 C.3   314  HIS314      0.0745
     31  CG        92.2940   17.4180    2.7780 C.ar  314  HIS314      0.0817
     32  ND1       92.5730   18.2620    3.8440 N.ar  314  HIS314     -0.2268
     33  CD2       93.3270   16.5370    2.7190 C.ar  314  HIS314      0.1154
     34  CE1       93.7100   17.8990    4.4160 C.ar  314  HIS314      0.1986
     35  NE2       94.1900   16.8550    3.7580 N.ar  314  HIS314     -0.2212
     36  N         91.9180   18.7790    8.1420 N.3   348  HIS348     -0.1241
     37  CA        92.1390   18.8270    9.5950 C.3   348  HIS348      0.1621
     38  C         91.8570   20.2740    9.9790 C.2   348  HIS348      0.2264
     39  O         92.7770   21.0510   10.2690 O.2   348  HIS348     -0.2867
     40  CB        93.5910   18.4630    9.9660 C.3   348  HIS348      0.0745
     41  CG        94.0660   17.1590    9.4040 C.ar  348  HIS348      0.0817
     42  ND1       93.6830   15.9390    9.9150 N.ar  348  HIS348     -0.2268
     43  CD2       94.8480   16.8890    8.3320 C.ar  348  HIS348      0.1154
     44  CE1       94.2370   14.9740    9.2070 C.ar  348  HIS348      0.1986
     45  NE2       94.9450   15.5240    8.2330 N.ar  348  HIS348     -0.2212
     46  N         95.3410   16.8360   15.0710 N.3   427  ASN427     -0.1225
     47  CA        95.7900   15.7240   14.2430 C.3   427  ASN427      0.1785
     48  C         97.3440   15.6100   14.1900 C.2   427  ASN427      0.2597
     49  O         98.0490   16.5660   13.8260 O.2   427  ASN427     -0.2718
     50  CB        95.2750   15.8910   12.8200 C.3   427  ASN427      0.1169
     51  CG        95.9470   14.9300   11.8540 C.2   427  ASN427      0.2627
     52  OD1       95.7230   13.7070   11.9020 O.2   427  ASN427     -0.2716
     53  ND2       96.8310   15.4770   10.9970 N.am  427  ASN427     -0.0877
     54  N         97.8320   14.4220   14.5530 N.am  428  GLU428     -0.1979
     55  CA        99.2590   14.0740   14.5210 C.3   428  GLU428      0.1602
     56  C        100.1010   15.2390   15.0700 C.2   428  GLU428      0.2287
     57  O        100.9820   15.7750   14.3740 O.2   428  GLU428     -0.2864
     58  CB        99.6980   13.6630   13.1040 C.3   428  GLU428      0.0415
     59  CG        98.9340   12.4380   12.6070 C.3   428  GLU428      0.1163
     60  CD        99.3780   11.9030   11.2660 C.2   428  GLU428      0.3649
     61  OE1      100.1110   12.5930   10.5190 O.co2 428  GLU428     -0.2457
     62  OE2       98.9650   10.7850   10.9300 O.co2 428  GLU428     -0.2457
     63  N         96.7340    4.9050   12.0030 N.3   488  TYR488     -0.1241
     64  CA        97.5800    3.8260   11.4700 C.3   488  TYR488      0.1605
     65  C         98.2040    2.9310   12.5440 C.2   488  TYR488      0.2264
     66  O         99.3130    2.4320   12.3610 O.2   488  TYR488     -0.2867
     67  CB        98.6610    4.3750   10.5060 C.3   488  TYR488      0.0534
     68  CG        98.0680    5.3500    9.5020 C.ar  488  TYR488     -0.0201
     69  CD1       97.3950    4.8920    8.3540 C.ar  488  TYR488     -0.0009
     70  CD2       98.1010    6.7240    9.7600 C.ar  488  TYR488     -0.0009
     71  CE1       96.8030    5.7930    7.4730 C.ar  488  TYR488      0.0417
     72  CE2       97.5020    7.6340    8.8770 C.ar  488  TYR488      0.0417
     73  CZ        96.8600    7.1610    7.7420 C.ar  488  TYR488      0.1957
     74  OH        96.2770    8.0630    6.8730 O.3   488  TYR488     -0.2866
     75  N         92.3970    7.6340   11.8550 N.3   509  GLU509     -0.1245
     76  CA        92.8680    7.6990   10.4660 C.3   509  GLU509      0.1567
     77  C         93.4710    6.3950   10.0300 C.2   509  GLU509      0.2260
     78  O         94.3620    5.8540   10.7020 O.2   509  GLU509     -0.2867
     79  CB        93.9130    8.7940   10.3000 C.3   509  GLU509      0.0388
     80  CG        93.7280    9.5890    9.0020 C.3   509  GLU509      0.1160
     81  CD        94.8350   10.6100    8.8240 C.2   509  GLU509      0.3649
     82  OE1       94.7600   11.6920    9.4200 O.co2 509  GLU509     -0.2457
     83  OE2       95.8050   10.2920    8.0980 O.co2 509  GLU509     -0.2457
     84  N         95.3020    4.7800    3.8740 N.3   512  SER512     -0.1217
     85  CA        96.2600    5.4810    3.0050 C.3   512  SER512      0.1889
     86  C         96.7830    4.5320    1.9350 C.2   512  SER512      0.2288
     87  O         97.9680    4.5670    1.5550 O.2   512  SER512     -0.2866
     88  CB        97.4250    6.1270    3.7730 C.3   512  SER512      0.2089
     89  OG        97.0860    7.4370    4.2170 O.3   512  SER512     -0.2183
     90  N        103.5630    3.5690    5.8510 N.3   549  TRP549     -0.1241
     91  CA       102.8520    3.5110    7.1380 C.3   549  TRP549      0.1605
     92  C        101.4050    3.0320    7.0210 C.2   549  TRP549      0.2264
     93  O        100.6840    2.9940    8.0140 O.2   549  TRP549     -0.2867
     94  CB       102.8750    4.8760    7.7990 C.3   549  TRP549      0.0550
     95  CG       102.3190    5.9820    6.9220 C.ar  549  TRP549      0.0003
     96  CD1      101.0410    6.4470    6.9140 C.ar  549  TRP549      0.0946
     97  CD2      103.0420    6.7520    5.9500 C.ar  549  TRP549      0.0152
     98  NE1      100.9090    7.4640    5.9960 N.ar  549  TRP549     -0.2442
     99  CE2      102.1270    7.6790    5.3960 C.ar  549  TRP549      0.0810
    100  CE3      104.3880    6.7430    5.4850 C.ar  549  TRP549      0.0012
    101  CZ2      102.4910    8.5970    4.3920 C.ar  549  TRP549      0.0191
    102  CZ3      104.7690    7.6790    4.4800 C.ar  549  TRP549      0.0001
    103  CH2      103.8040    8.5960    3.9570 C.ar  549  TRP549      0.0015
    104  N         91.6190    7.4170    5.1990 N.3   572  TRP572     -0.1241
    105  CA        92.3420    8.4280    4.4430 C.3   572  TRP572      0.1605
    106  C         92.4180    7.9920    2.9780 C.2   572  TRP572      0.2264
    107  O         93.2290    7.0910    2.6710 O.2   572  TRP572     -0.2867
    108  CB        93.7890    8.5860    5.0090 C.3   572  TRP572      0.0550
    109  CG        94.3880    9.8480    4.5240 C.ar  572  TRP572      0.0003
    110  CD1       95.2300    9.9990    3.4450 C.ar  572  TRP572      0.0946
    111  CD2       94.1090   11.1680    5.0120 C.ar  572  TRP572      0.0152
    112  NE1       95.5000   11.3240    3.2470 N.ar  572  TRP572     -0.2442
    113  CE2       94.8150   12.0720    4.1810 C.ar  572  TRP572      0.0810
    114  CE3       93.3120   11.6820    6.0600 C.ar  572  TRP572      0.0012
    115  CZ2       94.7590   13.4420    4.3610 C.ar  572  TRP572      0.0191
    116  CZ3       93.2560   13.0620    6.2300 C.ar  572  TRP572      0.0001
    117  CH2       93.9820   13.9190    5.3960 C.ar  572  TRP572      0.0015
    118  N         99.3690   16.8280   -1.8230 N.3   580  GLU580     -0.1245
    119  CA        99.8730   15.5940   -1.2210 C.3   580  GLU580      0.1567
    120  C         99.9120   14.3570   -2.1250 C.2   580  GLU580      0.2260
    121  O         99.2340   13.3760   -1.8520 O.2   580  GLU580     -0.2867
    122  CB        99.1800   15.3260    0.1310 C.3   580  GLU580      0.0388
    123  CG        99.9780   14.3720    1.0110 C.3   580  GLU580      0.1160
    124  CD        99.4300   14.2600    2.4240 C.2   580  GLU580      0.3649
    125  OE1       98.2280   14.5770    2.6380 O.co2 580  GLU580     -0.2457
    126  OE2      100.1980   13.8310    3.3280 O.co2 580  GLU580     -0.2457
    127  N        101.7050   11.7330   -2.5230 N.3   582  THR582     -0.1218
    128  CA       102.3940   10.5500   -2.0450 C.3   582  THR582      0.1862
    129  C        101.8710    9.3360   -2.8100 C.2   582  THR582      0.2287
    130  O        100.6660    9.2030   -2.9570 O.2   582  THR582     -0.2866
    131  CB       102.0790   10.4010   -0.5480 C.3   582  THR582      0.1770
    132  OG1      102.2840   11.6880    0.0710 O.3   582  THR582     -0.2211
    133  CG2      102.9730    9.3180    0.1150 C.3   582  THR582      0.0375
    134  N         95.1730    8.9290   -2.5180 N.3   597  PHE597     -0.1241
    135  CA        94.5520    8.2780   -1.3450 C.3   597  PHE597      0.1605
    136  C         93.0480    8.0460   -1.4250 C.2   597  PHE597      0.2264
    137  O         92.5010    7.2350   -0.6720 O.2   597  PHE597     -0.2867
    138  CB        94.7900    9.1240   -0.1060 C.3   597  PHE597      0.0534
    139  CG        96.2570    9.2930    0.2670 C.ar  597  PHE597     -0.0203
    140  CD1       97.0350    8.1960    0.6190 C.ar  597  PHE597     -0.0042
    141  CD2       96.8040   10.5520    0.3690 C.ar  597  PHE597     -0.0042
    142  CE1       98.3580    8.3590    1.0300 C.ar  597  PHE597     -0.0003
    143  CE2       98.1290   10.7250    0.7750 C.ar  597  PHE597     -0.0003
    144  CZ        98.9020    9.6350    1.0920 C.ar  597  PHE597     -0.0000
@<TRIPOS>BOND
     1   130   129    2
     2   129   128    1
     3   127   128    1
     4   134   135    1
     5   120   121    2
     6   120   119    1
     7   128   131    1
     8   118   119    1
     9   136   135    1
    10   136   137    2
    11   135   138    1
    12   119   122    1
    13   131   132    1
    14   131   133    1
    15   138   139    1
    16   122   123    1
    17   139   141   ar
    18   139   140   ar
    19   141   143   ar
    20    14    15    2
    21    14    13    1
    22   140   142   ar
    23   143   144   ar
    24   123   124    1
    25   142   144   ar
    26    13    16    1
    27    13    12    1
    28    87    86    2
    29    29    28    2
    30    16    17    1
    31    86    85    1
    32    30    27    1
    33    30    31    1
    34    28    27    1
    35     4     3    2
    36    12     3   am
    37   124   125   ar
    38   124   126   ar
    39   107   106    2
    40    18    17   ar
    41    18    20   ar
    42    33    31   ar
    43    33    35   ar
    44     3     2    1
    45    27    26    1
    46    31    32   ar
    47    17    19   ar
    48   106   105    1
    49    85    88    1
    50    85    84    1
    51   112   110   ar
    52   112   113   ar
    53   110   109   ar
    54    35    34   ar
    55    88    89    1
    56     2     1    1
    57     2     5    1
    58    32    34   ar
    59    20    21   ar
    60   103   101   ar
    61   103   102   ar
    62   113   115   ar
    63   113   111   ar
    64    19    21   ar
    65    19    22   ar
    66   115   117   ar
    67   101    99   ar
    68   105   108    1
    69   105   104    1
    70   102   100   ar
    71   109   108    1
    72   109   111   ar
    73    21    23   ar
    74   111   114   ar
    75     5     6    1
    76    22    24   ar
    77   117   116   ar
    78    99    97   ar
    79    99    98   ar
    80   100    97   ar
    81    90    91    1
    82    97    95   ar
    83    98    96   ar
    84   114   116   ar
    85     6     7    1
    86    23    25   ar
    87    24    25   ar
    88    10     9    1
    89    74    73    1
    90    96    95   ar
    91    95    94    1
    92    92    91    1
    93    92    93    2
    94    91    94    1
    95     7     8    1
    96    71    73   ar
    97    71    69   ar
    98     9     8    2
    99     9    11    1
   100    73    72   ar
   101    83    81   ar
   102    36    37    1
   103    45    43   ar
   104    45    44   ar
   105    43    41   ar
   106    69    68   ar
   107    81    80    1
   108    81    82   ar
   109    72    70   ar
   110    80    79    1
   111    44    42   ar
   112    41    42   ar
   113    41    40    1
   114    68    70   ar
   115    68    67    1
   116    37    40    1
   117    37    38    1
   118    38    39    2
   119    77    76    1
   120    77    78    2
   121    79    76    1
   122    76    75    1
   123    67    64    1
   124    61    60   ar
   125    62    60   ar
   126    53    51   am
   127    60    59    1
   128    64    63    1
   129    64    65    1
   130    51    52    2
   131    51    50    1
   132    66    65    2
   133    59    58    1
   134    50    47    1
   135    58    55    1
   136    49    48    2
   137    48    47    1
   138    48    54   am
   139    47    46    1
   140    57    56    2
   141    55    54    1
   142    55    56    1
