@<TRIPOS>MOLECULE
tmp/4cu8A00.pdb
 137 136 0 0 0
SMALL
GASTEIGER

@<TRIPOS>ATOM
      1  N         41.5640  -37.0230    4.4120 N.3   152  ARG152     -0.1231
      2  CA        41.9770  -38.3760    3.9610 C.3   152  ARG152      0.1694
      3  C         41.0620  -38.9250    2.8590 C.2   152  ARG152      0.2592
      4  O         41.2280  -40.0820    2.4540 O.2   152  ARG152     -0.2718
      5  CB        42.0100  -39.3630    5.1290 C.3   152  ARG152      0.0321
      6  CG        42.8710  -38.9240    6.3120 C.3   152  ARG152      0.0489
      7  CD        43.0170  -40.0390    7.3630 C.3   152  ARG152      0.2205
      8  NE        41.7260  -40.3850    7.9630 N.pl3 152  ARG152     -0.0865
      9  CZ        40.9660  -41.4090    7.5850 C.cat 152  ARG152      0.5346
     10  NH1       41.3660  -42.2110    6.6040 N.pl3 152  ARG152      0.1354
     11  NH2       39.8110  -41.6530    8.2130 N.pl3 152  ARG152      0.1354
     12  N         40.0950  -38.1180    2.4070 N.am  153  TRP153     -0.1976
     13  CA        39.1450  -38.5200    1.3460 C.3   153  TRP153      0.1640
     14  C         38.7490  -37.2950    0.5550 C.2   153  TRP153      0.2290
     15  O         39.1120  -36.1840    0.9180 O.2   153  TRP153     -0.2864
     16  CB        37.8830  -39.1920    1.9140 C.3   153  TRP153      0.0576
     17  CG        37.1360  -38.3290    2.9130 C.ar  153  TRP153      0.0006
     18  CD1       36.1500  -37.4080    2.6450 C.ar  153  TRP153      0.0946
     19  CD2       37.3250  -38.2970    4.3460 C.ar  153  TRP153      0.0152
     20  NE1       35.7020  -36.8080    3.8120 N.ar  153  TRP153     -0.2442
     21  CE2       36.4000  -37.3220    4.8720 C.ar  153  TRP153      0.0810
     22  CE3       38.1530  -39.0040    5.2400 C.ar  153  TRP153      0.0012
     23  CZ2       36.2940  -37.0460    6.2520 C.ar  153  TRP153      0.0191
     24  CZ3       38.0330  -38.7190    6.6200 C.ar  153  TRP153      0.0001
     25  CH2       37.1100  -37.7490    7.1020 C.ar  153  TRP153      0.0015
     26  N         30.8290  -42.1360    2.8970 N.3   314  HIS314     -0.1241
     27  CA        31.3090  -40.7800    2.7810 C.3   314  HIS314      0.1621
     28  C         30.2060  -39.9510    2.1630 C.2   314  HIS314      0.2264
     29  O         29.1420  -40.4730    1.8080 O.2   314  HIS314     -0.2867
     30  CB        32.6320  -40.6990    1.9920 C.3   314  HIS314      0.0745
     31  CG        33.8540  -40.8990    2.8530 C.ar  314  HIS314      0.0817
     32  ND1       34.1150  -40.1170    3.9570 N.ar  314  HIS314     -0.2268
     33  CD2       34.8740  -41.8050    2.7840 C.ar  314  HIS314      0.1154
     34  CE1       35.2400  -40.5290    4.5400 C.ar  314  HIS314      0.1986
     35  NE2       35.7220  -41.5440    3.8360 N.ar  314  HIS314     -0.2212
     36  N         33.4770  -39.6020    8.2610 N.3   348  HIS348     -0.1241
     37  CA        33.7080  -39.5920    9.6970 C.3   348  HIS348      0.1621
     38  C         33.4460  -38.1550   10.1230 C.2   348  HIS348      0.2264
     39  O         34.3850  -37.4340   10.5230 O.2   348  HIS348     -0.2867
     40  CB        35.1680  -39.9630   10.0150 C.3   348  HIS348      0.0745
     41  CG        35.5940  -41.2920    9.4500 C.ar  348  HIS348      0.0817
     42  ND1       35.2260  -42.4840   10.0100 N.ar  348  HIS348     -0.2268
     43  CD2       36.3440  -41.6060    8.3560 C.ar  348  HIS348      0.1154
     44  CE1       35.7450  -43.4860    9.3060 C.ar  348  HIS348      0.1986
     45  NE2       36.4170  -42.9720    8.2890 N.ar  348  HIS348     -0.2212
     46  N         36.8540  -41.6010   15.1830 N.3   427  ASN427     -0.1225
     47  CA        37.3300  -42.7300   14.3550 C.3   427  ASN427      0.1785
     48  C         38.8680  -42.8470   14.3150 C.2   427  ASN427      0.2597
     49  O         39.5640  -41.8790   13.9410 O.2   427  ASN427     -0.2718
     50  CB        36.8150  -42.6020   12.9280 C.3   427  ASN427      0.1169
     51  CG        37.3890  -43.6720   12.0160 C.2   427  ASN427      0.2627
     52  OD1       37.0850  -44.8640   12.1850 O.2   427  ASN427     -0.2716
     53  ND2       38.2460  -43.2680   11.0660 N.am  427  ASN427     -0.0877
     54  N         39.3690  -44.0390   14.6560 N.am  428  GLU428     -0.1979
     55  CA        40.8230  -44.3310   14.6670 C.3   428  GLU428      0.1602
     56  C         41.6540  -43.1300   15.1400 C.2   428  GLU428      0.2287
     57  O         42.5140  -42.6240   14.4100 O.2   428  GLU428     -0.2864
     58  CB        41.3140  -44.8130   13.2990 C.3   428  GLU428      0.0415
     59  CG        40.5100  -45.9800   12.7820 C.3   428  GLU428      0.1163
     60  CD        41.1420  -46.6820   11.6120 C.2   428  GLU428      0.3649
     61  OE1       41.9900  -46.0710   10.9260 O.co2 428  GLU428     -0.2457
     62  OE2       40.7640  -47.8420   11.3730 O.co2 428  GLU428     -0.2457
     63  N         38.3060  -53.4390   12.0900 N.3   488  TYR488     -0.1241
     64  CA        39.1630  -54.5370   11.5390 C.3   488  TYR488      0.1605
     65  C         39.7890  -55.4220   12.5890 C.2   488  TYR488      0.2264
     66  O         40.9100  -55.8990   12.4010 O.2   488  TYR488     -0.2867
     67  CB        40.2440  -53.9810   10.5830 C.3   488  TYR488      0.0534
     68  CG        39.6570  -53.0120    9.5750 C.ar  488  TYR488     -0.0201
     69  CD1       38.9910  -53.4750    8.4320 C.ar  488  TYR488     -0.0009
     70  CD2       39.6830  -51.6400    9.8140 C.ar  488  TYR488     -0.0009
     71  CE1       38.4100  -52.5870    7.5370 C.ar  488  TYR488      0.0417
     72  CE2       39.1050  -50.7440    8.9300 C.ar  488  TYR488      0.0417
     73  CZ        38.4740  -51.2130    7.7980 C.ar  488  TYR488      0.1957
     74  OH        37.9080  -50.3020    6.9100 O.3   488  TYR488     -0.2866
     75  N         34.0210  -50.7540   11.8010 N.3   509  GLU509     -0.1245
     76  CA        34.5210  -50.6900   10.4360 C.3   509  GLU509      0.1567
     77  C         35.1400  -52.0170   10.0530 C.2   509  GLU509      0.2260
     78  O         36.0750  -52.4970   10.7070 O.2   509  GLU509     -0.2867
     79  CB        35.5400  -49.5610   10.2760 C.3   509  GLU509      0.0388
     80  CG        35.3360  -48.7540    9.0020 C.3   509  GLU509      0.1160
     81  CD        36.4620  -47.7700    8.7430 C.2   509  GLU509      0.3649
     82  OE1       36.4810  -46.6870    9.3570 O.co2 509  GLU509     -0.2457
     83  OE2       37.3560  -48.1020    7.9140 O.co2 509  GLU509     -0.2457
     84  N         36.9750  -53.6410    4.0240 N.3   512  SER512     -0.1217
     85  CA        37.8810  -52.9110    3.1300 C.3   512  SER512      0.1889
     86  C         38.3750  -53.8110    2.0130 C.2   512  SER512      0.2288
     87  O         39.5330  -53.6960    1.5950 O.2   512  SER512     -0.2866
     88  CB        39.0730  -52.2990    3.8630 C.3   512  SER512      0.2089
     89  OG        38.8150  -50.9760    4.2730 O.3   512  SER512     -0.2183
     90  N         45.1870  -54.9730    5.9200 N.3   549  TRP549     -0.1241
     91  CA        44.4910  -55.0400    7.2100 C.3   549  TRP549      0.1605
     92  C         43.0390  -55.4460    7.0830 C.2   549  TRP549      0.2264
     93  O         42.3300  -55.4860    8.0810 O.2   549  TRP549     -0.2867
     94  CB        44.5310  -53.6780    7.8630 C.3   549  TRP549      0.0550
     95  CG        43.9720  -52.5940    7.0030 C.ar  549  TRP549      0.0003
     96  CD1       42.6720  -52.1440    6.9830 C.ar  549  TRP549      0.0946
     97  CD2       44.6850  -51.7790    6.0430 C.ar  549  TRP549      0.0152
     98  NE1       42.5300  -51.1020    6.0870 N.ar  549  TRP549     -0.2442
     99  CE2       43.7350  -50.8460    5.4950 C.ar  549  TRP549      0.0810
    100  CE3       46.0250  -51.7260    5.5950 C.ar  549  TRP549      0.0012
    101  CZ2       44.0890  -49.8970    4.5070 C.ar  549  TRP549      0.0191
    102  CZ3       46.3680  -50.7800    4.6090 C.ar  549  TRP549      0.0001
    103  CH2       45.4080  -49.8820    4.0820 C.ar  549  TRP549      0.0015
    104  N         33.1940  -51.0560    5.2170 N.3   572  TRP572     -0.1241
    105  CA        33.8980  -50.0090    4.4770 C.3   572  TRP572      0.1605
    106  C         34.0110  -50.4770    3.0110 C.2   572  TRP572      0.2264
    107  O         34.8020  -51.3760    2.7480 O.2   572  TRP572     -0.2867
    108  CB        35.3010  -49.7780    5.1010 C.3   572  TRP572      0.0550
    109  CG        35.8830  -48.5390    4.5640 C.ar  572  TRP572      0.0003
    110  CD1       36.7080  -48.4120    3.4620 C.ar  572  TRP572      0.0946
    111  CD2       35.6400  -47.1950    5.0410 C.ar  572  TRP572      0.0152
    112  NE1       36.9810  -47.0750    3.2310 N.ar  572  TRP572     -0.2442
    113  CE2       36.3520  -46.3080    4.1700 C.ar  572  TRP572      0.0810
    114  CE3       34.8940  -46.6610    6.0900 C.ar  572  TRP572      0.0012
    115  CZ2       36.3150  -44.9260    4.3200 C.ar  572  TRP572      0.0191
    116  CZ3       34.8700  -45.2970    6.2470 C.ar  572  TRP572      0.0001
    117  CH2       35.5790  -44.4370    5.3670 C.ar  572  TRP572      0.0015
    118  N         40.8550  -41.6090   -1.6740 N.3   580  GLU580     -0.1245
    119  CA        41.4260  -42.8590   -1.1090 C.3   580  GLU580      0.1567
    120  C         41.4480  -44.1130   -2.0210 C.2   580  GLU580      0.2260
    121  O         40.7340  -45.0800   -1.7600 O.2   580  GLU580     -0.2867
    122  CB        40.7620  -43.1580    0.2450 C.3   580  GLU580      0.0388
    123  CG        41.5560  -44.1140    1.0910 C.3   580  GLU580      0.1160
    124  CD        41.0310  -44.2380    2.5090 C.2   580  GLU580      0.3649
    125  OE1       39.8790  -43.7920    2.7290 O.co2 580  GLU580     -0.2457
    126  OE2       41.7860  -44.7620    3.3970 O.co2 580  GLU580     -0.2457
    127  N         36.6700  -49.4980   -2.4850 N.3   597  PHE597     -0.1241
    128  CA        36.0900  -50.1380   -1.3070 C.3   597  PHE597      0.1605
    129  C         34.5770  -50.3660   -1.4020 C.2   597  PHE597      0.2264
    130  O         34.0140  -51.2120   -0.6930 O.2   597  PHE597     -0.2867
    131  CB        36.3620  -49.2680   -0.0870 C.3   597  PHE597      0.0534
    132  CG        37.8330  -49.1490    0.3020 C.ar  597  PHE597     -0.0203
    133  CD1       38.5680  -50.2630    0.6920 C.ar  597  PHE597     -0.0042
    134  CD2       38.4360  -47.9090    0.3780 C.ar  597  PHE597     -0.0042
    135  CE1       39.8770  -50.1490    1.1010 C.ar  597  PHE597     -0.0003
    136  CE2       39.7450  -47.7920    0.7950 C.ar  597  PHE597     -0.0003
    137  CZ        40.4670  -48.9130    1.1510 C.ar  597  PHE597     -0.0000
@<TRIPOS>BOND
     1   127   128    1
     2   120   121    2
     3   120   119    1
     4   118   119    1
     5   129   128    1
     6   129   130    2
     7   128   131    1
     8   119   122    1
     9   131   132    1
    10   122   123    1
    11   132   134   ar
    12   132   133   ar
    13   134   136   ar
    14    14    15    2
    15    14    13    1
    16   133   135   ar
    17   136   137   ar
    18   123   124    1
    19   135   137   ar
    20    13    16    1
    21    13    12    1
    22    87    86    2
    23    29    28    2
    24    16    17    1
    25    30    27    1
    26    30    31    1
    27    86    85    1
    28    28    27    1
    29    12     3   am
    30     4     3    2
    31   124   125   ar
    32   124   126   ar
    33    18    17   ar
    34    18    20   ar
    35   107   106    2
    36    27    26    1
    37    33    31   ar
    38    33    35   ar
    39    31    32   ar
    40     3     2    1
    41    17    19   ar
    42   106   105    1
    43    85    88    1
    44    85    84    1
    45   112   110   ar
    46   112   113   ar
    47   110   109   ar
    48    20    21   ar
    49    35    34   ar
    50    88    89    1
    51    32    34   ar
    52     2     1    1
    53     2     5    1
    54   103   101   ar
    55   103   102   ar
    56   113   115   ar
    57   113   111   ar
    58   115   117   ar
    59    19    21   ar
    60    19    22   ar
    61   105   108    1
    62   105   104    1
    63   101    99   ar
    64   109   111   ar
    65   109   108    1
    66   102   100   ar
    67    21    23   ar
    68   111   114   ar
    69     5     6    1
    70    22    24   ar
    71   117   116   ar
    72    99    97   ar
    73    99    98   ar
    74   100    97   ar
    75    90    91    1
    76    97    95   ar
    77    98    96   ar
    78   114   116   ar
    79    23    25   ar
    80     6     7    1
    81    10     9    1
    82    24    25   ar
    83    74    73    1
    84    96    95   ar
    85    95    94    1
    86    92    91    1
    87    92    93    2
    88    91    94    1
    89     7     8    1
    90    71    73   ar
    91    71    69   ar
    92     9     8    2
    93     9    11    1
    94    73    72   ar
    95    83    81   ar
    96    36    37    1
    97    45    43   ar
    98    45    44   ar
    99    43    41   ar
   100    69    68   ar
   101    81    80    1
   102    81    82   ar
   103    72    70   ar
   104    80    79    1
   105    44    42   ar
   106    41    42   ar
   107    41    40    1
   108    68    70   ar
   109    68    67    1
   110    37    40    1
   111    37    38    1
   112    77    76    1
   113    77    78    2
   114    38    39    2
   115    79    76    1
   116    76    75    1
   117    67    64    1
   118    61    60   ar
   119    53    51   am
   120    62    60   ar
   121    64    63    1
   122    64    65    1
   123    60    59    1
   124    51    52    2
   125    51    50    1
   126    66    65    2
   127    59    58    1
   128    50    47    1
   129    58    55    1
   130    49    48    2
   131    48    47    1
   132    48    54   am
   133    47    46    1
   134    57    56    2
   135    54    55    1
   136    55    56    1
