@<TRIPOS>MOLECULE
tmp/4cubB00.pdb
 83 80 0 0 0
SMALL
GASTEIGER

@<TRIPOS>ATOM
      1  N         16.8130   16.5110   20.3840 N.3    24  ASN24      -0.1240
      2  CA        16.2210   15.8860   19.2070 C.3    24  ASN24       0.1653
      3  C         17.3410   15.7530   18.1630 C.2    24  ASN24       0.2266
      4  O         17.9770   16.7430   17.8140 O.2    24  ASN24      -0.2867
      5  CB        15.0760   16.7500   18.6500 C.3    24  ASN24       0.1155
      6  CG        14.3010   16.0570   17.5280 C.2    24  ASN24       0.2627
      7  OD1       14.0180   14.8540   17.5980 O.2    24  ASN24      -0.2716
      8  ND2       13.9450   16.8170   16.4950 N.am   24  ASN24      -0.0877
      9  N         17.6810   15.5060   14.8940 N.3    26  SER26      -0.1202
     10  CA        17.7530   16.3900   13.7090 C.3    26  SER26       0.2020
     11  C         17.9440   17.8640   14.0690 C.2    26  SER26       0.2618
     12  O         18.0070   18.7210   13.1870 O.2    26  SER26      -0.2717
     13  CB        16.5410   16.2180   12.7710 C.3    26  SER26       0.2103
     14  OG        15.3410   16.3850   13.4820 O.3    26  SER26      -0.2182
     15  N         18.0700   18.1380   15.3670 N.am   27  ASP27      -0.1973
     16  CA        18.2690   19.4990   15.8820 C.3    27  ASP27       0.1709
     17  C         19.5190   19.5960   16.7950 C.2    27  ASP27       0.2293
     18  O         19.4010   19.8530   17.9910 O.2    27  ASP27      -0.2864
     19  CB        17.0310   19.9250   16.6650 C.3    27  ASP27       0.1436
     20  CG        15.7860   20.0680   15.7890 C.2    27  ASP27       0.3671
     21  OD1       15.8720   20.6270   14.6600 O.co2  27  ASP27      -0.2456
     22  OD2       14.7170   19.6340   16.2510 O.co2  27  ASP27      -0.2456
     23  N         17.8270   25.1470   14.5530 N.3    46  ARG46      -0.1245
     24  CA        17.4890   25.1030   15.9950 C.3    46  ARG46       0.1563
     25  C         18.0420   23.8790   16.7340 C.2    46  ARG46       0.2260
     26  O         18.2350   22.8240   16.1380 O.2    46  ARG46      -0.2867
     27  CB        15.9780   25.1880   16.2290 C.3    46  ARG46       0.0307
     28  CG        15.1110   24.1590   15.4790 C.3    46  ARG46       0.0489
     29  CD        13.6300   24.5380   15.5540 C.3    46  ARG46       0.2205
     30  NE        12.7310   23.6890   14.7530 N.pl3  46  ARG46      -0.0865
     31  CZ        12.2710   23.9830   13.5330 C.cat  46  ARG46       0.5346
     32  NH1       12.6040   25.1220   12.9350 N.pl3  46  ARG46       0.1354
     33  NH2       11.4580   23.1270   12.9010 N.pl3  46  ARG46       0.1354
     34  N         16.5000   21.5770   19.6810 N.3    48  THR48      -0.1218
     35  CA        15.2960   21.3400   20.4860 C.3    48  THR48       0.1862
     36  C         15.5220   20.0830   21.3160 C.2    48  THR48       0.2287
     37  O         16.3680   19.2720   20.9600 O.2    48  THR48      -0.2866
     38  CB        13.9880   21.1340   19.6640 C.3    48  THR48       0.1770
     39  OG1       13.9420   19.7920   19.1280 O.3    48  THR48      -0.2211
     40  CG2       13.8040   22.1710   18.5480 C.3    48  THR48       0.0375
     41  N         12.6630   18.3400   21.5800 N.3    50  TRP50      -0.1241
     42  CA        11.3320   17.8750   21.1670 C.3    50  TRP50       0.1605
     43  C         11.2160   16.3750   21.3520 C.2    50  TRP50       0.2264
     44  O         11.9990   15.5910   20.7820 O.2    50  TRP50      -0.2867
     45  CB        11.0310   18.2660   19.7130 C.3    50  TRP50       0.0550
     46  CG         9.7660   17.6280   19.0970 C.ar   50  TRP50       0.0003
     47  CD1        8.4650   18.1090   19.1720 C.ar   50  TRP50       0.0946
     48  CD2        9.6970   16.4220   18.3010 C.ar   50  TRP50       0.0152
     49  NE1        7.6110   17.2600   18.4920 N.ar   50  TRP50      -0.2442
     50  CE2        8.3360   16.2250   17.9510 C.ar   50  TRP50       0.0810
     51  CE3       10.6470   15.4910   17.8590 C.ar   50  TRP50       0.0012
     52  CZ2        7.9090   15.1330   17.1600 C.ar   50  TRP50       0.0191
     53  CZ3       10.2120   14.3860   17.0910 C.ar   50  TRP50       0.0001
     54  CH2        8.8550   14.2220   16.7580 C.ar   50  TRP50       0.0015
     55  N          6.8120   26.6110   17.3230 N.3    84  ASP84      -0.1225
     56  CA         5.8110   26.0830   16.3720 C.3    84  ASP84       0.1805
     57  C          4.7800   25.3560   17.2290 C.2    84  ASP84       0.2598
     58  O          4.7100   25.6210   18.4340 O.2    84  ASP84      -0.2718
     59  CB         6.4310   25.2380   15.2250 C.3    84  ASP84       0.1424
     60  CG         7.1940   23.9820   15.7170 C.2    84  ASP84       0.3668
     61  OD1        6.9060   23.4870   16.8130 O.co2  84  ASP84      -0.2456
     62  OD2        8.0490   23.4510   14.9720 O.co2  84  ASP84      -0.2456
     63  N          4.0160   24.4440   16.6220 N.am   85  HIS85      -0.1961
     64  CA         2.9220   23.7260   17.2970 C.3    85  HIS85       0.1787
     65  C          3.4050   22.8190   18.4190 C.2    85  HIS85       0.2621
     66  O          2.7060   22.6200   19.4180 O.2    85  HIS85      -0.2715
     67  CB         2.1360   22.9020   16.2700 C.3    85  HIS85       0.0785
     68  CG         3.0070   22.0930   15.3580 C.ar   85  HIS85       0.0821
     69  ND1        3.7150   22.6510   14.3120 N.ar   85  HIS85      -0.2267
     70  CD2        3.3060   20.7720   15.3520 C.ar   85  HIS85       0.1154
     71  CE1        4.4030   21.7060   13.6990 C.ar   85  HIS85       0.1986
     72  NE2        4.1680   20.5580   14.3080 N.ar   85  HIS85      -0.2212
     73  N          4.6060   22.2710   18.2540 N.am   86  GLY86      -0.1940
     74  CA         5.1630   21.3140   19.2090 C.3    86  GLY86       0.2014
     75  C          6.2870   21.7530   20.1400 C.2    86  GLY86       0.2638
     76  O          6.5540   21.0590   21.0940 O.2    86  GLY86      -0.2714
     77  N          6.9620   22.8710   19.8660 N.am   87  VAL87      -0.1977
     78  CA         8.0410   23.3780   20.7520 C.3    87  VAL87       0.1596
     79  C          7.9400   24.8840   21.0380 C.2    87  VAL87       0.2287
     80  O          7.2480   25.6120   20.3240 O.2    87  VAL87      -0.2864
     81  CB         9.4410   23.1430   20.1460 C.3    87  VAL87       0.0276
     82  CG1        9.7800   21.6560   20.0730 C.3    87  VAL87       0.0022
     83  CG2        9.5630   23.8340   18.7890 C.3    87  VAL87       0.0022
@<TRIPOS>BOND
     1    13    14    1
     2    13    10    1
     3    33    31    1
     4    32    31    1
     5    12    11    2
     6    31    30    2
     7    71    72   ar
     8    71    69   ar
     9    10    11    1
    10    10     9    1
    11    11    15   am
    12    72    70   ar
    13    69    68   ar
    14    23    24    1
    15    21    20   ar
    16    30    29    1
    17    62    60   ar
    18    59    60    1
    19    59    56    1
    20    70    68   ar
    21    68    67    1
    22    15    16    1
    23    28    29    1
    24    28    27    1
    25    60    61   ar
    26    20    22   ar
    27    20    19    1
    28    16    19    1
    29    16    17    1
    30    24    27    1
    31    24    25    1
    32    26    25    2
    33    67    64    1
    34    56    57    1
    35    56    55    1
    36     8     6   am
    37    63    57   am
    38    63    64    1
    39    54    53   ar
    40    54    52   ar
    41    17    18    2
    42    53    51   ar
    43    52    50   ar
    44    57    58    2
    45    64    65    1
    46     6     7    2
    47     6     5    1
    48     4     3    2
    49    51    48   ar
    50    50    48   ar
    51    50    49   ar
    52     3     2    1
    53    73    65   am
    54    73    74    1
    55    48    46   ar
    56    65    66    2
    57    49    47   ar
    58    40    38    1
    59     5     2    1
    60    83    81    1
    61    46    47   ar
    62    46    45    1
    63    39    38    1
    64     2     1    1
    65    74    75    1
    66    38    35    1
    67    34    35    1
    68    45    42    1
    69    77    75   am
    70    77    78    1
    71    82    81    1
    72    75    76    2
    73    81    78    1
    74    80    79    2
    75    35    36    1
    76    78    79    1
    77    44    43    2
    78    37    36    2
    79    42    43    1
    80    42    41    1
