@<TRIPOS>MOLECULE
tmp/4cucA00.pdb
 156 152 0 0 0
SMALL
GASTEIGER

@<TRIPOS>ATOM
      1  N        100.3400   21.9840    4.4570 N.3   152  ARG152     -0.1245
      2  CA       100.8460   20.6940    4.0020 C.3   152  ARG152      0.1563
      3  C         99.9910   20.1150    2.8740 C.2   152  ARG152      0.2260
      4  O        100.2910   19.0310    2.3810 O.2   152  ARG152     -0.2867
      5  CB       100.9730   19.6850    5.1610 C.3   152  ARG152      0.0307
      6  CG       101.8810   20.1340    6.3220 C.3   152  ARG152      0.0489
      7  CD       102.0070   19.0540    7.3880 C.3   152  ARG152      0.2205
      8  NE       100.7040   18.7480    7.9840 N.pl3 152  ARG152     -0.0865
      9  CZ       100.0280   17.6270    7.7520 C.cat 152  ARG152      0.5346
     10  NH1      100.5440   16.7000    6.9450 N.pl3 152  ARG152      0.1354
     11  NH2       98.8400   17.4270    8.3300 N.pl3 152  ARG152      0.1354
     12  N         92.3540   19.1470    8.1460 N.3   348  HIS348     -0.1241
     13  CA        92.5290   19.1950    9.6060 C.3   348  HIS348      0.1621
     14  C         92.2090   20.6300   10.0560 C.2   348  HIS348      0.2264
     15  O         93.0820   21.3610   10.5380 O.2   348  HIS348     -0.2867
     16  CB        93.9720   18.8460   10.0040 C.3   348  HIS348      0.0745
     17  CG        94.4280   17.5000    9.5230 C.ar  348  HIS348      0.0817
     18  ND1       93.9530   16.3300   10.0560 N.ar  348  HIS348     -0.2268
     19  CD2       95.2740   17.1450    8.5150 C.ar  348  HIS348      0.1154
     20  CE1       94.5170   15.3010    9.4350 C.ar  348  HIS348      0.1986
     21  NE2       95.3280   15.7800    8.4940 N.ar  348  HIS348     -0.2212
     22  N         98.3150   14.8100   14.6480 N.3   428  GLU428     -0.1245
     23  CA        99.7640   14.5370   14.6190 C.3   428  GLU428      0.1567
     24  C        100.5690   15.7500   15.0910 C.2   428  GLU428      0.2260
     25  O        101.4020   16.2830   14.3560 O.2   428  GLU428     -0.2867
     26  CB       100.2190   14.0710   13.2160 C.3   428  GLU428      0.0388
     27  CG        99.4090   12.8870   12.7050 C.3   428  GLU428      0.1160
     28  CD        99.8830   12.3040   11.3620 C.2   428  GLU428      0.3649
     29  OE1      100.5380   13.0000   10.5370 O.co2 428  GLU428     -0.2457
     30  OE2       99.5830   11.1190   11.1160 O.co2 428  GLU428     -0.2457
     31  N         99.8390    9.8220   15.4270 N.3   463  ASP463     -0.1239
     32  CA       100.6660    8.7430   14.8630 C.3   463  ASP463      0.1674
     33  C        101.7940    8.2700   15.7890 C.2   463  ASP463      0.2266
     34  O        102.4760    7.3030   15.4610 O.2   463  ASP463     -0.2867
     35  CB       101.2200    9.0650   13.4490 C.3   463  ASP463      0.1410
     36  CG       102.3070   10.1820   13.4350 C.2   463  ASP463      0.3668
     37  OD1      102.4250   10.9490   14.4320 O.co2 463  ASP463     -0.2456
     38  OD2      103.0490   10.2960   12.4010 O.co2 463  ASP463     -0.2456
     39  N        102.2070    4.5280   16.5370 N.3   466  ARG466     -0.1231
     40  CA       102.6330    3.4840   15.5860 C.3   466  ARG466      0.1694
     41  C        104.1280    3.1240   15.7020 C.2   466  ARG466      0.2592
     42  O        104.5600    2.1180   15.1380 O.2   466  ARG466     -0.2718
     43  CB       102.2940    3.8380   14.1240 C.3   466  ARG466      0.0321
     44  CG       103.2800    4.7950   13.4410 C.3   466  ARG466      0.0489
     45  CD       102.9200    4.9730   11.9590 C.3   466  ARG466      0.2205
     46  NE       103.7560    5.9510   11.2650 N.pl3 466  ARG466     -0.0865
     47  CZ       104.9390    5.6560   10.7300 C.cat 466  ARG466      0.5346
     48  NH1      105.4430    4.4170   10.8230 N.pl3 466  ARG466      0.1354
     49  NH2      105.6250    6.5910   10.1000 N.pl3 466  ARG466      0.1354
     50  N        104.9060    3.9420   16.4010 N.am  467  PHE467     -0.1976
     51  CA       106.3470    3.7230   16.4840 C.3   467  PHE467      0.1639
     52  C        106.6640    2.8410   17.6670 C.2   467  PHE467      0.2290
     53  O        106.0760    3.0400   18.7320 O.2   467  PHE467     -0.2864
     54  CB       107.0850    5.0600   16.6080 C.3   467  PHE467      0.0560
     55  CG       106.8690    5.9510   15.4320 C.ar  467  PHE467     -0.0200
     56  CD1      107.5300    5.7060   14.2390 C.ar  467  PHE467     -0.0042
     57  CD2      105.9620    7.0070   15.4970 C.ar  467  PHE467     -0.0042
     58  CE1      107.3250    6.5310   13.1360 C.ar  467  PHE467     -0.0003
     59  CE2      105.7400    7.8340   14.3990 C.ar  467  PHE467     -0.0003
     60  CZ       106.4220    7.5980   13.2220 C.ar  467  PHE467     -0.0000
     61  N         97.2530    5.0670   11.9380 N.3   488  TYR488     -0.1241
     62  CA        98.0540    3.9420   11.3960 C.3   488  TYR488      0.1605
     63  C         98.6530    3.0140   12.4680 C.2   488  TYR488      0.2264
     64  O         99.7390    2.4580   12.2780 O.2   488  TYR488     -0.2867
     65  CB        99.1750    4.4690   10.4700 C.3   488  TYR488      0.0534
     66  CG        98.7200    5.6130    9.5570 C.ar  488  TYR488     -0.0201
     67  CD1       97.8370    5.3720    8.4980 C.ar  488  TYR488     -0.0009
     68  CD2       99.1610    6.9160    9.7520 C.ar  488  TYR488     -0.0009
     69  CE1       97.4140    6.3970    7.6780 C.ar  488  TYR488      0.0417
     70  CE2       98.7190    7.9540    8.9290 C.ar  488  TYR488      0.0417
     71  CZ        97.8550    7.6680    7.8990 C.ar  488  TYR488      0.1957
     72  OH        97.4150    8.6520    7.0550 O.3   488  TYR488     -0.2866
     73  N         93.0700    7.9860   11.5630 N.3   509  GLN509     -0.1245
     74  CA        93.5810    7.9860   10.1850 C.3   509  GLN509      0.1566
     75  C         94.0690    6.6090    9.8670 C.2   509  GLN509      0.2260
     76  O         94.9490    6.0920   10.5640 O.2   509  GLN509     -0.2867
     77  CB        94.7780    8.9220   10.0350 C.3   509  GLN509      0.0367
     78  CG        94.4020   10.1890    9.3570 C.3   509  GLN509      0.0905
     79  CD        95.5200   11.2040    9.2390 C.2   509  GLN509      0.2608
     80  OE1       95.4040   12.2800    9.7960 O.2   509  GLN509     -0.2717
     81  NE2       96.5660   10.8940    8.4770 N.am  509  GLN509     -0.0878
     82  N        105.1290    1.6740   -0.8580 N.3   529  HIS529     -0.1241
     83  CA       105.7860    2.9190   -1.2320 C.3   529  HIS529      0.1621
     84  C        106.5470    2.8130   -2.5530 C.2   529  HIS529      0.2264
     85  O        107.6630    3.3280   -2.6950 O.2   529  HIS529     -0.2867
     86  CB       106.7100    3.4020   -0.1130 C.3   529  HIS529      0.0745
     87  CG       106.6890    4.8910    0.0440 C.ar  529  HIS529      0.0817
     88  ND1      105.8150    5.5340    0.9030 N.ar  529  HIS529     -0.2268
     89  CD2      107.3940    5.8680   -0.5930 C.ar  529  HIS529      0.1154
     90  CE1      106.0000    6.8490    0.8020 C.ar  529  HIS529      0.1986
     91  NE2      106.9540    7.0700   -0.1060 N.ar  529  HIS529     -0.2212
     92  N        104.0210    3.4370    5.8320 N.3   549  TRP549     -0.1241
     93  CA       103.3350    3.3530    7.1280 C.3   549  TRP549      0.1605
     94  C        101.8680    2.9270    7.0170 C.2   549  TRP549      0.2264
     95  O        101.1580    2.8830    8.0160 O.2   549  TRP549     -0.2867
     96  CB       103.4040    4.7210    7.8280 C.3   549  TRP549      0.0550
     97  CG       102.8280    5.8470    6.9720 C.ar  549  TRP549      0.0003
     98  CD1      101.5130    6.2750    6.9230 C.ar  549  TRP549      0.0946
     99  CD2      103.5440    6.6640    6.0170 C.ar  549  TRP549      0.0152
    100  NE1      101.3800    7.3100    6.0270 N.ar  549  TRP549     -0.2442
    101  CE2      102.5910    7.5710    5.4480 C.ar  549  TRP549      0.0810
    102  CE3      104.8860    6.7260    5.5930 C.ar  549  TRP549      0.0012
    103  CZ2      102.9440    8.5150    4.4680 C.ar  549  TRP549      0.0191
    104  CZ3      105.2440    7.6790    4.6150 C.ar  549  TRP549      0.0001
    105  CH2      104.2740    8.5600    4.0730 C.ar  549  TRP549      0.0015
    106  N         92.0200    7.5040    5.2920 N.3   572  TRP572     -0.1241
    107  CA        92.7800    8.5130    4.5960 C.3   572  TRP572      0.1605
    108  C         92.8720    8.1030    3.1060 C.2   572  TRP572      0.2264
    109  O         93.6320    7.1720    2.8080 O.2   572  TRP572     -0.2867
    110  CB        94.1750    8.5540    5.2470 C.3   572  TRP572      0.0550
    111  CG        94.9040    9.7130    4.7990 C.ar  572  TRP572      0.0003
    112  CD1       95.8390    9.7600    3.7920 C.ar  572  TRP572      0.0946
    113  CD2       94.6980   11.0730    5.2350 C.ar  572  TRP572      0.0152
    114  NE1       96.2340   11.0560    3.5850 N.ar  572  TRP572     -0.2442
    115  CE2       95.5620   11.8900    4.4510 C.ar  572  TRP572      0.0810
    116  CE3       93.8630   11.6790    6.1920 C.ar  572  TRP572      0.0012
    117  CZ2       95.6320   13.2740    4.6100 C.ar  572  TRP572      0.0191
    118  CZ3       93.9310   13.0520    6.3510 C.ar  572  TRP572      0.0001
    119  CH2       94.8150   13.8380    5.5690 C.ar  572  TRP572      0.0015
    120  N         99.6680   16.9020   -1.7280 N.3   580  GLU580     -0.1245
    121  CA       100.3150   15.6380   -1.2570 C.3   580  GLU580      0.1567
    122  C        100.3240   14.4480   -2.2140 C.2   580  GLU580      0.2260
    123  O         99.6110   13.4650   -1.9940 O.2   580  GLU580     -0.2867
    124  CB        99.7650   15.1860    0.1090 C.3   580  GLU580      0.0388
    125  CG        99.7940   16.2600    1.1750 C.3   580  GLU580      0.1160
    126  CD        99.5040   15.7020    2.5580 C.2   580  GLU580      0.3649
    127  OE1       98.3910   15.1740    2.7710 O.co2 580  GLU580     -0.2457
    128  OE2      100.4010   15.8060    3.4370 O.co2 580  GLU580     -0.2457
    129  N        102.0860   11.8550   -2.5210 N.3   582  THR582     -0.1218
    130  CA       102.7430   10.6320   -2.0440 C.3   582  THR582      0.1862
    131  C        102.2860    9.4390   -2.8640 C.2   582  THR582      0.2287
    132  O        101.0810    9.2420   -3.0290 O.2   582  THR582     -0.2866
    133  CB       102.3520   10.4140   -0.5710 C.3   582  THR582      0.1770
    134  OG1      102.5370   11.6650    0.1090 O.3   582  THR582     -0.2211
    135  CG2      103.1900    9.2970    0.1030 C.3   582  THR582      0.0375
    136  N        105.9220   12.5760   -2.9970 N.3   585  HIS585     -0.1241
    137  CA       105.7700   13.7640   -2.1800 C.3   585  HIS585      0.1621
    138  C        107.0110   14.6560   -2.2270 C.2   585  HIS585      0.2264
    139  O        108.1110   14.2260   -1.9050 O.2   585  HIS585     -0.2867
    140  CB       105.5150   13.3170   -0.7470 C.3   585  HIS585      0.0745
    141  CG       105.2030   14.4330    0.1910 C.ar  585  HIS585      0.0817
    142  ND1      106.1810   15.2040    0.7720 N.ar  585  HIS585     -0.2268
    143  CD2      104.0240   14.8930    0.6670 C.ar  585  HIS585      0.1154
    144  CE1      105.6200   16.0970    1.5620 C.ar  585  HIS585      0.1986
    145  NE2      104.3120   15.9220    1.5230 N.ar  585  HIS585     -0.2212
    146  N         95.6040    9.0270   -2.4750 N.3   597  PHE597     -0.1241
    147  CA        94.9450    8.4150   -1.2930 C.3   597  PHE597      0.1605
    148  C         93.4460    8.1950   -1.3800 C.2   597  PHE597      0.2264
    149  O         92.8840    7.3980   -0.6170 O.2   597  PHE597     -0.2867
    150  CB        95.1430    9.3140   -0.0740 C.3   597  PHE597      0.0534
    151  CG        96.5950    9.6150    0.2570 C.ar  597  PHE597     -0.0203
    152  CD1       97.5040    8.5910    0.4680 C.ar  597  PHE597     -0.0042
    153  CD2       97.0200   10.9280    0.4090 C.ar  597  PHE597     -0.0042
    154  CE1       98.8310    8.8720    0.8180 C.ar  597  PHE597     -0.0003
    155  CE2       98.3340   11.2200    0.7720 C.ar  597  PHE597     -0.0003
    156  CZ        99.2400   10.1940    0.9730 C.ar  597  PHE597     -0.0000
@<TRIPOS>BOND
     1   132   131    2
     2   136   137    1
     3   131   130    1
     4    85    84    2
     5    84    83    1
     6   129   130    1
     7   146   147    1
     8   138   137    1
     9   138   139    2
    10   122   123    2
    11   122   121    1
    12   137   140    1
    13   130   133    1
    14   120   121    1
    15   148   147    1
    16   148   149    2
    17   147   150    1
    18   121   124    1
    19    83    82    1
    20    83    86    1
    21   140   141    1
    22    89    91   ar
    23    89    87   ar
    24   133   135    1
    25   133   134    1
    26    86    87    1
    27    91    90   ar
    28   150   151    1
    29    87    88   ar
    30   124   125    1
    31   141   143   ar
    32   141   142   ar
    33   151   153   ar
    34   151   152   ar
    35   153   155   ar
    36   152   154   ar
    37   143   145   ar
    38   142   144   ar
    39   155   156   ar
    40    90    88   ar
    41   154   156   ar
    42   125   126    1
    43   145   144   ar
    44     4     3    2
    45   126   127   ar
    46   126   128   ar
    47   109   108    2
    48     3     2    1
    49   108   107    1
    50   114   112   ar
    51   114   115   ar
    52   112   111   ar
    53     2     1    1
    54     2     5    1
    55   105   103   ar
    56   105   104   ar
    57   115   117   ar
    58   115   113   ar
    59   103   101   ar
    60   107   110    1
    61   107   106    1
    62   117   119   ar
    63   104   102   ar
    64   111   113   ar
    65   111   110    1
    66     5     6    1
    67   113   116   ar
    68   101    99   ar
    69   101   100   ar
    70   119   118   ar
    71   102    99   ar
    72    92    93    1
    73    99    97   ar
    74   100    98   ar
    75   116   118   ar
    76     6     7    1
    77    98    97   ar
    78    10     9    1
    79    97    96    1
    80    94    93    1
    81    94    95    2
    82    72    71    1
    83    93    96    1
    84     7     8    1
    85    69    71   ar
    86    69    67   ar
    87     9     8    2
    88     9    11    1
    89    71    70   ar
    90    12    13    1
    91    81    79   am
    92    21    19   ar
    93    21    20   ar
    94    67    66   ar
    95    19    17   ar
    96    70    68   ar
    97    79    78    1
    98    79    80    2
    99    78    77    1
   100    20    18   ar
   101    17    16    1
   102    17    18   ar
   103    66    68   ar
   104    66    65    1
   105    13    16    1
   106    13    14    1
   107    75    74    1
   108    75    76    2
   109    77    74    1
   110    14    15    2
   111    49    47    1
   112    74    73    1
   113    65    62    1
   114    29    28   ar
   115    47    48    1
   116    47    46    2
   117    30    28   ar
   118    46    45    1
   119    28    27    1
   120    62    61    1
   121    62    63    1
   122    45    44    1
   123    64    63    2
   124    38    36   ar
   125    27    26    1
   126    58    60   ar
   127    58    56   ar
   128    26    23    1
   129    60    59   ar
   130    36    35    1
   131    36    37   ar
   132    44    43    1
   133    35    32    1
   134    43    40    1
   135    56    55   ar
   136    25    24    2
   137    59    57   ar
   138    23    22    1
   139    23    24    1
   140    32    31    1
   141    32    33    1
   142    42    41    2
   143    55    57   ar
   144    55    54    1
   145    34    33    2
   146    40    41    1
   147    40    39    1
   148    41    50   am
   149    50    51    1
   150    51    54    1
   151    51    52    1
   152    52    53    2
