@<TRIPOS>MOLECULE
tmp/4cucA03.pdb
 134 129 0 0 0
SMALL
GASTEIGER

@<TRIPOS>ATOM
      1  N         98.9180   -7.2400   -9.5100 N.3   523  PRO523     -0.2102
      2  CA        97.8450   -7.5470   -8.5510 C.3   523  PRO523      0.1504
      3  C         98.2120   -8.6270   -7.5380 C.2   523  PRO523      0.2576
      4  O         97.5920   -8.7030   -6.4720 O.2   523  PRO523     -0.2718
      5  CB        96.7010   -8.0610   -9.4310 C.3   523  PRO523      0.0282
      6  CG        97.3080   -8.3430  -10.7730 C.3   523  PRO523      0.0208
      7  CD        98.4770   -7.4100  -10.9050 C.3   523  PRO523      0.0893
      8  N         99.2160   -9.4350   -7.8570 N.am  524  GLU524     -0.1966
      9  CA        99.5580  -10.5680   -7.0130 C.3   524  GLU524      0.1733
     10  C        100.4060  -10.1490   -5.7980 C.2   524  GLU524      0.2616
     11  O        100.5380  -10.9050   -4.8410 O.2   524  GLU524     -0.2715
     12  CB       100.2590  -11.6530   -7.8590 C.3   524  GLU524      0.0429
     13  CG       101.6970  -11.3230   -8.2910 C.3   524  GLU524      0.1163
     14  CD       101.8870  -10.4940   -9.5920 C.2   524  GLU524      0.3649
     15  OE1      100.9220   -9.9400  -10.2270 O.co2 524  GLU524     -0.2457
     16  OE2      103.0810  -10.3990   -9.9930 O.co2 524  GLU524     -0.2457
     17  N        100.9370   -8.9270   -5.8310 N.am  525  ARG525     -0.1963
     18  CA       101.8780   -8.4280   -4.8350 C.3   525  ARG525      0.1729
     19  C        101.3690   -7.1790   -4.1220 C.2   525  ARG525      0.2616
     20  O        100.7150   -6.3460   -4.7430 O.2   525  ARG525     -0.2715
     21  CB       103.1990   -8.0840   -5.5170 C.3   525  ARG525      0.0348
     22  CG       104.2890   -9.1160   -5.2760 C.3   525  ARG525      0.0492
     23  CD       105.1860   -9.2830   -6.4890 C.3   525  ARG525      0.2205
     24  NE       105.7480   -8.0110   -6.9470 N.pl3 525  ARG525     -0.0865
     25  CZ       106.1110   -7.7600   -8.2040 C.cat 525  ARG525      0.5346
     26  NH1      105.9600   -8.6910   -9.1450 N.pl3 525  ARG525      0.1354
     27  NH2      106.6170   -6.5700   -8.5200 N.pl3 525  ARG525      0.1354
     28  N        101.6780   -7.0510   -2.8340 N.am  526  GLU526     -0.1977
     29  CA       101.4250   -5.8140   -2.1090 C.3   526  GLU526      0.1602
     30  C        102.6510   -4.9470   -2.3000 C.2   526  GLU526      0.2287
     31  O        103.7650   -5.3900   -2.0470 O.2   526  GLU526     -0.2864
     32  CB       101.1620   -6.0570   -0.6090 C.3   526  GLU526      0.0415
     33  CG       100.9030   -4.7700    0.2010 C.3   526  GLU526      0.1163
     34  CD       100.5960   -5.0060    1.6930 C.2   526  GLU526      0.3649
     35  OE1      100.4230   -6.1780    2.0990 O.co2 526  GLU526     -0.2457
     36  OE2      100.5250   -4.0220    2.4780 O.co2 526  GLU526     -0.2457
     37  N         93.9330   -1.9450   -8.3140 N.3   542  TYR542     -0.1227
     38  CA        93.6610   -3.1810   -7.5690 C.3   542  TYR542      0.1736
     39  C         93.6800   -2.9500   -6.0540 C.2   542  TYR542      0.2596
     40  O         93.2300   -3.8010   -5.2710 O.2   542  TYR542     -0.2718
     41  CB        94.6750   -4.2700   -7.8990 C.3   542  TYR542      0.0548
     42  CG        94.3690   -5.0920   -9.1420 C.ar  542  TYR542     -0.0200
     43  CD1       93.3500   -6.0210   -9.1480 C.ar  542  TYR542     -0.0009
     44  CD2       95.1420   -4.9540  -10.2960 C.ar  542  TYR542     -0.0009
     45  CE1       93.0930   -6.7900  -10.2750 C.ar  542  TYR542      0.0417
     46  CE2       94.8850   -5.7080  -11.4440 C.ar  542  TYR542      0.0417
     47  CZ        93.8610   -6.6240  -11.4190 C.ar  542  TYR542      0.1957
     48  OH        93.6070   -7.4000  -12.5240 O.3   542  TYR542     -0.2866
     49  N         94.2200   -1.8120   -5.6390 N.am  543  GLY543     -0.1942
     50  CA        94.2440   -1.4520   -4.2300 C.3   543  GLY543      0.2014
     51  C         95.4220   -2.0870   -3.5050 C.2   543  GLY543      0.2638
     52  O         95.4110   -2.1800   -2.2750 O.2   543  GLY543     -0.2714
     53  N         96.4340   -2.5300   -4.2610 N.am  544  ASN544     -0.1972
     54  CA        97.5700   -3.2290   -3.6780 C.3   544  ASN544      0.1688
     55  C         98.8140   -2.3320   -3.4250 C.2   544  ASN544      0.2292
     56  O         99.8080   -2.8480   -2.9410 O.2   544  ASN544     -0.2864
     57  CB        97.9250   -4.4600   -4.5370 C.3   544  ASN544      0.1181
     58  CG        98.2110   -4.0880   -6.0050 C.2   544  ASN544      0.2629
     59  OD1       97.4780   -3.2990   -6.6280 O.2   544  ASN544     -0.2716
     60  ND2       99.2760   -4.6590   -6.5620 N.am  544  ASN544     -0.0877
     61  N         96.5660   -1.7860    3.1820 N.3   552  THR552     -0.1218
     62  CA        95.5550   -1.8390    2.1630 C.3   552  THR552      0.1862
     63  C         94.2030   -1.6130    2.8110 C.2   552  THR552      0.2287
     64  O         94.0690   -1.7350    4.0310 O.2   552  THR552     -0.2866
     65  CB        95.5460   -3.2300    1.4940 C.3   552  THR552      0.1770
     66  OG1       95.3290   -4.2330    2.4960 O.3   552  THR552     -0.2211
     67  CG2       96.8880   -3.4970    0.7630 C.3   552  THR552      0.0375
     68  N         91.7800   -3.6170    2.7260 N.3   554  THR554     -0.1218
     69  CA        91.4250   -4.9160    3.3180 C.3   554  THR554      0.1862
     70  C         92.0710   -5.1110    4.6800 C.2   554  THR554      0.2287
     71  O         91.3860   -5.5010    5.6110 O.2   554  THR554     -0.2866
     72  CB        91.8190   -6.1060    2.3950 C.3   554  THR554      0.1770
     73  OG1       91.0050   -6.0620    1.2240 O.3   554  THR554     -0.2211
     74  CG2       91.5920   -7.4660    3.0780 C.3   554  THR554      0.0375
     75  N         84.7160   -2.0150   -3.0320 N.3   612  LEU612     -0.1245
     76  CA        85.1510   -2.8440   -1.9000 C.3   612  LEU612      0.1561
     77  C         84.4430   -2.4010   -0.6060 C.2   612  LEU612      0.2260
     78  O         83.7600   -3.1990    0.0550 O.2   612  LEU612     -0.2867
     79  CB        86.6900   -2.8280   -1.7410 C.3   612  LEU612      0.0270
     80  CG        87.3480   -3.5950   -0.5720 C.3   612  LEU612      0.0019
     81  CD1       86.8230   -5.0270   -0.4810 C.3   612  LEU612      0.0001
     82  CD2       88.8600   -3.6750   -0.6910 C.3   612  LEU612      0.0001
     83  N         88.3020   -9.7560  -10.5820 N.3   653  ARG653     -0.1245
     84  CA        87.8430   -9.7940   -9.2080 C.3   653  ARG653      0.1563
     85  C         86.4720   -9.1540   -9.1220 C.2   653  ARG653      0.2260
     86  O         86.1810   -8.1830   -9.8530 O.2   653  ARG653     -0.2867
     87  CB        88.8350   -9.0640   -8.2890 C.3   653  ARG653      0.0307
     88  CG        90.1480   -9.7980   -8.1120 C.3   653  ARG653      0.0489
     89  CD        91.1690   -9.0330   -7.2940 C.3   653  ARG653      0.2205
     90  NE        92.4490   -9.7430   -7.3040 N.pl3 653  ARG653     -0.0865
     91  CZ        93.5630   -9.2970   -6.7390 C.cat 653  ARG653      0.5346
     92  NH1       93.5720   -8.1130   -6.1270 N.pl3 653  ARG653      0.1354
     93  NH2       94.6710  -10.0370   -6.7770 N.pl3 653  ARG653      0.1354
     94  N         83.6940   -7.5760   -6.2120 N.3   655  TYR655     -0.1241
     95  CA        83.2520   -7.1650   -4.8980 C.3   655  TYR655      0.1605
     96  C         81.7380   -7.2600   -4.9090 C.2   655  TYR655      0.2264
     97  O         81.0930   -6.8360   -5.8630 O.2   655  TYR655     -0.2867
     98  CB        83.6470   -5.7090   -4.6110 C.3   655  TYR655      0.0534
     99  CG        85.1390   -5.4560   -4.6670 C.ar  655  TYR655     -0.0201
    100  CD1       86.0290   -6.2710   -3.9790 C.ar  655  TYR655     -0.0009
    101  CD2       85.6570   -4.3720   -5.3860 C.ar  655  TYR655     -0.0009
    102  CE1       87.4120   -6.0570   -4.0370 C.ar  655  TYR655      0.0417
    103  CE2       87.0310   -4.1320   -5.4400 C.ar  655  TYR655      0.0417
    104  CZ        87.9000   -4.9860   -4.7790 C.ar  655  TYR655      0.1957
    105  OH        89.2530   -4.7550   -4.8280 O.3   655  TYR655     -0.2866
    106  N         92.4370  -12.7370    3.8620 N.3   693  ASN693     -0.1225
    107  CA        92.9770  -11.5310    3.2740 C.3   693  ASN693      0.1785
    108  C         92.3270  -11.1630    1.9600 C.2   693  ASN693      0.2597
    109  O         92.8230  -10.2870    1.2790 O.2   693  ASN693     -0.2718
    110  CB        94.4770  -11.6740    3.0530 C.3   693  ASN693      0.1169
    111  CG        95.2180  -11.9900    4.3390 C.2   693  ASN693      0.2627
    112  OD1       94.8670  -11.4880    5.4100 O.2   693  ASN693     -0.2716
    113  ND2       96.2320  -12.8390    4.2460 N.am  693  ASN693     -0.0877
    114  N         91.2400  -11.8360    1.5970 N.am  694  GLU694     -0.1979
    115  CA        90.5660  -11.5680    0.3410 C.3   694  GLU694      0.1602
    116  C         89.0870  -11.3810    0.5800 C.2   694  GLU694      0.2287
    117  O         88.3860  -12.3030    1.0140 O.2   694  GLU694     -0.2864
    118  CB        90.7920  -12.6920   -0.6930 C.3   694  GLU694      0.0415
    119  CG        92.2660  -12.9890   -1.0060 C.3   694  GLU694      0.1163
    120  CD        92.4790  -14.0850   -2.0630 C.2   694  GLU694      0.3649
    121  OE1       91.5120  -14.5520   -2.7160 O.co2 694  GLU694     -0.2457
    122  OE2       93.6440  -14.4780   -2.2600 O.co2 694  GLU694     -0.2457
    123  N         87.1910  -10.1720   -1.9190 N.3   696  TYR696     -0.1241
    124  CA        86.5970  -10.3350   -3.2370 C.3   696  TYR696      0.1605
    125  C         86.4930  -11.8290   -3.6070 C.2   696  TYR696      0.2264
    126  O         87.0890  -12.6710   -2.9440 O.2   696  TYR696     -0.2867
    127  CB        87.4830   -9.6320   -4.2640 C.3   696  TYR696      0.0534
    128  CG        88.9640   -9.9920   -4.1330 C.ar  696  TYR696     -0.0201
    129  CD1       89.4560  -11.1850   -4.6650 C.ar  696  TYR696     -0.0009
    130  CD2       89.8640   -9.1370   -3.4880 C.ar  696  TYR696     -0.0009
    131  CE1       90.7920  -11.5280   -4.5650 C.ar  696  TYR696      0.0417
    132  CE2       91.2120   -9.4680   -3.3780 C.ar  696  TYR696      0.0417
    133  CZ        91.6660  -10.6610   -3.9360 C.ar  696  TYR696      0.1957
    134  OH        92.9870  -11.0310   -3.8540 O.3   696  TYR696     -0.2866
@<TRIPOS>BOND
     1    48    47    1
     2    46    47   ar
     3    46    44   ar
     4    47    45   ar
     5     7     6    1
     6     7     1    1
     7     6     5    1
     8    83    84    1
     9    44    42   ar
    10    45    43   ar
    11    15    14   ar
    12    16    14   ar
    13    86    85    2
    14    14    13    1
    15     1     2    1
    16     5     2    1
    17    84    85    1
    18    84    87    1
    19    43    42   ar
    20    26    25    1
    21    42    41    1
    22     2     3    1
    23    27    25    1
    24    37    38    1
    25    13    12    1
    26    87    88    1
    27    25    24    2
    28    88    89    1
    29    41    38    1
    30    12     9    1
    31     8     3   am
    32     8     9    1
    33    38    39    1
    34     3     4    2
    35    90    89    1
    36    90    91    2
    37     9    10    1
    38    24    23    1
    39    93    91    1
    40    91    92    1
    41    59    58    2
    42    60    58   am
    43    23    22    1
    44    94    95    1
    45    39    49   am
    46    39    40    2
    47    58    57    1
    48    97    96    2
    49    17    10   am
    50    17    18    1
    51    10    11    2
    52    49    50    1
    53    21    22    1
    54    21    18    1
    55   103   101   ar
    56   103   104   ar
    57   101    99   ar
    58    96    95    1
    59    95    98    1
    60    18    19    1
    61   105   104    1
    62   104   102   ar
    63    20    19    2
    64    99    98    1
    65    99   100   ar
    66   129   131   ar
    67   129   128   ar
    68   131   133   ar
    69    57    54    1
    70   127   128    1
    71   127   124    1
    72    53    54    1
    73    53    51   am
    74    50    51    1
    75   128   130   ar
    76    19    28   am
    77   102   100   ar
    78   133   134    1
    79   133   132   ar
    80    54    55    1
    81   125   124    1
    82   125   126    2
    83    51    52    2
    84   130   132   ar
    85    55    56    2
    86   124   123    1
    87    75    76    1
    88    28    29    1
    89   121   120   ar
    90    30    29    1
    91    30    31    2
    92   122   120   ar
    93    29    32    1
    94   120   119    1
    95    76    79    1
    96    76    77    1
    97    79    80    1
    98   119   118    1
    99   118   115    1
   100    82    80    1
   101    32    33    1
   102    77    78    2
   103    80    81    1
   104    33    34    1
   105   115   116    1
   106   115   114    1
   107   116   117    2
   108    67    65    1
   109    73    72    1
   110   109   108    2
   111    65    62    1
   112    65    66    1
   113   114   108   am
   114    34    35   ar
   115    34    36   ar
   116   108   107    1
   117    62    63    1
   118    62    61    1
   119    72    74    1
   120    72    69    1
   121    68    69    1
   122    63    64    2
   123   110   107    1
   124   110   111    1
   125   107   106    1
   126    69    70    1
   127   113   111   am
   128   111   112    2
   129    70    71    2
