@<TRIPOS>MOLECULE
tmp/4cugB02.pdb
 81 77 0 0 0
SMALL
GASTEIGER

@<TRIPOS>ATOM
      1  N         31.1450  150.7400   92.0310 N.3   211  ARG211     -0.1231
      2  CA        32.0520  149.7240   92.5560 C.3   211  ARG211      0.1694
      3  C         31.5740  148.3240   92.2050 C.2   211  ARG211      0.2592
      4  O         30.3780  148.0800   92.0530 O.2   211  ARG211     -0.2718
      5  CB        32.1970  149.8650   94.0730 C.3   211  ARG211      0.0321
      6  CG        33.6110  150.1900   94.5380 C.3   211  ARG211      0.0489
      7  CD        34.2820  148.9970   95.1930 C.3   211  ARG211      0.2205
      8  NE        35.6130  149.3320   95.6910 N.pl3 211  ARG211     -0.0865
      9  CZ        36.2860  148.6100   96.5830 C.cat 211  ARG211      0.5346
     10  NH1       35.7550  147.5070   97.0930 N.pl3 211  ARG211      0.1354
     11  NH2       37.4930  148.9970   96.9720 N.pl3 211  ARG211      0.1354
     12  N         32.5310  147.4140   92.0680 N.am  212  ALA212     -0.1966
     13  CA        32.2470  146.0180   91.7790 C.3   212  ALA212      0.1713
     14  C         33.0370  145.1480   92.7510 C.2   212  ALA212      0.2458
     15  O         34.1770  145.4710   93.0850 O.2   212  ALA212     -0.2730
     16  CB        32.6030  145.6870   90.3410 C.3   212  ALA212      0.0333
     17  N         32.4360  144.0420   93.2140 N.am  213  PRO213     -0.2727
     18  CA        33.0780  143.2460   94.2620 C.3   213  PRO213      0.1402
     19  C         34.2340  142.3960   93.7510 C.2   213  PRO213      0.2269
     20  O         34.1890  141.9240   92.6150 O.2   213  PRO213     -0.2865
     21  CB        31.9370  142.3590   94.7580 C.3   213  PRO213      0.0296
     22  CG        31.0890  142.1590   93.5560 C.3   213  PRO213      0.0237
     23  CD        31.1720  143.4350   92.7620 C.3   213  PRO213      0.0939
     24  N         36.0440  140.5070   99.0920 N.3   217  GLU217     -0.1231
     25  CA        34.8430  141.1490   99.5980 C.3   217  GLU217      0.1699
     26  C         33.6180  140.2390   99.4800 C.2   217  GLU217      0.2592
     27  O         32.7060  140.3030  100.3060 O.2   217  GLU217     -0.2718
     28  CB        34.6060  142.4580   98.8550 C.3   217  GLU217      0.0402
     29  CG        35.7370  143.4730   98.9930 C.3   217  GLU217      0.1161
     30  CD        35.7400  144.5210   97.8900 C.2   217  GLU217      0.3649
     31  OE1       34.8000  144.5380   97.0670 O.co2 217  GLU217     -0.2457
     32  OE2       36.6900  145.3330   97.8480 O.co2 217  GLU217     -0.2457
     33  N         33.5970  139.3930   98.4550 N.am  218  LEU218     -0.1980
     34  CA        32.5560  138.3770   98.3330 C.3   218  LEU218      0.1596
     35  C         32.7080  137.3330   99.4290 C.2   218  LEU218      0.2287
     36  O         31.7280  136.9280  100.0530 O.2   218  LEU218     -0.2864
     37  CB        32.6080  137.7030   96.9610 C.3   218  LEU218      0.0297
     38  CG        32.1440  138.5560   95.7810 C.3   218  LEU218      0.0022
     39  CD1       32.5470  137.9140   94.4680 C.3   218  LEU218      0.0001
     40  CD2       30.6340  138.7600   95.8400 C.3   218  LEU218      0.0001
     41  N         33.9380  137.7370  102.2540 N.3   220  GLU220     -0.1231
     42  CA        33.5770  138.3650  103.5170 C.3   220  GLU220      0.1699
     43  C         32.0630  138.5190  103.6670 C.2   220  GLU220      0.2592
     44  O         31.5610  138.6970  104.7780 O.2   220  GLU220     -0.2718
     45  CB        34.2630  139.7260  103.6320 C.3   220  GLU220      0.0402
     46  CG        35.7650  139.6330  103.8800 C.3   220  GLU220      0.1161
     47  CD        36.4790  140.9700  103.7450 C.2   220  GLU220      0.3649
     48  OE1       36.0050  141.8370  102.9750 O.co2 220  GLU220     -0.2457
     49  OE2       37.5190  141.1520  104.4130 O.co2 220  GLU220     -0.2457
     50  N         31.3450  138.4380  102.5490 N.am  221  ALA221     -0.1980
     51  CA        29.8900  138.5640  102.5480 C.3   221  ALA221      0.1597
     52  C         29.1970  137.2040  102.5520 C.2   221  ALA221      0.2287
     53  O         27.9700  137.1380  102.5440 O.2   221  ALA221     -0.2864
     54  CB        29.4370  139.3750  101.3460 C.3   221  ALA221      0.0319
     55  N         23.2410  141.1470   99.7020 N.3   278  ILE278     -0.1231
     56  CA        24.4850  141.7110  100.2180 C.3   278  ILE278      0.1692
     57  C         24.9550  142.9200   99.4070 C.2   278  ILE278      0.2591
     58  O         25.6820  143.7750   99.9190 O.2   278  ILE278     -0.2718
     59  CB        25.6110  140.6530  100.2480 C.3   278  ILE278      0.0266
     60  CG1       25.9240  140.1350   98.8420 C.3   278  ILE278      0.0019
     61  CG2       25.2180  139.4860  101.1470 C.3   278  ILE278      0.0020
     62  CD1       27.3950  139.9370   98.5850 C.3   278  ILE278      0.0001
     63  N         24.5290  142.9940   98.1500 N.am  279  ILE279     -0.1980
     64  CA        24.9820  144.0500   97.2530 C.3   279  ILE279      0.1595
     65  C         24.0950  145.2920   97.3580 C.2   279  ILE279      0.2287
     66  O         24.5250  146.3940   97.0140 O.2   279  ILE279     -0.2864
     67  CB        25.0160  143.5590   95.7870 C.3   279  ILE279      0.0276
     68  CG1       25.9900  144.4000   94.9590 C.3   279  ILE279      0.0022
     69  CG2       23.6180  143.5660   95.1710 C.3   279  ILE279      0.0022
     70  CD1       27.4490  144.1370   95.2690 C.3   279  ILE279      0.0001
     71  N         26.1160  149.9290  102.8940 N.3   283  ARG283     -0.1245
     72  CA        27.5330  149.6390  103.1100 C.3   283  ARG283      0.1563
     73  C         28.0400  150.2640  104.4050 C.2   283  ARG283      0.2260
     74  O         28.7460  149.6210  105.1810 O.2   283  ARG283     -0.2867
     75  CB        28.3760  150.1510  101.9370 C.3   283  ARG283      0.0307
     76  CG        27.8430  149.8030  100.5520 C.3   283  ARG283      0.0489
     77  CD        28.6550  148.7140   99.8850 C.3   283  ARG283      0.2205
     78  NE        28.6290  148.8370   98.4280 N.pl3 283  ARG283     -0.0865
     79  CZ        27.7780  148.2060   97.6220 C.cat 283  ARG283      0.5346
     80  NH1       26.8630  147.3780   98.1140 N.pl3 283  ARG283      0.1354
     81  NH2       27.8540  148.3930   96.3110 N.pl3 283  ARG283      0.1354
@<TRIPOS>BOND
     1    16    13    1
     2    13    12    1
     3    13    14    1
     4     1     2    1
     5     4     3    2
     6    12     3   am
     7     3     2    1
     8     2     5    1
     9    20    19    2
    10    14    15    2
    11    14    17   am
    12    23    17    1
    13    23    22    1
    14    17    18    1
    15    22    21    1
    16    19    18    1
    17     5     6    1
    18    18    21    1
    19    39    38    1
    20     6     7    1
    21    68    70    1
    22    68    67    1
    23    69    67    1
    24     7     8    1
    25     8     9    2
    26    38    40    1
    27    38    37    1
    28    67    64    1
    29    81    79    1
    30     9    11    1
    31     9    10    1
    32    37    34    1
    33    66    65    2
    34    31    30   ar
    35    64    65    1
    36    64    63    1
    37    79    80    1
    38    79    78    2
    39    32    30   ar
    40    30    29    1
    41    63    57   am
    42    34    33    1
    43    34    35    1
    44    78    77    1
    45    33    26   am
    46    62    60    1
    47    60    59    1
    48    28    29    1
    49    28    25    1
    50    24    25    1
    51    57    58    2
    52    57    56    1
    53    35    36    2
    54    26    25    1
    55    26    27    2
    56    55    56    1
    57    77    76    1
    58    56    59    1
    59    59    61    1
    60    76    75    1
    61    54    51    1
    62    75    72    1
    63    41    42    1
    64    53    52    2
    65    51    50    1
    66    51    52    1
    67    50    43   am
    68    71    72    1
    69    48    47   ar
    70    72    73    1
    71    42    45    1
    72    42    43    1
    73    45    46    1
    74    43    44    2
    75    47    46    1
    76    47    49   ar
    77    73    74    2
