@<TRIPOS>MOLECULE
tmp/4cugB01.pdb
 126 116 0 0 0
SMALL
GASTEIGER

@<TRIPOS>ATOM
      1  N         35.2830  165.7650  102.9780 N.3    89  LEU89      -0.1245
      2  CA        34.6650  164.7250  102.1600 C.3    89  LEU89       0.1561
      3  C         33.4470  164.1510  102.8730 C.2    89  LEU89       0.2260
      4  O         33.5280  163.7980  104.0480 O.2    89  LEU89      -0.2867
      5  CB        35.6700  163.6110  101.8610 C.3    89  LEU89       0.0270
      6  CG        36.9790  164.0330  101.1910 C.3    89  LEU89       0.0019
      7  CD1       38.1200  163.1380  101.6420 C.3    89  LEU89       0.0001
      8  CD2       36.8400  163.9960   99.6810 C.3    89  LEU89       0.0001
      9  N         29.5700  160.8700   96.6410 N.3   119  MET119     -0.1245
     10  CA        30.1980  161.6140   97.7260 C.3   119  MET119      0.1570
     11  C         30.5510  163.0080   97.2180 C.2   119  MET119      0.2261
     12  O         31.0360  163.1680   96.0970 O.2   119  MET119     -0.2867
     13  CB        31.4370  160.8850   98.2710 C.3   119  MET119      0.0387
     14  CG        32.6840  160.9150   97.3980 C.3   119  MET119      0.0595
     15  SD        34.1910  160.8380   98.3860 S.3   119  MET119     -0.1393
     16  CE        35.3270  161.7080   97.3040 C.3   119  MET119      0.0692
     17  N         32.6610  166.5990   97.9130 N.3   121  SER121     -0.1217
     18  CA        33.8220  167.1470   98.6010 C.3   121  SER121      0.1889
     19  C         33.7980  168.6650   98.5480 C.2   121  SER121      0.2288
     20  O         33.1220  169.2500   97.7050 O.2   121  SER121     -0.2866
     21  CB        35.1170  166.6260   97.9780 C.3   121  SER121      0.2089
     22  OG        35.3670  167.2520   96.7320 O.3   121  SER121     -0.2183
     23  N         43.2230  166.1150   98.0980 N.3   129  VAL129     -0.1245
     24  CA        43.2510  164.8040   98.7410 C.3   129  VAL129      0.1561
     25  C         44.5590  164.0820   98.4200 C.2   129  VAL129      0.2260
     26  O         44.9300  163.1250   99.0980 O.2   129  VAL129     -0.2867
     27  CB        42.0620  163.9310   98.2970 C.3   129  VAL129      0.0252
     28  CG1       42.0030  162.6550   99.1170 C.3   129  VAL129      0.0019
     29  CG2       40.7630  164.7100   98.4270 C.3   129  VAL129      0.0019
     30  N         46.3960  159.6500   93.9990 N.3   132  HIS132     -0.1241
     31  CA        45.9880  158.3130   94.4210 C.3   132  HIS132      0.1621
     32  C         45.2200  157.5630   93.3380 C.2   132  HIS132      0.2264
     33  O         44.9600  158.0990   92.2590 O.2   132  HIS132     -0.2867
     34  CB        45.1240  158.4050   95.6760 C.3   132  HIS132      0.0745
     35  CG        43.8070  159.0730   95.4480 C.ar  132  HIS132      0.0817
     36  ND1       43.6830  160.4390   95.2890 N.ar  132  HIS132     -0.2268
     37  CD2       42.5560  158.5720   95.3430 C.ar  132  HIS132      0.1154
     38  CE1       42.4150  160.7450   95.1020 C.ar  132  HIS132      0.1986
     39  NE2       41.7050  159.6270   95.1310 N.ar  132  HIS132     -0.2212
     40  N         41.8110  154.5830   92.6960 N.3   134  ASP134     -0.1239
     41  CA        40.5980  153.9720   93.2250 C.3   134  ASP134      0.1674
     42  C         40.2020  152.7790   92.3670 C.2   134  ASP134      0.2266
     43  O         40.4510  152.7640   91.1610 O.2   134  ASP134     -0.2867
     44  CB        39.4560  154.9870   93.2710 C.3   134  ASP134      0.1410
     45  CG        39.7470  156.1430   94.1960 C.2   134  ASP134      0.3668
     46  OD1       40.1610  155.8940   95.3480 O.co2 134  ASP134     -0.2456
     47  OD2       39.5690  157.3020   93.7700 O.co2 134  ASP134     -0.2456
     48  N         37.2090  152.1690   91.9330 N.3   136  TYR136     -0.1241
     49  CA        35.9250  152.6330   91.4190 C.3   136  TYR136      0.1605
     50  C         36.0030  153.0330   89.9480 C.2   136  TYR136      0.2264
     51  O         37.0520  153.4690   89.4710 O.2   136  TYR136     -0.2867
     52  CB        35.4260  153.8560   92.2050 C.3   136  TYR136      0.0534
     53  CG        35.0020  153.6210   93.6400 C.ar  136  TYR136     -0.0201
     54  CD1       35.9260  153.2680   94.6160 C.ar  136  TYR136     -0.0009
     55  CD2       33.6780  153.8010   94.0260 C.ar  136  TYR136     -0.0009
     56  CE1       35.5370  153.0720   95.9300 C.ar  136  TYR136      0.0417
     57  CE2       33.2810  153.6090   95.3350 C.ar  136  TYR136      0.0417
     58  CZ        34.2140  153.2480   96.2840 C.ar  136  TYR136      0.1957
     59  OH        33.8180  153.0560   97.5890 O.3   136  TYR136     -0.2866
     60  N         34.5460  156.1470   88.2790 N.3   138  VAL138     -0.1245
     61  CA        34.1200  157.4070   88.8870 C.3   138  VAL138      0.1561
     62  C         33.8810  158.5150   87.8670 C.2   138  VAL138      0.2260
     63  O         34.6740  158.7090   86.9490 O.2   138  VAL138     -0.2867
     64  CB        35.1610  157.9040   89.9210 C.3   138  VAL138      0.0252
     65  CG1       36.5100  158.1540   89.2600 C.3   138  VAL138      0.0019
     66  CG2       34.6630  159.1580   90.6200 C.3   138  VAL138      0.0019
     67  N         33.8240  162.3780   87.9580 N.3   140  LEU140     -0.1245
     68  CA        34.1820  163.5310   88.7780 C.3   140  LEU140      0.1561
     69  C         33.5060  164.7950   88.2580 C.2   140  LEU140      0.2260
     70  O         33.9750  165.4090   87.3010 O.2   140  LEU140     -0.2867
     71  CB        35.7000  163.7190   88.8000 C.3   140  LEU140      0.0270
     72  CG        36.5200  162.5300   89.3060 C.3   140  LEU140      0.0019
     73  CD1       37.9970  162.7390   89.0040 C.3   140  LEU140      0.0001
     74  CD2       36.3030  162.3230   90.7920 C.3   140  LEU140      0.0001
     75  N         38.9870  173.1840   89.7280 N.3   147  ARG147     -0.1245
     76  CA        39.9420  172.2020   90.2300 C.3   147  ARG147      0.1563
     77  C         40.9080  171.7580   89.1400 C.2   147  ARG147      0.2260
     78  O         40.5000  171.4790   88.0130 O.2   147  ARG147     -0.2867
     79  CB        39.2080  170.9850   90.7880 C.3   147  ARG147      0.0307
     80  CG        39.5830  170.6350   92.2160 C.3   147  ARG147      0.0489
     81  CD        38.9760  169.3110   92.6380 C.3   147  ARG147      0.2205
     82  NE        38.7120  169.2650   94.0730 N.pl3 147  ARG147     -0.0865
     83  CZ        39.6540  169.1890   95.0090 C.cat 147  ARG147      0.5346
     84  NH1       40.9360  169.1600   94.6690 N.pl3 147  ARG147      0.1354
     85  NH2       39.3110  169.1490   96.2900 N.pl3 147  ARG147      0.1354
     86  N         43.0390  168.9720   87.6590 N.3   149  TRP149     -0.1241
     87  CA        43.1530  167.5160   87.6570 C.3   149  TRP149      0.1605
     88  C         44.3160  167.0420   86.8010 C.2   149  TRP149      0.2264
     89  O         44.3350  167.2630   85.5900 O.2   149  TRP149     -0.2867
     90  CB        41.8590  166.8730   87.1530 C.3   149  TRP149      0.0550
     91  CG        40.7720  166.8150   88.1780 C.ar  149  TRP149      0.0003
     92  CD1       39.6410  167.5780   88.2180 C.ar  149  TRP149      0.0946
     93  CD2       40.7100  165.9470   89.3150 C.ar  149  TRP149      0.0152
     94  NE1       38.8780  167.2370   89.3090 N.ar  149  TRP149     -0.2442
     95  CE2       39.5140  166.2380   89.9990 C.ar  149  TRP149      0.0810
     96  CE3       41.5530  164.9530   89.8220 C.ar  149  TRP149      0.0012
     97  CZ2       39.1390  165.5720   91.1630 C.ar  149  TRP149      0.0191
     98  CZ3       41.1780  164.2920   90.9770 C.ar  149  TRP149      0.0001
     99  CH2       39.9820  164.6040   91.6350 C.ar  149  TRP149      0.0015
    100  N         45.1350  159.8720   89.7410 N.3   195  HIS195     -0.1241
    101  CA        44.6530  161.2340   89.5520 C.3   195  HIS195      0.1621
    102  C         45.0180  162.1080   90.7490 C.2   195  HIS195      0.2264
    103  O         45.0610  161.6320   91.8830 O.2   195  HIS195     -0.2867
    104  CB        43.1380  161.2350   89.3310 C.3   195  HIS195      0.0745
    105  CG        42.3900  160.3410   90.2700 C.ar  195  HIS195      0.0817
    106  ND1       42.4880  158.9660   90.2250 N.ar  195  HIS195     -0.2268
    107  CD2       41.5270  160.6220   91.2750 C.ar  195  HIS195      0.1154
    108  CE1       41.7240  158.4410   91.1630 C.ar  195  HIS195      0.1986
    109  NE2       41.1280  159.4240   91.8140 N.ar  195  HIS195     -0.2212
    110  N         43.8330  165.7540   92.1680 N.3   197  GLY197     -0.1225
    111  CA        42.9940  166.9420   92.1530 C.3   197  GLY197      0.1811
    112  C         43.4450  168.0060   93.1370 C.2   197  GLY197      0.2280
    113  O         43.6820  167.7180   94.3100 O.2   197  GLY197     -0.2866
    114  N         33.2390  169.0650   94.5680 N.3   205  THR205     -0.1218
    115  CA        33.2880  168.0250   93.5470 C.3   205  THR205      0.1862
    116  C         32.2690  166.9270   93.8350 C.2   205  THR205      0.2287
    117  O         32.3140  166.2900   94.8860 O.2   205  THR205     -0.2866
    118  CB        34.6870  167.3930   93.4590 C.3   205  THR205      0.1770
    119  OG1       35.6720  168.4220   93.3020 O.3   205  THR205     -0.2211
    120  CG2       34.7660  166.4280   92.2840 C.3   205  THR205      0.0375
    121  N         31.3040  163.4280   93.1710 N.3   207  SER207     -0.1217
    122  CA        31.9160  162.1960   92.6880 C.3   207  SER207      0.1889
    123  C         30.9130  161.0470   92.6680 C.2   207  SER207      0.2288
    124  O         30.5530  160.5130   93.7150 O.2   207  SER207     -0.2866
    125  CB        33.1180  161.8270   93.5610 C.3   207  SER207      0.2089
    126  OG        33.7820  160.6860   93.0550 O.3   207  SER207     -0.2183
@<TRIPOS>BOND
     1    89    88    2
     2    88    87    1
     3    63    62    2
     4    90    87    1
     5    90    91    1
     6    70    69    2
     7    87    86    1
     8    62    61    1
     9    67    68    1
    10    78    77    2
    11    91    92   ar
    12    91    93   ar
    13    92    94   ar
    14    69    68    1
    15    60    61    1
    16    68    71    1
    17    71    72    1
    18    61    64    1
    19    73    72    1
    20    77    76    1
    21    65    64    1
    22    72    74    1
    23    94    95   ar
    24    93    96   ar
    25    93    95   ar
    26   104   101    1
    27   104   105    1
    28    51    50    2
    29   101   100    1
    30   101   102    1
    31    75    76    1
    32    96    98   ar
    33    64    66    1
    34    50    49    1
    35    95    97   ar
    36   106   105   ar
    37   106   108   ar
    38    76    79    1
    39   105   107   ar
    40   102   103    2
    41    79    80    1
    42    98    99   ar
    43    43    42    2
    44   108   109   ar
    45    97    99   ar
    46   107   109   ar
    47    49    48    1
    48    49    52    1
    49   111   110    1
    50   111   112    1
    51    52    53    1
    52    80    81    1
    53    33    32    2
    54   120   118    1
    55    42    41    1
    56    81    82    1
    57   123   122    1
    58   123   124    2
    59   122   121    1
    60   122   125    1
    61    40    41    1
    62   126   125    1
    63   112   113    2
    64    41    44    1
    65    44    45    1
    66   119   118    1
    67    32    31    1
    68   118   115    1
    69   115   116    1
    70   115   114    1
    71    53    55   ar
    72    53    54   ar
    73    47    45   ar
    74   116   117    2
    75    30    31    1
    76    55    57   ar
    77    82    83    2
    78    45    46   ar
    79    31    34    1
    80    54    56   ar
    81    84    83    1
    82    83    85    1
    83    38    39   ar
    84    38    36   ar
    85    39    37   ar
    86    36    35   ar
    87    57    58   ar
    88    37    35   ar
    89    35    34    1
    90    56    58   ar
    91    12    11    2
    92    58    59    1
    93     9    10    1
    94    22    21    1
    95    11    10    1
    96    16    15    1
    97    14    13    1
    98    14    15    1
    99    20    19    2
   100    10    13    1
   101    17    18    1
   102    21    18    1
   103    23    24    1
   104    27    29    1
   105    27    24    1
   106    27    28    1
   107    25    24    1
   108    25    26    2
   109    19    18    1
   110     8     6    1
   111     6     7    1
   112     6     5    1
   113     5     2    1
   114     2     3    1
   115     2     1    1
   116     3     4    2
