@<TRIPOS>MOLECULE
tmp/4cuoA02.pdb
 74 68 0 0 0
SMALL
GASTEIGER

@<TRIPOS>ATOM
      1  N         31.0100   29.7410   14.9050 N.3   158  ASN158     -0.1225
      2  CA        30.3460   30.2620   16.0780 C.3   158  ASN158      0.1785
      3  C         29.9950   29.1550   17.0500 C.2   158  ASN158      0.2598
      4  O         30.4180   27.9970   16.8670 O.2   158  ASN158     -0.2718
      5  CB        29.1770   31.1420   15.5740 C.3   158  ASN158      0.1169
      6  CG        28.0160   30.3230   15.0370 C.2   158  ASN158      0.2627
      7  OD1       27.8850   29.1290   15.3190 O.2   158  ASN158     -0.2716
      8  ND2       27.1670   30.9620   14.2670 N.am  158  ASN158     -0.0877
      9  N         29.2500   29.4930   18.1110 N.am  159  THR159     -0.1939
     10  CA        28.9940   28.5780   19.1810 C.3   159  THR159      0.2028
     11  C         28.2350   27.3290   18.7000 C.2   159  THR159      0.2643
     12  O         28.5360   26.2130   19.1180 O.2   159  THR159     -0.2714
     13  CB        28.2950   29.3410   20.3330 C.3   159  THR159      0.1808
     14  OG1       29.2720   30.2140   20.9360 O.3   159  THR159     -0.2208
     15  CG2       27.7710   28.3820   21.3600 C.3   159  THR159      0.0379
     16  N         27.2860   27.5100   17.7810 N.am  160  THR160     -0.1936
     17  CA        26.5360   26.3770   17.2200 C.3   160  THR160      0.2028
     18  C         27.5110   25.4990   16.4180 C.2   160  THR160      0.2642
     19  O         27.4470   24.2720   16.5300 O.2   160  THR160     -0.2714
     20  CB        25.4540   26.8630   16.2550 C.3   160  THR160      0.1808
     21  OG1       24.6740   27.8580   16.9340 O.3   160  THR160     -0.2208
     22  CG2       24.5500   25.6840   15.8060 C.3   160  THR160      0.0379
     23  N         28.4230   26.1460   15.6910 N.am  161  ASP161     -0.1971
     24  CA        29.3960   25.3870   14.8540 C.3   161  ASP161      0.1709
     25  C         30.2610   24.5610   15.7910 C.2   161  ASP161      0.2293
     26  O         30.5680   23.4230   15.4970 O.2   161  ASP161     -0.2864
     27  CB        30.2900   26.2980   13.9950 C.3   161  ASP161      0.1436
     28  CG        29.4780   27.1470   13.0050 C.2   161  ASP161      0.3671
     29  OD1       28.5760   26.5870   12.3210 O.co2 161  ASP161     -0.2456
     30  OD2       29.7770   28.3440   12.8840 O.co2 161  ASP161     -0.2456
     31  N         25.6880   28.3290   27.4910 N.3   256  ASN256     -0.1240
     32  CA        24.6880   28.2910   26.4480 C.3   256  ASN256      0.1653
     33  C         24.8010   27.0410   25.5460 C.2   256  ASN256      0.2266
     34  O         23.8890   26.7220   24.7890 O.2   256  ASN256     -0.2867
     35  CB        24.7180   29.6220   25.6380 C.3   256  ASN256      0.1155
     36  CG        25.9750   29.7820   24.8070 C.2   256  ASN256      0.2627
     37  OD1       26.9580   29.0650   24.9980 O.2   256  ASN256     -0.2716
     38  ND2       25.9400   30.7430   23.8820 N.am  256  ASN256     -0.0877
     39  N         22.1440   23.3160   23.4940 N.3   260  ILE260     -0.1245
     40  CA        22.3520   22.8400   22.1260 C.3   260  ILE260      0.1561
     41  C         22.6060   21.3030   22.2020 C.2   260  ILE260      0.2260
     42  O         22.0150   20.5120   21.4260 O.2   260  ILE260     -0.2867
     43  CB        23.5250   23.5860   21.4460 C.3   260  ILE260      0.0252
     44  CG1       23.3090   25.1250   21.5180 C.3   260  ILE260      0.0019
     45  CG2       23.6750   23.0900   20.0110 C.3   260  ILE260      0.0019
     46  CD1       24.4020   25.9250   20.8230 C.3   260  ILE260      0.0001
     47  N         21.3220   18.3500   10.5310 N.3   273  ASN273     -0.1225
     48  CA        21.1530   19.6370    9.8060 C.3   273  ASN273      0.1785
     49  C         22.2350   20.6450   10.1730 C.2   273  ASN273      0.2597
     50  O         22.8480   21.2390    9.3080 O.2   273  ASN273     -0.2718
     51  CB        19.7810   20.2190   10.1020 C.3   273  ASN273      0.1169
     52  CG        18.6510   19.4990    9.3520 C.2   273  ASN273      0.2627
     53  OD1       17.4870   19.7580    9.6290 O.2   273  ASN273     -0.2716
     54  ND2       18.9820   18.5630    8.4710 N.am  273  ASN273     -0.0877
     55  N         22.4970   20.8100   11.4790 N.am  274  SER274     -0.1952
     56  CA        23.5360   21.7370   11.9230 C.3   274  SER274      0.1924
     57  C         24.9090   21.2810   11.5090 C.2   274  SER274      0.2314
     58  O         25.7520   22.1050   11.1410 O.2   274  SER274     -0.2863
     59  CB        23.5150   21.8750   13.4410 C.3   274  SER274      0.2116
     60  OG        22.3270   22.5650   13.7700 O.3   274  SER274     -0.2180
     61  N         25.5850   22.2190    7.8960 N.3   277  ALA277     -0.1245
     62  CA        25.7650   23.6480    7.6610 C.3   277  ALA277      0.1562
     63  C         27.1540   24.0270    8.1770 C.2   277  ALA277      0.2260
     64  O         27.8700   24.7650    7.5090 O.2   277  ALA277     -0.2867
     65  CB        24.7020   24.4590    8.3490 C.3   277  ALA277      0.0290
     66  N         30.5570   25.5220    6.2480 N.3   281  LYS281     -0.1245
     67  CA        31.2600   26.6820    6.7110 C.3   281  LYS281      0.1561
     68  C         32.7520   26.4050    6.9310 C.2   281  LYS281      0.2260
     69  O         33.6280   27.2110    6.4780 O.2   281  LYS281     -0.2867
     70  CB        30.6120   27.2080    7.9980 C.3   281  LYS281      0.0271
     71  CG        30.9580   28.6500    8.2950 C.3   281  LYS281      0.0035
     72  CD        30.3850   29.1010    9.6480 C.3   281  LYS281      0.0206
     73  CE        28.8650   29.2280    9.6280 C.3   281  LYS281      0.1093
     74  NZ        28.2980   29.7900   10.9190 N.3   281  LYS281     -0.1314
@<TRIPOS>BOND
     1    66    67    1
     2    69    68    2
     3    67    68    1
     4    67    70    1
     5    64    63    2
     6    62    61    1
     7    62    63    1
     8    62    65    1
     9    70    71    1
    10    71    72    1
    11    54    52   am
    12    50    49    2
    13    52    53    2
    14    52    51    1
    15    73    72    1
    16    73    74    1
    17    48    51    1
    18    48    49    1
    19    48    47    1
    20    49    55   am
    21    58    57    2
    22    55    56    1
    23    57    56    1
    24    56    59    1
    25    29    28   ar
    26    30    28   ar
    27    28    27    1
    28    59    60    1
    29    27    24    1
    30     8     6   am
    31    24    23    1
    32    24    25    1
    33     1     2    1
    34     6     7    2
    35     6     5    1
    36    26    25    2
    37     5     2    1
    38    23    18   am
    39    22    20    1
    40     2     3    1
    41    20    21    1
    42    20    17    1
    43    18    19    2
    44    18    17    1
    45     4     3    2
    46     3     9   am
    47    17    16    1
    48    16    11   am
    49     9    10    1
    50    11    12    2
    51    11    10    1
    52    10    13    1
    53    45    43    1
    54    13    14    1
    55    13    15    1
    56    46    44    1
    57    42    41    2
    58    43    44    1
    59    43    40    1
    60    40    41    1
    61    40    39    1
    62    38    36   am
    63    34    33    2
    64    36    37    2
    65    36    35    1
    66    33    32    1
    67    35    32    1
    68    32    31    1
