@<TRIPOS>MOLECULE
tmp/4cuqA00.pdb
 91 88 0 0 0
SMALL
GASTEIGER

@<TRIPOS>ATOM
      1  N         12.1030   32.5490   31.3710 N.3    33  PRO33      -0.2102
      2  CA        12.5240   33.7850   30.6940 C.3    33  PRO33       0.1504
      3  C         13.4160   33.5590   29.4650 C.2    33  PRO33       0.2575
      4  O         13.6800   34.5240   28.7350 O.2    33  PRO33      -0.2718
      5  CB        13.3200   34.5320   31.7750 C.3    33  PRO33       0.0282
      6  CG        12.9720   33.8470   33.0940 C.3    33  PRO33       0.0208
      7  CD        12.7330   32.4170   32.7000 C.3    33  PRO33       0.0893
      8  N         13.8690   32.3210   29.2500 N.am   34  PHE34      -0.1977
      9  CA        14.9480   32.0510   28.3030 C.3    34  PHE34       0.1639
     10  C         14.5360   31.1250   27.1540 C.2    34  PHE34       0.2290
     11  O         15.3740   30.7290   26.3460 O.2    34  PHE34      -0.2864
     12  CB        16.1450   31.4410   29.0480 C.3    34  PHE34       0.0560
     13  CG        16.4860   32.1610   30.3340 C.ar   34  PHE34      -0.0200
     14  CD1       17.0370   33.4330   30.3060 C.ar   34  PHE34      -0.0042
     15  CD2       16.2350   31.5690   31.5660 C.ar   34  PHE34      -0.0042
     16  CE1       17.3410   34.1070   31.4960 C.ar   34  PHE34      -0.0003
     17  CE2       16.5400   32.2320   32.7600 C.ar   34  PHE34      -0.0003
     18  CZ        17.0940   33.5040   32.7240 C.ar   34  PHE34      -0.0000
     19  N         14.0570   37.3830   23.5110 N.3    38  VAL38      -0.1245
     20  CA        13.4740   38.6090   24.0380 C.3    38  VAL38       0.1561
     21  C         12.9340   39.4020   22.8540 C.2    38  VAL38       0.2260
     22  O         13.6010   39.4960   21.8160 O.2    38  VAL38      -0.2867
     23  CB        14.5030   39.4570   24.8160 C.3    38  VAL38       0.0252
     24  CG1       13.8900   40.7850   25.2580 C.3    38  VAL38       0.0019
     25  CG2       15.0350   38.6800   26.0200 C.3    38  VAL38       0.0019
     26  N         10.6110   45.3790   24.1260 N.3    43  VAL43      -0.1231
     27  CA        11.3760   45.6180   25.3450 C.3    43  VAL43       0.1678
     28  C         12.3530   46.7810   25.1880 C.2    43  VAL43       0.2434
     29  O         13.3320   46.6830   24.4460 O.2    43  VAL43      -0.2733
     30  CB        12.1520   44.3750   25.7760 C.3    43  VAL43       0.0265
     31  CG1       12.8730   44.6440   27.0900 C.3    43  VAL43       0.0020
     32  CG2       11.2020   43.1950   25.9140 C.3    43  VAL43       0.0020
     33  N         12.0890   47.8900   25.8950 N.am   44  PRO44      -0.2729
     34  CA        12.9460   49.0750   25.7930 C.3    44  PRO44       0.1401
     35  C         14.4060   48.7590   26.1020 C.2    44  PRO44       0.2269
     36  O         14.6890   47.9870   27.0130 O.2    44  PRO44      -0.2865
     37  CB        12.3590   50.0300   26.8460 C.3    44  PRO44       0.0296
     38  CG        10.9490   49.5860   27.0250 C.3    44  PRO44       0.0237
     39  CD        10.9720   48.0920   26.8350 C.3    44  PRO44       0.0939
     40  N         16.6770   46.8510   25.0780 N.3    46  TYR46      -0.1241
     41  CA        17.2970   45.5410   24.8890 C.3    46  TYR46       0.1605
     42  C         18.0950   45.4270   23.5900 C.2    46  TYR46       0.2264
     43  O         19.2210   44.9360   23.6000 O.2    46  TYR46      -0.2867
     44  CB        16.2540   44.4170   24.9340 C.3    46  TYR46       0.0534
     45  CG        16.8880   43.0990   25.3130 C.ar   46  TYR46      -0.0201
     46  CD1       17.0180   42.7380   26.6470 C.ar   46  TYR46      -0.0009
     47  CD2       17.3980   42.2390   24.3430 C.ar   46  TYR46      -0.0009
     48  CE1       17.6160   41.5450   27.0090 C.ar   46  TYR46       0.0417
     49  CE2       17.9920   41.0260   24.6960 C.ar   46  TYR46       0.0417
     50  CZ        18.1030   40.6950   26.0380 C.ar   46  TYR46       0.1957
     51  OH        18.7000   39.5160   26.4240 O.3    46  TYR46      -0.2866
     52  N         23.4390   33.4670   27.1570 N.3    81  VAL81      -0.1245
     53  CA        22.0810   33.6580   27.6630 C.3    81  VAL81       0.1561
     54  C         22.1080   34.2760   29.0710 C.2    81  VAL81       0.2260
     55  O         21.4210   35.2590   29.3630 O.2    81  VAL81      -0.2867
     56  CB        21.3030   32.3240   27.7180 C.3    81  VAL81       0.0252
     57  CG1       19.9570   32.5250   28.4150 C.3    81  VAL81       0.0019
     58  CG2       21.1220   31.7220   26.3010 C.3    81  VAL81       0.0019
     59  N         21.3990   38.1010   30.6060 N.3    85  CYS85      -0.1235
     60  CA        20.3940   38.2460   31.6470 C.3    85  CYS85       0.1677
     61  C         20.9320   39.0980   32.8060 C.2    85  CYS85       0.2270
     62  O         20.2180   39.9370   33.3590 O.2    85  CYS85      -0.2867
     63  CB        19.9470   36.8630   32.1350 C.3    85  CYS85       0.0956
     64  SG        18.7010   36.8590   33.4570 S.3    85  CYS85      -0.0801
     65  N         21.1220   42.9050   31.9230 N.3    88  PHE88      -0.1227
     66  CA        19.8830   43.6470   31.7390 C.3    88  PHE88       0.1736
     67  C         18.9480   43.6300   32.9410 C.2    88  PHE88       0.2595
     68  O         18.0530   44.4700   33.0450 O.2    88  PHE88      -0.2718
     69  CB        19.1380   43.0940   30.5250 C.3    88  PHE88       0.0547
     70  CG        18.1040   44.0360   29.9680 C.ar   88  PHE88      -0.0202
     71  CD1       18.4760   45.0610   29.1130 C.ar   88  PHE88      -0.0042
     72  CD2       16.7650   43.8860   30.2890 C.ar   88  PHE88      -0.0042
     73  CE1       17.5270   45.9240   28.5780 C.ar   88  PHE88      -0.0003
     74  CE2       15.8060   44.7420   29.7660 C.ar   88  PHE88      -0.0003
     75  CZ        16.1870   45.7610   28.9100 C.ar   88  PHE88      -0.0000
     76  N         19.1510   42.6710   33.8420 N.am   89  ASN89      -0.1974
     77  CA        18.2440   42.4680   34.9610 C.3    89  ASN89       0.1688
     78  C         18.9490   42.5730   36.3090 C.2    89  ASN89       0.2292
     79  O         20.0560   42.0580   36.4790 O.2    89  ASN89      -0.2864
     80  CB        17.5680   41.1010   34.8410 C.3    89  ASN89       0.1181
     81  CG        16.8170   40.9310   33.5230 C.2    89  ASN89       0.2629
     82  OD1       15.6460   41.2860   33.4190 O.2    89  ASN89      -0.2716
     83  ND2       17.4860   40.3670   32.5210 N.am   89  ASN89      -0.0877
     84  N         13.5250   37.4480   37.2410 N.3    95  ILE95      -0.1245
     85  CA        14.2850   37.0290   36.0690 C.3    95  ILE95       0.1561
     86  C         15.7660   36.9540   36.4090 C.2    95  ILE95       0.2260
     87  O         16.4460   36.0010   36.0370 O.2    95  ILE95      -0.2867
     88  CB        14.0530   37.9740   34.8850 C.3    95  ILE95       0.0252
     89  CG1       12.5880   37.9060   34.4630 C.3    95  ILE95       0.0019
     90  CG2       14.9390   37.5850   33.6970 C.3    95  ILE95       0.0019
     91  CD1       12.2560   38.7690   33.2750 C.3    95  ILE95       0.0001
@<TRIPOS>BOND
     1    22    21    2
     2    21    20    1
     3    19    20    1
     4    42    43    2
     5    42    41    1
     6    20    23    1
     7    26    27    1
     8    47    49   ar
     9    47    45   ar
    10    29    28    2
    11    49    50   ar
    12    23    24    1
    13    23    25    1
    14    41    44    1
    15    41    40    1
    16    44    45    1
    17    28    27    1
    18    28    33   am
    19    45    46   ar
    20    27    30    1
    21    30    32    1
    22    30    31    1
    23    34    33    1
    24    34    35    1
    25    34    37    1
    26    33    39    1
    27    50    51    1
    28    50    48   ar
    29    35    36    2
    30    58    56    1
    31    11    10    2
    32    46    48   ar
    33    39    38    1
    34    37    38    1
    35    10     9    1
    36    52    53    1
    37    53    56    1
    38    53    54    1
    39    56    57    1
    40     9    12    1
    41     9     8    1
    42    73    75   ar
    43    73    71   ar
    44     4     3    2
    45    75    74   ar
    46    12    13    1
    47    54    55    2
    48    71    70   ar
    49     8     3   am
    50     3     2    1
    51    74    72   ar
    52    70    72   ar
    53    70    69    1
    54    14    13   ar
    55    14    16   ar
    56    13    15   ar
    57    69    66    1
    58    59    60    1
    59     2     1    1
    60     2     5    1
    61     1     7    1
    62    16    18   ar
    63    15    17   ar
    64    60    63    1
    65    60    61    1
    66    66    65    1
    67    66    67    1
    68     5     6    1
    69    63    64    1
    70    83    81   am
    71     7     6    1
    72    18    17   ar
    73    61    62    2
    74    67    68    2
    75    67    76   am
    76    91    89    1
    77    82    81    2
    78    81    80    1
    79    90    88    1
    80    76    77    1
    81    89    88    1
    82    80    77    1
    83    88    85    1
    84    77    78    1
    85    87    86    2
    86    85    86    1
    87    85    84    1
    88    78    79    2
