@<TRIPOS>MOLECULE
tmp/4curA00.pdb
 99 97 0 0 0
SMALL
GASTEIGER

@<TRIPOS>ATOM
      1  N         11.4550   30.1420   32.2760 N.3    32  TRP32      -0.1228
      2  CA        10.5130   30.9880   31.5440 C.3    32  TRP32       0.1722
      3  C         11.0850   32.2970   30.9700 C.2    32  TRP32       0.2437
      4  O         10.6070   32.7580   29.9260 O.2    32  TRP32      -0.2733
      5  CB         9.2930   31.3110   32.4220 C.3    32  TRP32       0.0563
      6  CG         9.5880   32.0050   33.7050 C.ar   32  TRP32       0.0003
      7  CD1        9.8120   31.4210   34.9210 C.ar   32  TRP32       0.0946
      8  CD2        9.6600   33.4200   33.9210 C.ar   32  TRP32       0.0152
      9  NE1       10.0400   32.3840   35.8700 N.ar   32  TRP32      -0.2442
     10  CE2        9.9530   33.6190   35.2830 C.ar   32  TRP32       0.0810
     11  CE3        9.5270   34.5360   33.0890 C.ar   32  TRP32       0.0012
     12  CZ2       10.1060   34.8900   35.8380 C.ar   32  TRP32       0.0191
     13  CZ3        9.6800   35.7990   33.6420 C.ar   32  TRP32       0.0001
     14  CH2        9.9670   35.9630   35.0040 C.ar   32  TRP32       0.0015
     15  N         12.1060   32.9040   31.6150 N.am   33  PRO33      -0.2718
     16  CA        12.5510   34.1310   30.9450 C.3    33  PRO33       0.1535
     17  C         13.3770   33.8560   29.6880 C.2    33  PRO33       0.2598
     18  O         13.6520   34.8000   28.9440 O.2    33  PRO33      -0.2715
     19  CB        13.4260   34.8230   32.0010 C.3    33  PRO33       0.0310
     20  CG        13.0540   34.1590   33.3340 C.3    33  PRO33       0.0237
     21  CD        12.7660   32.7390   32.9240 C.3    33  PRO33       0.0939
     22  N         13.7690   32.6040   29.4710 N.am   34  PHE34      -0.1974
     23  CA        14.8010   32.2950   28.4870 C.3    34  PHE34       0.1639
     24  C         14.3420   31.3810   27.3620 C.2    34  PHE34       0.2290
     25  O         15.1570   30.9770   26.5440 O.2    34  PHE34      -0.2864
     26  CB        16.0110   31.6620   29.1790 C.3    34  PHE34       0.0560
     27  CG        16.4250   32.3790   30.4440 C.ar   34  PHE34      -0.0200
     28  CD1       16.9640   33.6520   30.3860 C.ar   34  PHE34      -0.0042
     29  CD2       16.2460   31.7900   31.6830 C.ar   34  PHE34      -0.0042
     30  CE1       17.3260   34.3270   31.5490 C.ar   34  PHE34      -0.0003
     31  CE2       16.6120   32.4570   32.8490 C.ar   34  PHE34      -0.0003
     32  CZ        17.1510   33.7190   32.7840 C.ar   34  PHE34      -0.0000
     33  N         12.1660   31.9410   24.8450 N.3    36  LEU36      -0.1245
     34  CA        11.9910   32.6240   23.5560 C.3    36  LEU36       0.1561
     35  C         12.8510   33.8830   23.5120 C.2    36  LEU36       0.2260
     36  O         13.2180   34.4050   24.5600 O.2    36  LEU36      -0.2867
     37  CB        10.5210   32.9810   23.3480 C.3    36  LEU36       0.0270
     38  CG         9.5410   31.8170   23.2320 C.3    36  LEU36       0.0019
     39  CD1        8.1220   32.3410   23.0610 C.3    36  LEU36       0.0001
     40  CD2        9.9250   30.9190   22.0770 C.3    36  LEU36       0.0001
     41  N         14.0600   37.6400   23.5640 N.3    38  VAL38      -0.1245
     42  CA        13.5110   38.8770   24.1160 C.3    38  VAL38       0.1561
     43  C         12.9090   39.6660   22.9680 C.2    38  VAL38       0.2260
     44  O         13.5140   39.7560   21.9050 O.2    38  VAL38      -0.2867
     45  CB        14.5890   39.7060   24.8280 C.3    38  VAL38       0.0252
     46  CG1       14.0160   41.0290   25.3220 C.3    38  VAL38       0.0019
     47  CG2       15.1970   38.9010   25.9640 C.3    38  VAL38       0.0019
     48  N         10.7310   45.6820   24.3080 N.3    43  VAL43      -0.1245
     49  CA        11.6050   45.8740   25.4540 C.3    43  VAL43       0.1561
     50  C         12.6250   46.9740   25.2090 C.2    43  VAL43       0.2260
     51  O         13.5980   46.7750   24.4770 O.2    43  VAL43      -0.2867
     52  CB        12.3380   44.5760   25.8180 C.3    43  VAL43       0.0252
     53  CG1       13.3140   44.8150   26.9550 C.3    43  VAL43       0.0019
     54  CG2       11.3300   43.4950   26.1840 C.3    43  VAL43       0.0019
     55  N         16.9100   46.9790   25.0260 N.3    46  TYR46      -0.1241
     56  CA        17.5190   45.6600   24.8230 C.3    46  TYR46       0.1605
     57  C         18.4040   45.5840   23.5850 C.2    46  TYR46       0.2264
     58  O         19.5270   45.0830   23.6540 O.2    46  TYR46      -0.2867
     59  CB        16.4670   44.5560   24.7330 C.3    46  TYR46       0.0534
     60  CG        17.0630   43.2430   25.1820 C.ar   46  TYR46      -0.0201
     61  CD1       17.1830   42.9550   26.5260 C.ar   46  TYR46      -0.0009
     62  CD2       17.5640   42.3300   24.2680 C.ar   46  TYR46      -0.0009
     63  CE1       17.7520   41.7740   26.9640 C.ar   46  TYR46       0.0417
     64  CE2       18.1300   41.1350   24.6930 C.ar   46  TYR46       0.0417
     65  CZ        18.2230   40.8690   26.0430 C.ar   46  TYR46       0.1957
     66  OH        18.7900   39.6990   26.4820 O.3    46  TYR46      -0.2866
     67  N         21.4770   38.1280   30.6690 N.3    85  CYS85      -0.1235
     68  CA        20.5280   38.3220   31.7600 C.3    85  CYS85       0.1677
     69  C         21.1320   39.1830   32.8620 C.2    85  CYS85       0.2270
     70  O         20.4800   40.0970   33.3610 O.2    85  CYS85      -0.2867
     71  CB        20.0790   36.9610   32.3330 C.3    85  CYS85       0.0956
     72  SG        18.8250   37.0770   33.6380 S.3    85  CYS85      -0.0801
     73  N         21.4500   42.9530   31.9370 N.3    88  PHE88      -0.1227
     74  CA        20.2370   43.7400   31.7670 C.3    88  PHE88       0.1736
     75  C         19.3480   43.7870   33.0090 C.2    88  PHE88       0.2595
     76  O         18.5620   44.7190   33.1730 O.2    88  PHE88      -0.2718
     77  CB        19.4330   43.2010   30.5690 C.3    88  PHE88       0.0547
     78  CG        18.5560   44.2450   29.9230 C.ar   88  PHE88      -0.0202
     79  CD1       19.1030   45.2140   29.0920 C.ar   88  PHE88      -0.0042
     80  CD2       17.1930   44.2650   30.1560 C.ar   88  PHE88      -0.0042
     81  CE1       18.3010   46.1850   28.5120 C.ar   88  PHE88      -0.0003
     82  CE2       16.3890   45.2150   29.5670 C.ar   88  PHE88      -0.0003
     83  CZ        16.9430   46.1840   28.7460 C.ar   88  PHE88      -0.0000
     84  N         19.4810   42.7980   33.8890 N.am   89  ASN89      -0.1974
     85  CA        18.5720   42.6580   35.0270 C.3    89  ASN89       0.1688
     86  C         19.2780   42.7380   36.3740 C.2    89  ASN89       0.2292
     87  O         20.3500   42.1650   36.5530 O.2    89  ASN89      -0.2864
     88  CB        17.8170   41.3250   34.9420 C.3    89  ASN89       0.1181
     89  CG        17.0860   41.1510   33.6240 C.2    89  ASN89       0.2629
     90  OD1       15.9660   41.6260   33.4580 O.2    89  ASN89      -0.2716
     91  ND2       17.7160   40.4560   32.6820 N.am   89  ASN89      -0.0877
     92  N         13.6050   37.9000   37.2510 N.3    95  ILE95      -0.1245
     93  CA        14.3520   37.4170   36.0940 C.3    95  ILE95       0.1561
     94  C         15.8210   37.2390   36.4560 C.2    95  ILE95       0.2260
     95  O         16.4410   36.2280   36.1140 O.2    95  ILE95      -0.2867
     96  CB        14.2310   38.3840   34.8980 C.3    95  ILE95       0.0252
     97  CG1       12.8250   38.3300   34.3070 C.3    95  ILE95       0.0019
     98  CG2       15.2400   38.0330   33.8300 C.3    95  ILE95       0.0019
     99  CD1       12.5680   39.4070   33.2880 C.3    95  ILE95       0.0001
@<TRIPOS>BOND
     1    44    43    2
     2    40    38    1
     3    43    42    1
     4    39    38    1
     5    38    37    1
     6    37    34    1
     7    35    34    1
     8    35    36    2
     9    34    33    1
    10    41    42    1
    11    57    58    2
    12    57    56    1
    13    42    45    1
    14    62    64   ar
    15    62    60   ar
    16    48    49    1
    17    51    50    2
    18    64    65   ar
    19    59    56    1
    20    59    60    1
    21    56    55    1
    22    45    46    1
    23    45    47    1
    24    60    61   ar
    25    50    49    1
    26    49    52    1
    27    52    54    1
    28    52    53    1
    29    65    66    1
    30    65    63   ar
    31    61    63   ar
    32    25    24    2
    33    24    23    1
    34    23    26    1
    35    23    22    1
    36    81    83   ar
    37    81    79   ar
    38    83    82   ar
    39    18    17    2
    40    79    78   ar
    41    26    27    1
    42    22    17   am
    43    82    80   ar
    44    17    16    1
    45    78    80   ar
    46    78    77    1
    47     4     3    2
    48    28    27   ar
    49    28    30   ar
    50    27    29   ar
    51    77    74    1
    52    67    68    1
    53    16    15    1
    54    16    19    1
    55     3     2    1
    56     3    15   am
    57     2     1    1
    58     2     5    1
    59    30    32   ar
    60    15    21    1
    61    29    31   ar
    62    68    71    1
    63    68    69    1
    64    74    73    1
    65    74    75    1
    66    19    20    1
    67    71    72    1
    68     5     6    1
    69    91    89   am
    70    32    31   ar
    71    69    70    2
    72    21    20    1
    73    75    76    2
    74    75    84   am
    75    11    13   ar
    76    11     8   ar
    77    99    97    1
    78    90    89    2
    79    89    88    1
    80    13    14   ar
    81     6     8   ar
    82     6     7   ar
    83    98    96    1
    84    84    85    1
    85     8    10   ar
    86    97    96    1
    87    96    93    1
    88     7     9   ar
    89    88    85    1
    90    14    12   ar
    91    85    86    1
    92    10    12   ar
    93    10     9   ar
    94    93    94    1
    95    93    92    1
    96    95    94    2
    97    86    87    2
