@<TRIPOS>MOLECULE
tmp/4cusA00.pdb
 91 90 0 0 0
SMALL
GASTEIGER

@<TRIPOS>ATOM
      1  N         11.5990   30.1830   32.1850 N.3    32  TRP32      -0.1228
      2  CA        10.6270   30.9650   31.4210 C.3    32  TRP32       0.1722
      3  C         11.1600   32.2930   30.8430 C.2    32  TRP32       0.2437
      4  O         10.6710   32.7280   29.7970 O.2    32  TRP32      -0.2733
      5  CB         9.3680   31.2340   32.2660 C.3    32  TRP32       0.0563
      6  CG         9.6150   31.9340   33.5700 C.ar   32  TRP32       0.0003
      7  CD1        9.8210   31.3530   34.7890 C.ar   32  TRP32       0.0946
      8  CD2        9.6620   33.3510   33.7830 C.ar   32  TRP32       0.0152
      9  NE1       10.0110   32.3280   35.7480 N.ar   32  TRP32      -0.2442
     10  CE2        9.9250   33.5610   35.1490 C.ar   32  TRP32       0.0810
     11  CE3        9.5350   34.4630   32.9410 C.ar   32  TRP32       0.0012
     12  CZ2       10.0470   34.8400   35.6980 C.ar   32  TRP32       0.0191
     13  CZ3        9.6590   35.7290   33.4900 C.ar   32  TRP32       0.0001
     14  CH2        9.9060   35.9050   34.8500 C.ar   32  TRP32       0.0015
     15  N         12.1660   32.9330   31.4850 N.am   33  PRO33      -0.2718
     16  CA        12.6190   34.1610   30.8130 C.3    33  PRO33       0.1535
     17  C         13.4410   33.8930   29.5680 C.2    33  PRO33       0.2598
     18  O         13.6580   34.8230   28.7910 O.2    33  PRO33      -0.2715
     19  CB        13.4990   34.8490   31.8760 C.3    33  PRO33       0.0310
     20  CG        13.0870   34.2470   33.1810 C.3    33  PRO33       0.0237
     21  CD        12.7570   32.8170   32.8330 C.3    33  PRO33       0.0939
     22  N         13.8910   32.6520   29.3840 N.am   34  PHE34      -0.1974
     23  CA        14.9300   32.3410   28.4050 C.3    34  PHE34       0.1639
     24  C         14.4680   31.4260   27.2740 C.2    34  PHE34       0.2290
     25  O         15.2770   31.0220   26.4280 O.2    34  PHE34      -0.2864
     26  CB        16.1280   31.7090   29.1370 C.3    34  PHE34       0.0560
     27  CG        16.5070   32.4420   30.3970 C.ar   34  PHE34      -0.0200
     28  CD1       17.0090   33.7380   30.3310 C.ar   34  PHE34      -0.0042
     29  CD2       16.3250   31.8630   31.6430 C.ar   34  PHE34      -0.0042
     30  CE1       17.3330   34.4370   31.4770 C.ar   34  PHE34      -0.0003
     31  CE2       16.6640   32.5570   32.8160 C.ar   34  PHE34      -0.0003
     32  CZ        17.1600   33.8470   32.7300 C.ar   34  PHE34      -0.0000
     33  N         14.0730   37.6830   23.4220 N.3    38  VAL38      -0.1245
     34  CA        13.4740   38.9100   23.9440 C.3    38  VAL38       0.1561
     35  C         12.9100   39.7190   22.7910 C.2    38  VAL38       0.2260
     36  O         13.5620   39.8520   21.7510 O.2    38  VAL38      -0.2867
     37  CB        14.4990   39.7610   24.7140 C.3    38  VAL38       0.0252
     38  CG1       13.8710   41.1070   25.1630 C.3    38  VAL38       0.0019
     39  CG2       15.0540   38.9780   25.9050 C.3    38  VAL38       0.0019
     40  N         10.6930   45.7530   24.2870 N.3    43  VAL43      -0.1245
     41  CA        11.5130   45.9680   25.4710 C.3    43  VAL43       0.1561
     42  C         12.5230   47.0900   25.2240 C.2    43  VAL43       0.2260
     43  O         13.5360   46.8820   24.5430 O.2    43  VAL43      -0.2867
     44  CB        12.2460   44.6800   25.8850 C.3    43  VAL43       0.0252
     45  CG1       13.1000   44.9150   27.1240 C.3    43  VAL43       0.0019
     46  CG2       11.2420   43.5450   26.1160 C.3    43  VAL43       0.0019
     47  N         16.8430   47.1030   25.0790 N.3    46  TYR46      -0.1241
     48  CA        17.4660   45.7920   24.8910 C.3    46  TYR46       0.1605
     49  C         18.2930   45.7030   23.6150 C.2    46  TYR46       0.2264
     50  O         19.4230   45.2040   23.6350 O.2    46  TYR46      -0.2867
     51  CB        16.4240   44.6680   24.8970 C.3    46  TYR46       0.0534
     52  CG        17.0410   43.3570   25.3330 C.ar   46  TYR46      -0.0201
     53  CD1       17.1140   43.0200   26.6780 C.ar   46  TYR46      -0.0009
     54  CD2       17.5880   42.4800   24.4070 C.ar   46  TYR46      -0.0009
     55  CE1       17.7030   41.8220   27.0920 C.ar   46  TYR46       0.0417
     56  CE2       18.1760   41.2840   24.8060 C.ar   46  TYR46       0.0417
     57  CZ        18.2340   40.9610   26.1440 C.ar   46  TYR46       0.1957
     58  OH        18.8220   39.7790   26.5400 O.3    46  TYR46      -0.2866
     59  N         21.5750   38.2850   30.7080 N.3    85  CYS85      -0.1235
     60  CA        20.5880   38.4440   31.7740 C.3    85  CYS85       0.1677
     61  C         21.1530   39.2910   32.9080 C.2    85  CYS85       0.2270
     62  O         20.4700   40.1870   33.4300 O.2    85  CYS85      -0.2867
     63  CB        20.1340   37.0740   32.3020 C.3    85  CYS85       0.0956
     64  SG        18.8640   37.1200   33.6260 S.3    85  CYS85      -0.0801
     65  N         21.3820   43.0860   32.0380 N.3    88  PHE88      -0.1227
     66  CA        20.1430   43.8420   31.8830 C.3    88  PHE88       0.1736
     67  C         19.2420   43.8340   33.1190 C.2    88  PHE88       0.2595
     68  O         18.3520   44.6900   33.2540 O.2    88  PHE88      -0.2718
     69  CB        19.3590   43.3040   30.6850 C.3    88  PHE88       0.0547
     70  CG        18.4480   44.3210   30.0540 C.ar   88  PHE88      -0.0202
     71  CD1       18.9530   45.2780   29.1880 C.ar   88  PHE88      -0.0042
     72  CD2       17.0900   44.3160   30.3170 C.ar   88  PHE88      -0.0042
     73  CE1       18.1260   46.2200   28.5900 C.ar   88  PHE88      -0.0003
     74  CE2       16.2500   45.2510   29.7250 C.ar   88  PHE88      -0.0003
     75  CZ        16.7700   46.2090   28.8580 C.ar   88  PHE88      -0.0000
     76  N         19.4670   42.8860   34.0210 N.am   89  ASN89      -0.1974
     77  CA        18.5820   42.7190   35.1730 C.3    89  ASN89       0.1688
     78  C         19.3010   42.8370   36.5030 C.2    89  ASN89       0.2292
     79  O         20.4290   42.3710   36.6460 O.2    89  ASN89      -0.2864
     80  CB        17.8710   41.3640   35.1110 C.3    89  ASN89       0.1181
     81  CG        17.0720   41.1890   33.8420 C.2    89  ASN89       0.2629
     82  OD1       15.9040   41.5760   33.7760 O.2    89  ASN89      -0.2716
     83  ND2       17.6980   40.6060   32.8190 N.am   89  ASN89      -0.0877
     84  N         13.6700   37.8650   37.2260 N.3    95  ILE95      -0.1245
     85  CA        14.4540   37.4120   36.0760 C.3    95  ILE95       0.1561
     86  C         15.9310   37.2810   36.4430 C.2    95  ILE95       0.2260
     87  O         16.5990   36.3230   36.0410 O.2    95  ILE95      -0.2867
     88  CB        14.2840   38.3750   34.8820 C.3    95  ILE95       0.0252
     89  CG1       12.8450   38.3040   34.3550 C.3    95  ILE95       0.0019
     90  CG2       15.2840   38.0580   33.7790 C.3    95  ILE95       0.0019
     91  CD1       12.5170   39.3500   33.3190 C.3    95  ILE95       0.0001
@<TRIPOS>BOND
     1    36    35    2
     2    35    34    1
     3    33    34    1
     4    49    50    2
     5    49    48    1
     6    34    37    1
     7    40    41    1
     8    54    56   ar
     9    54    52   ar
    10    43    42    2
    11    37    38    1
    12    37    39    1
    13    56    57   ar
    14    48    51    1
    15    48    47    1
    16    51    52    1
    17    42    41    1
    18    52    53   ar
    19    41    44    1
    20    44    46    1
    21    44    45    1
    22    57    58    1
    23    57    55   ar
    24    25    24    2
    25    53    55   ar
    26    24    23    1
    27    23    26    1
    28    23    22    1
    29    73    75   ar
    30    73    71   ar
    31    18    17    2
    32    75    74   ar
    33    26    27    1
    34    71    70   ar
    35    22    17   am
    36    17    16    1
    37    74    72   ar
    38     4     3    2
    39    70    72   ar
    40    70    69    1
    41    28    27   ar
    42    28    30   ar
    43    27    29   ar
    44    69    66    1
    45    59    60    1
    46    16    15    1
    47    16    19    1
    48     3     2    1
    49     3    15   am
    50     2     1    1
    51     2     5    1
    52    30    32   ar
    53    15    21    1
    54    29    31   ar
    55    60    63    1
    56    60    61    1
    57    19    20    1
    58    66    65    1
    59    66    67    1
    60     5     6    1
    61    63    64    1
    62    32    31   ar
    63    83    81   am
    64    21    20    1
    65    61    62    2
    66    11    13   ar
    67    11     8   ar
    68    67    68    2
    69    67    76   am
    70    91    89    1
    71    13    14   ar
    72     6     8   ar
    73     6     7   ar
    74    82    81    2
    75    90    88    1
    76     8    10   ar
    77    81    80    1
    78    76    77    1
    79    89    88    1
    80     7     9   ar
    81    14    12   ar
    82    88    85    1
    83    80    77    1
    84    10    12   ar
    85    10     9   ar
    86    77    78    1
    87    87    86    2
    88    85    86    1
    89    85    84    1
    90    78    79    2
