@<TRIPOS>MOLECULE
tmp/4cuzF00.pdb
 173 166 0 0 0
SMALL
GASTEIGER

@<TRIPOS>ATOM
      1  N          6.1800   26.2750   61.7890 N.3    93  ALA93      -0.1231
      2  CA         6.2370   26.3000   63.2430 C.3    93  ALA93       0.1694
      3  C          6.3130   27.7370   63.7230 C.2    93  ALA93       0.2592
      4  O          6.7170   28.6230   62.9730 O.2    93  ALA93      -0.2718
      5  CB         7.4340   25.5040   63.7450 C.3    93  ALA93       0.0304
      6  N          5.9080   27.9720   64.9670 N.am   94  PHE94      -0.1962
      7  CA         6.0570   29.2910   65.5590 C.3    94  PHE94       0.1771
      8  C          6.0890   29.2740   67.0790 C.2    94  PHE94       0.2619
      9  O          5.5120   28.3920   67.7170 O.2    94  PHE94      -0.2715
     10  CB         4.9640   30.2500   65.0940 C.3    94  PHE94       0.0574
     11  CG         5.1480   31.6490   65.6050 C.ar   94  PHE94      -0.0200
     12  CD1        4.6040   32.0420   66.8220 C.ar   94  PHE94      -0.0042
     13  CD2        5.8920   32.5640   64.8860 C.ar   94  PHE94      -0.0042
     14  CE1        4.7930   33.3250   67.3020 C.ar   94  PHE94      -0.0003
     15  CE2        6.0820   33.8520   65.3600 C.ar   94  PHE94      -0.0003
     16  CZ         5.5330   34.2330   66.5650 C.ar   94  PHE94      -0.0000
     17  N          6.7660   30.2760   67.6400 N.am   95  ALA95      -0.1977
     18  CA         6.8020   30.5130   69.0740 C.3    95  ALA95       0.1597
     19  C          7.1860   31.9690   69.3230 C.2    95  ALA95       0.2287
     20  O          7.8980   32.5790   68.5200 O.2    95  ALA95      -0.2864
     21  CB         7.7970   29.5880   69.7350 C.3    95  ALA95       0.0319
     22  N          9.2870   34.8540   70.6910 N.3    97  MET97      -0.1245
     23  CA        10.6750   35.0270   71.0860 C.3    97  MET97       0.1570
     24  C         10.8330   35.2840   72.5780 C.2    97  MET97       0.2261
     25  O         11.8600   34.9570   73.1680 O.2    97  MET97      -0.2867
     26  CB        11.3240   36.1490   70.2830 C.3    97  MET97       0.0387
     27  CG        11.8420   35.6860   68.9410 C.3    97  MET97       0.0595
     28  SD        12.8010   34.1640   69.1170 S.3    97  MET97      -0.1393
     29  CE        13.5210   34.0280   67.4790 C.3    97  MET97       0.0692
     30  N         11.0490   32.1590   74.6610 N.3   100  LEU100     -0.1245
     31  CA        12.2750   31.4370   74.3560 C.3   100  LEU100      0.1561
     32  C         13.4610   32.0190   75.1140 C.2   100  LEU100      0.2260
     33  O         14.5210   31.4010   75.2250 O.2   100  LEU100     -0.2867
     34  CB        12.5570   31.5440   72.8680 C.3   100  LEU100      0.0270
     35  CG        12.0400   30.5050   71.8640 C.3   100  LEU100      0.0019
     36  CD1       11.5100   29.1880   72.4130 C.3   100  LEU100      0.0001
     37  CD2       11.2790   31.0480   70.6490 C.3   100  LEU100      0.0001
     38  N         13.1210   19.2840   65.4590 N.3   145  TYR145     -0.1241
     39  CA        14.4700   19.5820   65.9170 C.3   145  TYR145      0.1605
     40  C         14.8180   18.7140   67.1240 C.2   145  TYR145      0.2264
     41  O         13.9300   18.2260   67.8290 O.2   145  TYR145     -0.2867
     42  CB        14.6060   21.0650   66.2770 C.3   145  TYR145      0.0534
     43  CG        15.9710   21.4360   66.8080 C.ar  145  TYR145     -0.0201
     44  CD1       17.1020   21.3200   66.0100 C.ar  145  TYR145     -0.0009
     45  CD2       16.1320   21.9020   68.1040 C.ar  145  TYR145     -0.0009
     46  CE1       18.3570   21.6530   66.4900 C.ar  145  TYR145      0.0417
     47  CE2       17.3860   22.2370   68.5920 C.ar  145  TYR145      0.0417
     48  CZ        18.4950   22.1110   67.7810 C.ar  145  TYR145      0.1957
     49  OH        19.7400   22.4450   68.2730 O.3   145  TYR145     -0.2866
     50  N         16.9380   21.4080   75.3850 N.3   152  VAL152     -0.1231
     51  CA        18.0160   22.1700   74.7850 C.3   152  VAL152      0.1692
     52  C         17.9840   23.5970   75.3060 C.2   152  VAL152      0.2592
     53  O         16.9530   24.2670   75.2290 O.2   152  VAL152     -0.2718
     54  CB        17.9260   22.1670   73.2590 C.3   152  VAL152      0.0266
     55  CG1       18.8940   23.1710   72.6650 C.3   152  VAL152      0.0020
     56  CG2       18.2180   20.7830   72.7350 C.3   152  VAL152      0.0020
     57  N         19.1110   24.0490   75.8500 N.am  153  GLN153     -0.1966
     58  CA        19.2230   25.4080   76.3390 C.3   153  GLN153      0.1733
     59  C         18.4460   26.3690   75.4460 C.2   153  GLN153      0.2616
     60  O         18.7330   26.4840   74.2580 O.2   153  GLN153     -0.2715
     61  CB        20.6900   25.8280   76.3740 C.3   153  GLN153      0.0408
     62  CG        21.0020   26.9210   77.3820 C.3   153  GLN153      0.0908
     63  CD        20.8320   26.4460   78.8130 C.2   153  GLN153      0.2608
     64  OE1       19.7230   26.4510   79.3570 O.2   153  GLN153     -0.2717
     65  NE2       21.9330   26.0320   79.4330 N.am  153  GLN153     -0.0878
     66  N         17.4460   27.0290   76.0270 N.am  154  ASN154     -0.1958
     67  CA        16.7240   28.1270   75.3750 C.3   154  ASN154      0.1819
     68  C         15.6070   27.7530   74.4090 C.2   154  ASN154      0.2621
     69  O         14.7590   28.5940   74.0970 O.2   154  ASN154     -0.2715
     70  CB        17.6960   29.0680   74.6720 C.3   154  ASN154      0.1195
     71  CG        18.6980   29.6660   75.6170 C.2   154  ASN154      0.2630
     72  OD1       18.3660   30.0100   76.7520 O.2   154  ASN154     -0.2716
     73  ND2       19.9400   29.7780   75.1670 N.am  154  ASN154     -0.0877
     74  N         15.6070   26.5170   73.9180 N.am  155  TYR155     -0.1974
     75  CA        14.5650   26.0820   72.9920 C.3   155  TYR155      0.1639
     76  C         13.2140   26.0600   73.7000 C.2   155  TYR155      0.2290
     77  O         12.1700   26.1550   73.0660 O.2   155  TYR155     -0.2864
     78  CB        14.9020   24.7130   72.4080 C.3   155  TYR155      0.0560
     79  CG        14.2500   24.4200   71.0740 C.ar  155  TYR155     -0.0198
     80  CD1       14.3940   25.2900   70.0020 C.ar  155  TYR155     -0.0009
     81  CD2       13.5110   23.2550   70.8820 C.ar  155  TYR155     -0.0009
     82  CE1       13.8040   25.0190   68.7760 C.ar  155  TYR155      0.0417
     83  CE2       12.9150   22.9730   69.6620 C.ar  155  TYR155      0.0417
     84  CZ        13.0650   23.8550   68.6120 C.ar  155  TYR155      0.1957
     85  OH        12.4760   23.5790   67.3990 O.3   155  TYR155     -0.2866
     86  N          9.3010   25.9270   72.4790 N.3   158  MET158     -0.1245
     87  CA         9.3520   25.3440   71.1450 C.3   158  MET158      0.1570
     88  C          9.7240   23.8770   71.2470 C.2   158  MET158      0.2261
     89  O          9.2180   23.0470   70.4990 O.2   158  MET158     -0.2867
     90  CB        10.3460   26.0860   70.2560 C.3   158  MET158      0.0387
     91  CG        10.4030   25.5680   68.8190 C.3   158  MET158      0.0595
     92  SD         8.8330   25.6340   67.9180 S.3   158  MET158     -0.1393
     93  CE         9.0240   27.0620   66.8490 C.3   158  MET158      0.0692
     94  N          7.7510   20.7080   69.6820 N.3   162  LYS162     -0.1245
     95  CA         8.3590   19.7250   68.7940 C.3   162  LYS162      0.1561
     96  C          8.1240   18.3150   69.3180 C.2   162  LYS162      0.2260
     97  O          7.7390   17.4120   68.5680 O.2   162  LYS162     -0.2867
     98  CB         9.8530   19.9910   68.6230 C.3   162  LYS162      0.0271
     99  CG        10.1590   21.1730   67.7150 C.3   162  LYS162      0.0035
    100  CD         9.3790   21.0700   66.4060 C.3   162  LYS162      0.0206
    101  CE         9.7650   22.1630   65.4080 C.3   162  LYS162      0.1093
    102  NZ         8.8440   22.2180   64.2210 N.3   162  LYS162     -0.1314
    103  N         19.3760   19.5050   61.7460 N.3   189  GLY189     -0.1210
    104  CA        20.3960   20.1870   62.5130 C.3   189  GLY189      0.1940
    105  C         20.0650   21.6590   62.4420 C.2   189  GLY189      0.2454
    106  O         19.1330   22.0410   61.7310 O.2   189  GLY189     -0.2732
    107  N         20.8110   22.4970   63.1800 N.am  190  PRO190     -0.2717
    108  CA        20.5620   23.9380   63.1330 C.3   190  PRO190      0.1535
    109  C         20.9280   24.4820   61.7630 C.2   190  PRO190      0.2598
    110  O         22.0230   24.2050   61.2640 O.2   190  PRO190     -0.2715
    111  CB        21.5250   24.4960   64.1820 C.3   190  PRO190      0.0310
    112  CG        21.9220   23.3310   65.0200 C.3   190  PRO190      0.0237
    113  CD        21.9090   22.1600   64.0970 C.3   190  PRO190      0.0939
    114  N         20.0230   25.2400   61.1640 N.am  191  ILE191     -0.1978
    115  CA        20.2990   25.8630   59.8860 C.3   191  ILE191      0.1596
    116  C         19.9420   27.3340   59.9190 C.2   191  ILE191      0.2287
    117  O         18.9750   27.7610   60.5730 O.2   191  ILE191     -0.2864
    118  CB        19.5450   25.1720   58.7430 C.3   191  ILE191      0.0276
    119  CG1       20.0990   23.7660   58.5180 C.3   191  ILE191      0.0022
    120  CG2       19.6410   25.9840   57.4720 C.3   191  ILE191      0.0022
    121  CD1       19.4080   23.0160   57.3950 C.3   191  ILE191      0.0001
    122  N         18.1880   30.0350   59.0280 N.3   193  THR193     -0.1218
    123  CA        16.9470   30.3930   58.3570 C.3   193  THR193      0.1862
    124  C         16.4470   31.7370   58.8560 C.2   193  THR193      0.2287
    125  O         17.0100   32.3170   59.7860 O.2   193  THR193     -0.2866
    126  CB        15.8340   29.3450   58.5720 C.3   193  THR193      0.1770
    127  OG1       15.4960   29.2730   59.9670 O.3   193  THR193     -0.2211
    128  CG2       16.2730   27.9700   58.0730 C.3   193  THR193      0.0375
    129  N         13.7930   32.4200   60.5710 N.3   195  SER195     -0.1202
    130  CA        13.4000   32.2750   61.9660 C.3   195  SER195      0.2020
    131  C         14.5940   31.9890   62.8730 C.2   195  SER195      0.2618
    132  O         14.5810   32.3330   64.0570 O.2   195  SER195     -0.2717
    133  CB        12.3720   31.1590   62.0940 C.3   195  SER195      0.2103
    134  OG        12.8680   29.9670   61.5020 O.3   195  SER195     -0.2182
    135  N         15.6200   31.3500   62.3160 N.am  196  ALA196     -0.1979
    136  CA        16.8510   31.0870   63.0550 C.3   196  ALA196      0.1597
    137  C         17.4830   32.4000   63.4900 C.2   196  ALA196      0.2287
    138  O         18.2520   32.4550   64.4490 O.2   196  ALA196     -0.2864
    139  CB        17.8240   30.2920   62.2020 C.3   196  ALA196      0.0319
    140  N         17.6610   34.1930   67.5010 N.3   199  VAL199     -0.1231
    141  CA        17.7440   33.3010   68.6420 C.3   199  VAL199      0.1692
    142  C         19.0850   33.3640   69.3690 C.2   199  VAL199      0.2593
    143  O         20.1490   33.4530   68.7510 O.2   199  VAL199     -0.2718
    144  CB        17.1700   31.8690   68.3540 C.3   199  VAL199      0.0266
    145  CG1       16.8900   31.5780   66.8840 C.3   199  VAL199      0.0020
    146  CG2       17.7660   30.7620   69.2000 C.3   199  VAL199      0.0020
    147  N         19.0090   33.3840   70.6940 N.am  200  GLY200     -0.1942
    148  CA        20.1960   33.4900   71.5140 C.3   200  GLY200      0.2014
    149  C         21.0560   32.2450   71.4440 C.2   200  GLY200      0.2639
    150  O         20.5400   31.1270   71.4600 O.2   200  GLY200     -0.2714
    151  N         22.3700   32.4440   71.3590 N.am  201  GLY201     -0.1939
    152  CA        23.3260   31.3510   71.4180 C.3   201  GLY201      0.2014
    153  C         23.2910   30.4420   70.2080 C.2   201  GLY201      0.2638
    154  O         23.8730   29.3560   70.2170 O.2   201  GLY201     -0.2714
    155  N         22.5970   30.8810   69.1650 N.am  202  PHE202     -0.1973
    156  CA        22.4940   30.1030   67.9360 C.3   202  PHE202      0.1639
    157  C         23.8820   29.8330   67.3740 C.2   202  PHE202      0.2290
    158  O         24.2660   28.6830   67.1520 O.2   202  PHE202     -0.2864
    159  CB        21.6460   30.8470   66.9020 C.3   202  PHE202      0.0560
    160  CG        21.4850   30.1110   65.6020 C.ar  202  PHE202     -0.0200
    161  CD1       22.4350   30.2320   64.6000 C.ar  202  PHE202     -0.0042
    162  CD2       20.3830   29.3010   65.3780 C.ar  202  PHE202     -0.0042
    163  CE1       22.2870   29.5570   63.3980 C.ar  202  PHE202     -0.0003
    164  CE2       20.2320   28.6230   64.1780 C.ar  202  PHE202     -0.0003
    165  CZ        21.1840   28.7520   63.1890 C.ar  202  PHE202     -0.0000
    166  N         25.9620   27.1900   69.0670 N.3   205  ILE205     -0.1245
    167  CA        25.6010   25.8250   68.7380 C.3   205  ILE205      0.1561
    168  C         26.1910   25.3990   67.4070 C.2   205  ILE205      0.2260
    169  O         26.8320   24.3530   67.3180 O.2   205  ILE205     -0.2867
    170  CB        24.0880   25.6590   68.6930 C.3   205  ILE205      0.0252
    171  CG1       23.4880   26.0470   70.0470 C.3   205  ILE205      0.0019
    172  CG2       23.7340   24.2330   68.3170 C.3   205  ILE205      0.0019
    173  CD1       24.0630   25.2710   71.2210 C.3   205  ILE205      0.0001
@<TRIPOS>BOND
     1   121   119    1
     2   120   118    1
     3   128   126    1
     4   123   126    1
     5   123   124    1
     6   123   122    1
     7   119   118    1
     8   126   127    1
     9   118   115    1
    10   124   125    2
    11   115   116    1
    12   115   114    1
    13   116   117    2
    14   129   130    1
    15   114   109   am
    16   110   109    2
    17   134   133    1
    18   106   105    2
    19   103   104    1
    20   109   108    1
    21     1     2    1
    22   130   133    1
    23   130   131    1
    24   139   136    1
    25   135   131   am
    26   135   136    1
    27   105   104    1
    28   105   107   am
    29   131   132    2
    30     4     3    2
    31   136   137    1
    32   108   107    1
    33   108   111    1
    34   107   113    1
    35   165   163   ar
    36   165   164   ar
    37     2     3    1
    38     2     5    1
    39   163   161   ar
    40   137   138    2
    41     3     6   am
    42   113   112    1
    43   164   162   ar
    44   111   112    1
    45   102   101    1
    46   161   160   ar
    47    13    15   ar
    48    13    11   ar
    49     6     7    1
    50    10     7    1
    51    10    11    1
    52    15    16   ar
    53   162   160   ar
    54   101   100    1
    55    38    39    1
    56     7     8    1
    57   160   159    1
    58    11    12   ar
    59    39    42    1
    60    39    40    1
    61    44    46   ar
    62    44    43   ar
    63    42    43    1
    64   100    99    1
    65    46    48   ar
    66    16    14   ar
    67    43    45   ar
    68    12    14   ar
    69    93    92    1
    70   145   144    1
    71   159   156    1
    72     8    17   am
    73     8     9    2
    74    40    41    2
    75   158   157    2
    76   169   168    2
    77   157   156    1
    78    85    84    1
    79   168   167    1
    80    29    28    1
    81   140   141    1
    82    17    18    1
    83    99    98    1
    84    48    49    1
    85    48    47   ar
    86    92    91    1
    87   156   155    1
    88    45    47   ar
    89   172   170    1
    90   144   141    1
    91   144   146    1
    92    20    19    2
    93    97    96    2
    94    84    82   ar
    95    84    83   ar
    96    98    95    1
    97   141   142    1
    98   170   167    1
    99   170   171    1
   100   167   166    1
   101   143   142    2
   102    82    80   ar
   103    95    96    1
   104    95    94    1
   105    91    90    1
   106    27    28    1
   107    27    26    1
   108    18    19    1
   109    18    21    1
   110   155   153   am
   111   142   147   am
   112    83    81   ar
   113    80    79   ar
   114   171   173    1
   115   153   154    2
   116   153   152    1
   117    90    87    1
   118    26    23    1
   119    89    88    2
   120    37    35    1
   121    22    23    1
   122   147   148    1
   123    81    79   ar
   124    79    78    1
   125    23    24    1
   126    87    88    1
   127    87    86    1
   128   151   152    1
   129   151   149   am
   130   149   150    2
   131   149   148    1
   132    35    36    1
   133    35    34    1
   134    78    75    1
   135    24    25    2
   136    55    54    1
   137    56    54    1
   138    34    31    1
   139    75    76    1
   140    75    74    1
   141    77    76    2
   142    54    51    1
   143    74    68   am
   144    69    68    2
   145    60    59    2
   146    31    30    1
   147    31    32    1
   148    68    67    1
   149    70    67    1
   150    70    71    1
   151    51    52    1
   152    51    50    1
   153    32    33    2
   154    73    71   am
   155    53    52    2
   156    52    57   am
   157    67    66    1
   158    59    66   am
   159    59    58    1
   160    71    72    2
   161    57    58    1
   162    58    61    1
   163    61    62    1
   164    62    63    1
   165    63    64    2
   166    63    65   am
