@<TRIPOS>MOLECULE
tmp/4cv1H01.pdb
 169 162 0 0 0
SMALL
GASTEIGER

@<TRIPOS>ATOM
      1  N         -2.3100    9.4610  159.7870 N.3   102  ALA102     -0.1231
      2  CA        -2.5340    9.3520  158.3360 C.3   102  ALA102      0.1694
      3  C         -4.0220    9.4480  158.0490 C.2   102  ALA102      0.2592
      4  O         -4.8240    9.2040  158.9230 O.2   102  ALA102     -0.2718
      5  CB        -2.0240    8.0170  157.7910 C.3   102  ALA102      0.0304
      6  N         -4.3880    9.7870  156.8140 N.am  103  PHE103     -0.1962
      7  CA        -5.7810    9.7620  156.3730 C.3   103  PHE103      0.1771
      8  C         -5.7640    9.7100  154.8650 C.2   103  PHE103      0.2619
      9  O         -4.9220   10.3350  154.2300 O.2   103  PHE103     -0.2715
     10  CB        -6.5840   10.9780  156.8410 C.3   103  PHE103      0.0574
     11  CG        -8.0120   10.9940  156.3310 C.ar  103  PHE103     -0.0200
     12  CD1       -9.0020   10.2090  156.9260 C.ar  103  PHE103     -0.0042
     13  CD2       -8.3470   11.7370  155.2170 C.ar  103  PHE103     -0.0042
     14  CE1      -10.2970   10.1970  156.4420 C.ar  103  PHE103     -0.0003
     15  CE2       -9.6500   11.7250  154.7190 C.ar  103  PHE103     -0.0003
     16  CZ       -10.6220   10.9520  155.3360 C.ar  103  PHE103     -0.0000
     17  N         -6.6550    8.9040  154.2960 N.am  104  ALA104     -0.1977
     18  CA        -6.9670    8.9900  152.8750 C.3   104  ALA104      0.1597
     19  C         -8.4650    8.7540  152.7500 C.2   104  ALA104      0.2287
     20  O         -9.0030    7.9300  153.4850 O.2   104  ALA104     -0.2864
     21  CB        -6.1890    7.9280  152.1130 C.3   104  ALA104      0.0319
     22  N        -11.8380    7.3780  151.7220 N.3   106  MET106     -0.1245
     23  CA       -12.2780    6.0480  151.3520 C.3   106  MET106      0.1570
     24  C        -12.7730    5.9720  149.8980 C.2   106  MET106      0.2261
     25  O        -12.4100    5.0530  149.1560 O.2   106  MET106     -0.2867
     26  CB       -13.3670    5.6160  152.3340 C.3   106  MET106      0.0387
     27  CG       -13.8010    4.1720  152.2010 C.3   106  MET106      0.0595
     28  SD       -12.4870    2.9480  152.4060 S.3   106  MET106     -0.1393
     29  CE       -12.1310    3.0480  154.1720 C.3   106  MET106      0.0692
     30  N         -9.6900    5.7320  147.7530 N.3   109  LEU109     -0.1245
     31  CA        -9.0860    4.4160  147.8300 C.3   109  LEU109      0.1561
     32  C         -9.8550    3.4080  146.9990 C.2   109  LEU109      0.2260
     33  O         -9.2450    2.5080  146.4360 O.2   109  LEU109     -0.2867
     34  CB        -9.0260    3.9490  149.2830 C.3   109  LEU109      0.0270
     35  CG        -8.0840    4.7950  150.1460 C.3   109  LEU109      0.0019
     36  CD1       -8.3480    4.5190  151.6320 C.3   109  LEU109      0.0001
     37  CD2       -6.6550    4.5420  149.7580 C.3   109  LEU109      0.0001
     38  N          4.2910    2.4980  155.1830 N.3   154  TYR154     -0.1241
     39  CA         3.8950    1.2290  154.6540 C.3   154  TYR154      0.1605
     40  C          4.6050    1.0690  153.3030 C.2   154  TYR154      0.2264
     41  O          4.7970    2.0650  152.5690 O.2   154  TYR154     -0.2867
     42  CB         2.3640    1.1950  154.4640 C.3   154  TYR154      0.0534
     43  CG         1.9270   -0.1170  153.8720 C.ar  154  TYR154     -0.0201
     44  CD1        2.2010   -1.3300  154.5280 C.ar  154  TYR154     -0.0009
     45  CD2        1.3770   -0.1590  152.5990 C.ar  154  TYR154     -0.0009
     46  CE1        1.9650   -2.5540  153.8990 C.ar  154  TYR154      0.0417
     47  CE2        1.0440   -1.3720  152.0100 C.ar  154  TYR154      0.0417
     48  CZ         1.3730   -2.5530  152.6540 C.ar  154  TYR154      0.1957
     49  OH         1.0510   -3.7380  152.0460 O.3   154  TYR154     -0.2866
     50  N          1.1940   -0.9690  145.3690 N.3   161  VAL161     -0.1231
     51  CA         0.5290   -2.1320  145.9370 C.3   161  VAL161      0.1692
     52  C         -0.9310   -2.0070  145.5450 C.2   161  VAL161      0.2592
     53  O         -1.4970   -0.9280  145.6980 O.2   161  VAL161     -0.2718
     54  CB         0.7320   -2.1570  147.4940 C.3   161  VAL161      0.0266
     55  CG1       -0.2110   -3.1520  148.1620 C.3   161  VAL161      0.0020
     56  CG2        2.1610   -2.4960  147.8370 C.3   161  VAL161      0.0020
     57  N         -1.5040   -3.0630  144.9650 N.am  162  GLN162     -0.1966
     58  CA        -2.9180   -3.0570  144.5910 C.3   162  GLN162      0.1733
     59  C         -3.8100   -2.4690  145.6910 C.2   162  GLN162      0.2616
     60  O         -3.6730   -2.8480  146.8500 O.2   162  GLN162     -0.2715
     61  CB        -3.3510   -4.4870  144.2200 C.3   162  GLN162      0.0408
     62  CG        -4.4880   -4.5500  143.2190 C.3   162  GLN162      0.0908
     63  CD        -4.0950   -4.0330  141.8440 C.2   162  GLN162      0.2608
     64  OE1       -4.6110   -3.0100  141.3900 O.2   162  GLN162     -0.2717
     65  NE2       -3.2220   -4.7560  141.1550 N.am  162  GLN162     -0.0878
     66  N         -4.6400   -1.4830  145.3420 N.am  163  ASN163     -0.1958
     67  CA        -5.6330   -0.8500  146.2490 C.3   163  ASN163      0.1819
     68  C         -5.1010    0.1180  147.3030 C.2   163  ASN163      0.2621
     69  O         -5.8840    0.7270  148.0240 O.2   163  ASN163     -0.2715
     70  CB        -6.4590   -1.8920  146.9980 C.3   163  ASN163      0.1195
     71  CG        -7.1490   -2.8490  146.0670 C.2   163  ASN163      0.2630
     72  OD1       -7.9680   -2.4310  145.2530 O.2   163  ASN163     -0.2716
     73  ND2       -6.7640   -4.1190  146.1190 N.am  163  ASN163     -0.0877
     74  N         -3.7880    0.2860  147.4070 N.am  164  TYR164     -0.1974
     75  CA        -3.2880    1.2550  148.3850 C.3   164  TYR164      0.1639
     76  C         -3.3660    2.6810  147.8170 C.2   164  TYR164      0.2290
     77  O         -3.5010    3.6600  148.5560 O.2   164  TYR164     -0.2864
     78  CB        -1.8670    0.8920  148.8340 C.3   164  TYR164      0.0560
     79  CG        -1.4700    1.5020  150.1630 C.ar  164  TYR164     -0.0198
     80  CD1       -2.2520    1.3220  151.3100 C.ar  164  TYR164     -0.0009
     81  CD2       -0.3290    2.2910  150.2710 C.ar  164  TYR164     -0.0009
     82  CE1       -1.8820    1.9020  152.5170 C.ar  164  TYR164      0.0417
     83  CE2        0.0650    2.8390  151.4980 C.ar  164  TYR164      0.0417
     84  CZ        -0.7100    2.6450  152.5990 C.ar  164  TYR164      0.1957
     85  OH        -0.2880    3.1550  153.8270 O.3   164  TYR164     -0.2866
     86  N         -3.0170    6.4970  149.1380 N.3   167  MET167     -0.1245
     87  CA        -2.2590    6.4600  150.4010 C.3   167  MET167      0.1570
     88  C         -0.7860    6.1170  150.1540 C.2   167  MET167      0.2261
     89  O          0.1190    6.5220  150.9180 O.2   167  MET167     -0.2867
     90  CB        -2.8690    5.4450  151.3620 C.3   167  MET167      0.0387
     91  CG        -2.2220    5.4750  152.7580 C.3   167  MET167      0.0595
     92  SD        -2.3710    7.1070  153.5100 S.3   167  MET167     -0.1393
     93  CE        -3.7050    6.8680  154.6830 C.3   167  MET167      0.0692
     94  N          2.4120    8.0550  151.3520 N.3   171  LYS171     -0.1245
     95  CA         3.5180    7.4480  152.1070 C.3   171  LYS171      0.1561
     96  C          4.8500    7.6930  151.4060 C.2   171  LYS171      0.2260
     97  O          5.8670    7.8910  152.0490 O.2   171  LYS171     -0.2867
     98  CB         3.2730    5.9410  152.3430 C.3   171  LYS171      0.0271
     99  CG         2.0620    5.6590  153.2220 C.3   171  LYS171      0.0035
    100  CD         2.1760    6.4470  154.5620 C.3   171  LYS171      0.0206
    101  CE         1.1880    5.9940  155.6400 C.3   171  LYS171      0.1093
    102  NZ         1.4460    6.6240  157.0300 N.3   171  LYS171     -0.1314
    103  N          1.0040   -5.0370  157.3670 N.2   199  PRO199     -0.2571
    104  CA        -0.4280   -4.8350  157.6870 C.3   199  PRO199      0.2026
    105  C         -0.8650   -5.3420  159.0710 C.2   199  PRO199      0.2683
    106  O         -0.5570   -6.4760  159.4600 O.2   199  PRO199     -0.2709
    107  CB        -1.1720   -5.5880  156.5820 C.2   199  PRO199      0.0085
    108  CG        -0.1070   -6.3010  155.7520 C.2   199  PRO199      0.0180
    109  CD         1.2630   -6.0050  156.2820 C.2   199  PRO199      0.0938
    110  N         -1.6060   -4.5060  159.7980 N.am  200  ILE200     -0.1973
    111  CA        -2.0970   -4.8200  161.1430 C.3   200  ILE200      0.1596
    112  C         -3.5950   -4.4850  161.2310 C.2   200  ILE200      0.2287
    113  O         -4.0120   -3.4180  160.7630 O.2   200  ILE200     -0.2864
    114  CB        -1.3270   -4.0230  162.2150 C.3   200  ILE200      0.0276
    115  CG1        0.1800   -4.3120  162.0750 C.3   200  ILE200      0.0022
    116  CG2       -1.8260   -4.3970  163.6120 C.3   200  ILE200      0.0022
    117  CD1        1.0770   -3.5900  163.0380 C.3   200  ILE200      0.0001
    118  N         -6.1510   -2.7820  162.5070 N.3   202  THR202     -0.1218
    119  CA        -6.4850   -1.6740  163.3850 C.3   202  THR202      0.1862
    120  C         -7.8660   -1.1700  162.9830 C.2   202  THR202      0.2287
    121  O         -8.4030   -1.6020  161.9690 O.2   202  THR202     -0.2866
    122  CB        -5.4600   -0.5530  163.1890 C.3   202  THR202      0.1770
    123  OG1       -5.5360   -0.0930  161.8310 O.3   202  THR202     -0.2211
    124  CG2       -4.0610   -1.0690  163.4660 C.3   202  THR202      0.0375
    125  N         -8.4650    1.6420  161.5490 N.3   204  SER204     -0.1202
    126  CA        -8.4040    2.2660  160.2290 C.3   204  SER204      0.2020
    127  C         -8.3750    1.2450  159.0880 C.2   204  SER204      0.2618
    128  O         -8.7760    1.5470  157.9620 O.2   204  SER204     -0.2717
    129  CB        -7.2220    3.2340  160.1080 C.3   204  SER204      0.2103
    130  OG        -5.9980    2.5270  159.9630 O.3   204  SER204     -0.2182
    131  N         -7.9320    0.0280  159.3860 N.am  205  ALA205     -0.1979
    132  CA        -7.7900   -0.9800  158.3380 C.3   205  ALA205      0.1597
    133  C         -9.1460   -1.5880  158.0530 C.2   205  ALA205      0.2287
    134  O         -9.3740   -2.1870  157.0020 O.2   205  ALA205     -0.2864
    135  CB        -6.7910   -2.0530  158.7420 C.3   205  ALA205      0.0319
    136  N        -11.1420   -1.1360  154.8390 N.3   208  VAL208     -0.1231
    137  CA       -10.1960   -0.8570  153.7510 C.3   208  VAL208      0.1692
    138  C        -10.0840   -2.0130  152.7380 C.2   208  VAL208      0.2593
    139  O         -9.7550   -3.1430  153.1150 O.2   208  VAL208     -0.2718
    140  CB        -8.7780   -0.4600  154.2370 C.3   208  VAL208      0.0266
    141  CG1       -7.8890   -0.1900  153.0420 C.3   208  VAL208      0.0020
    142  CG2       -8.8150    0.7540  155.1790 C.3   208  VAL208      0.0020
    143  N        -10.3100   -1.7220  151.4570 N.am  209  GLY209     -0.1942
    144  CA       -10.2040   -2.7160  150.3870 C.3   209  GLY209      0.2014
    145  C         -8.7690   -3.1460  150.1410 C.2   209  GLY209      0.2639
    146  O         -7.8420   -2.3430  150.3100 O.2   209  GLY209     -0.2714
    147  N         -8.5750   -4.4250  149.8140 N.am  210  GLY210     -0.1939
    148  CA        -7.2400   -5.0050  149.6110 C.3   210  GLY210      0.2014
    149  C         -6.5020   -5.5080  150.8480 C.2   210  GLY210      0.2638
    150  O         -5.4790   -6.1890  150.7400 O.2   210  GLY210     -0.2714
    151  N         -7.0190   -5.1850  152.0300 N.am  211  PHE211     -0.1973
    152  CA        -6.2940   -5.4230  153.2720 C.3   211  PHE211      0.1639
    153  C         -6.2290   -6.8990  153.6580 C.2   211  PHE211      0.2290
    154  O         -5.1320   -7.4400  153.8170 O.2   211  PHE211     -0.2864
    155  CB        -6.9190   -4.6310  154.4240 C.3   211  PHE211      0.0560
    156  CG        -6.2800   -4.8930  155.7440 C.ar  211  PHE211     -0.0200
    157  CD1       -5.0930   -4.2480  156.0980 C.ar  211  PHE211     -0.0042
    158  CD2       -6.8540   -5.7930  156.6350 C.ar  211  PHE211     -0.0042
    159  CE1       -4.4690   -4.5200  157.3140 C.ar  211  PHE211     -0.0003
    160  CE2       -6.2670   -6.0280  157.8660 C.ar  211  PHE211     -0.0003
    161  CZ        -5.0480   -5.4280  158.1960 C.ar  211  PHE211     -0.0000
    162  N         -4.0820   -9.1160  151.6160 N.3   214  ILE214     -0.1245
    163  CA        -2.6480   -8.9580  151.8180 C.3   214  ILE214      0.1561
    164  C         -2.1750   -9.6250  153.1070 C.2   214  ILE214      0.2260
    165  O         -1.0940  -10.2030  153.1140 O.2   214  ILE214     -0.2867
    166  CB        -2.1620   -7.4830  151.7200 C.3   214  ILE214      0.0252
    167  CG1       -0.6400   -7.4210  151.5350 C.3   214  ILE214      0.0019
    168  CG2       -2.5590   -6.6900  152.9540 C.3   214  ILE214      0.0019
    169  CD1       -0.1180   -7.5210  150.1050 C.3   214  ILE214      0.0001
@<TRIPOS>BOND
     1    65    63   am
     2    64    63    2
     3    63    62    1
     4    62    61    1
     5    61    58    1
     6    58    57    1
     7    58    59    1
     8    57    52   am
     9    72    71    2
    10    66    59   am
    11    66    67    1
    12    50    51    1
    13    52    53    2
    14    52    51    1
    15    59    60    2
    16    51    54    1
    17    71    73   am
    18    71    70    1
    19    67    70    1
    20    67    68    1
    21    33    32    2
    22    32    31    1
    23    68    74   am
    24    68    69    2
    25    74    75    1
    26    54    56    1
    27    54    55    1
    28    30    31    1
    29    76    75    1
    30    76    77    2
    31    31    34    1
    32    75    78    1
    33    78    79    1
    34    86    87    1
    35    25    24    2
    36    34    35    1
    37   148   147    1
    38   148   149    1
    39    37    35    1
    40   147   145   am
    41    24    23    1
    42   169   167    1
    43   145   146    2
    44   145   144    1
    45    35    36    1
    46    88    87    1
    47    88    89    2
    48    79    81   ar
    49    79    80   ar
    50    81    83   ar
    51   144   143    1
    52    87    90    1
    53   150   149    2
    54   149   151   am
    55    80    82   ar
    56    94    95    1
    57    23    22    1
    58    23    26    1
    59    90    91    1
    60    96    97    2
    61    96    95    1
    62   143   138   am
    63    83    84   ar
    64   167   166    1
    65   162   163    1
    66   166   163    1
    67   166   168    1
    68   163   164    1
    69    47    45   ar
    70    47    48   ar
    71   151   152    1
    72    49    48    1
    73    95    98    1
    74    21    18    1
    75    27    26    1
    76    27    28    1
    77    98    99    1
    78    28    29    1
    79    82    84   ar
    80    41    40    2
    81    45    43   ar
    82    84    85    1
    83    48    46   ar
    84   138   139    2
    85   138   137    1
    86    19    18    1
    87    19    20    2
    88    91    92    1
    89    18    17    1
    90   141   140    1
    91   164   165    2
    92    99   100    1
    93   152   153    1
    94   152   155    1
    95    40    39    1
    96    92    93    1
    97   153   154    2
    98   137   140    1
    99   137   136    1
   100    43    42    1
   101    43    44   ar
   102    46    44   ar
   103     9     8    2
   104   140   142    1
   105    17     8   am
   106   155   156    1
   107    42    39    1
   108   100   101    1
   109    39    38    1
   110    15    13   ar
   111    15    16   ar
   112     8     7    1
   113    13    11   ar
   114    16    14   ar
   115   101   102    1
   116   156   157   ar
   117   156   158   ar
   118   108   109    1
   119   108   107    2
   120   157   159   ar
   121   109   103    2
   122    11    10    1
   123    11    12   ar
   124     7     6    1
   125     7    10    1
   126    14    12   ar
   127   107   104    1
   128   158   160   ar
   129     6     3   am
   130   134   133    2
   131   159   161   ar
   132   103   104    1
   133   104   105    1
   134     5     2    1
   135   160   161   ar
   136   128   127    2
   137     3     2    1
   138     3     4    2
   139   133   132    1
   140     2     1    1
   141   132   135    1
   142   132   131    1
   143   105   106    2
   144   105   110   am
   145   127   131   am
   146   127   126    1
   147   110   111    1
   148   130   129    1
   149   129   126    1
   150   126   125    1
   151   113   112    2
   152   111   112    1
   153   111   114    1
   154   123   122    1
   155   121   120    2
   156   115   114    1
   157   115   117    1
   158   114   116    1
   159   118   119    1
   160   120   119    1
   161   122   119    1
   162   122   124    1
