@<TRIPOS>MOLECULE
tmp/4cv2B01.pdb
 107 105 0 0 0
SMALL
GASTEIGER

@<TRIPOS>ATOM
      1  N        -43.0530   48.7870  -21.8470 N.3    92  GLY92      -0.1210
      2  CA       -41.7930   48.1230  -22.1420 C.3    92  GLY92       0.1956
      3  C        -40.8050   49.2240  -22.4470 C.2    92  GLY92       0.2612
      4  O        -41.1890   50.3130  -22.9240 O.2    92  GLY92      -0.2717
      5  N        -39.5400   48.9400  -22.1690 N.am   93  PHE93      -0.1962
      6  CA       -38.4680   49.8600  -22.4700 C.3    93  PHE93       0.1771
      7  C        -37.1470   49.1120  -22.4500 C.2    93  PHE93       0.2619
      8  O        -36.9380   48.2700  -21.5760 O.2    93  PHE93      -0.2715
      9  CB       -38.4020   50.9800  -21.4250 C.3    93  PHE93       0.0574
     10  CG       -37.3540   52.0130  -21.7320 C.ar   93  PHE93      -0.0200
     11  CD1      -37.4750   52.8210  -22.8570 C.ar   93  PHE93      -0.0042
     12  CD2      -36.1980   52.1000  -20.9670 C.ar   93  PHE93      -0.0042
     13  CE1      -36.4840   53.7350  -23.1790 C.ar   93  PHE93      -0.0003
     14  CE2      -35.2000   53.0260  -21.2720 C.ar   93  PHE93      -0.0003
     15  CZ       -35.3370   53.8350  -22.3940 C.ar   93  PHE93      -0.0000
     16  N        -36.2880   49.3770  -23.4330 N.am   94  ALA94      -0.1977
     17  CA       -34.8480   49.1790  -23.2750 C.3    94  ALA94       0.1597
     18  C        -34.1250   50.3840  -23.9060 C.2    94  ALA94       0.2287
     19  O        -34.6340   50.9480  -24.8840 O.2    94  ALA94      -0.2864
     20  CB       -34.4090   47.8810  -23.9340 C.3    94  ALA94       0.0319
     21  N        -30.4130   48.0820  -28.8160 N.3    99  LEU99      -0.1245
     22  CA       -31.0280   47.4790  -30.0060 C.3    99  LEU99       0.1561
     23  C        -30.2230   47.6650  -31.3060 C.2    99  LEU99       0.2260
     24  O        -30.7230   47.4170  -32.4010 O.2    99  LEU99      -0.2867
     25  CB       -32.4720   47.9820  -30.1950 C.3    99  LEU99       0.0270
     26  CG       -33.5610   47.8160  -29.1230 C.3    99  LEU99       0.0019
     27  CD1      -33.2750   46.7250  -28.1180 C.3    99  LEU99       0.0001
     28  CD2      -33.8080   49.1370  -28.3990 C.3    99  LEU99       0.0001
     29  N        -43.7590   39.6710  -27.0620 N.3   145  TYR145     -0.1241
     30  CA       -43.3940   39.5740  -28.4800 C.3   145  TYR145      0.1605
     31  C        -42.5680   38.3010  -28.7130 C.2   145  TYR145      0.2264
     32  O        -41.9210   37.7860  -27.7970 O.2   145  TYR145     -0.2867
     33  CB       -42.6210   40.8290  -28.9020 C.3   145  TYR145      0.0534
     34  CG       -42.1300   40.7670  -30.3320 C.ar  145  TYR145     -0.0201
     35  CD1      -43.0490   40.6400  -31.3650 C.ar  145  TYR145     -0.0009
     36  CD2      -40.7590   40.7910  -30.6530 C.ar  145  TYR145     -0.0009
     37  CE1      -42.6310   40.5000  -32.6850 C.ar  145  TYR145      0.0417
     38  CE2      -40.3320   40.6260  -31.9960 C.ar  145  TYR145      0.0417
     39  CZ       -41.2870   40.4950  -32.9940 C.ar  145  TYR145      0.1957
     40  OH       -40.9230   40.3770  -34.3300 O.3   145  TYR145     -0.2866
     41  N        -34.2230   37.2040  -32.4980 N.3   152  ILE152     -0.1231
     42  CA       -34.5860   38.1540  -33.5530 C.3   152  ILE152      0.1678
     43  C        -33.5430   39.2680  -33.6070 C.2   152  ILE152      0.2434
     44  O        -33.2320   39.8550  -32.5790 O.2   152  ILE152     -0.2733
     45  CB       -35.9700   38.7500  -33.2770 C.3   152  ILE152      0.0265
     46  CG1      -36.9490   37.5940  -33.0090 C.3   152  ILE152      0.0019
     47  CG2      -36.3580   39.6930  -34.4180 C.3   152  ILE152      0.0020
     48  CD1      -38.3650   37.7840  -33.3510 C.3   152  ILE152      0.0001
     49  N        -32.9710   39.5450  -34.7990 N.am  153  PRO153     -0.2718
     50  CA       -31.9210   40.5560  -34.8990 C.3   153  PRO153      0.1535
     51  C        -32.3870   41.9220  -34.3860 C.2   153  PRO153      0.2599
     52  O        -33.5130   42.3460  -34.6530 O.2   153  PRO153     -0.2715
     53  CB       -31.6240   40.6130  -36.4060 C.3   153  PRO153      0.0310
     54  CG       -32.0200   39.2610  -36.9330 C.3   153  PRO153      0.0237
     55  CD       -33.1850   38.8340  -36.0720 C.3   153  PRO153      0.0939
     56  N        -31.5100   42.6070  -33.6540 N.am  154  ASN154     -0.1959
     57  CA       -31.7430   43.9580  -33.1140 C.3   154  ASN154      0.1819
     58  C        -32.6520   44.0050  -31.8980 C.2   154  ASN154      0.2621
     59  O        -32.4700   44.8870  -31.0610 O.2   154  ASN154     -0.2715
     60  CB       -32.2150   44.9600  -34.1690 C.3   154  ASN154      0.1195
     61  CG       -31.1990   45.1390  -35.2870 C.2   154  ASN154      0.2630
     62  OD1      -30.0130   45.4070  -35.0450 O.2   154  ASN154     -0.2716
     63  ND2      -31.6620   44.9730  -36.5250 N.am  154  ASN154     -0.0877
     64  N        -33.5450   43.0180  -31.7480 N.am  155  TYR155     -0.1974
     65  CA       -34.4580   43.0070  -30.6000 C.3   155  TYR155      0.1639
     66  C        -33.6600   42.7380  -29.3210 C.2   155  TYR155      0.2290
     67  O        -33.9490   43.2760  -28.2440 O.2   155  TYR155     -0.2864
     68  CB       -35.5730   41.9680  -30.7870 C.3   155  TYR155      0.0560
     69  CG       -36.7730   42.2030  -29.8720 C.ar  155  TYR155     -0.0198
     70  CD1      -37.5570   43.3450  -30.0030 C.ar  155  TYR155     -0.0009
     71  CD2      -37.1200   41.2680  -28.8910 C.ar  155  TYR155     -0.0009
     72  CE1      -38.6530   43.5570  -29.1920 C.ar  155  TYR155      0.0417
     73  CE2      -38.1990   41.4890  -28.0420 C.ar  155  TYR155      0.0417
     74  CZ       -38.9380   42.6560  -28.1960 C.ar  155  TYR155      0.1957
     75  OH       -39.9990   42.9020  -27.3710 O.3   155  TYR155     -0.2866
     76  N        -34.1100   42.9770  -25.2190 N.3   158  MET158     -0.1245
     77  CA       -35.5610   43.0680  -25.0120 C.3   158  MET158      0.1570
     78  C        -36.2070   41.6610  -25.1350 C.2   158  MET158      0.2261
     79  O        -37.1720   41.3470  -24.4380 O.2   158  MET158     -0.2867
     80  CB       -36.0550   44.0930  -26.0520 C.3   158  MET158      0.0387
     81  CG       -37.3230   44.8610  -25.8340 C.3   158  MET158      0.0595
     82  SD       -37.5640   45.4430  -24.1390 S.3   158  MET158     -0.1393
     83  CE       -38.8630   44.3910  -23.7970 C.3   158  MET158      0.0692
     84  N        -38.5290   39.9710  -22.3020 N.3   162  LYS162     -0.1245
     85  CA       -39.8630   39.4200  -22.5850 C.3   162  LYS162      0.1561
     86  C        -39.9290   37.9480  -22.1500 C.2   162  LYS162      0.2260
     87  O        -40.9810   37.4740  -21.7470 O.2   162  LYS162     -0.2867
     88  CB       -40.1970   39.5360  -24.0760 C.3   162  LYS162      0.0271
     89  CG       -40.4850   40.9450  -24.5800 C.3   162  LYS162      0.0035
     90  CD       -41.5200   41.6710  -23.6880 C.3   162  LYS162      0.0206
     91  CE       -42.0340   42.8800  -24.4760 C.3   162  LYS162      0.1093
     92  NZ       -43.0950   43.6550  -23.7220 N.3   162  LYS162     -0.1314
     93  N        -45.8270   42.4120  -34.8660 N.3   190  PRO190     -0.2102
     94  CA       -45.3990   43.8110  -34.9340 C.3   190  PRO190      0.1504
     95  C        -46.4870   44.7250  -35.5060 C.2   190  PRO190      0.2575
     96  O        -47.2870   44.3090  -36.3660 O.2   190  PRO190     -0.2718
     97  CB       -44.1790   43.7600  -35.8660 C.3   190  PRO190      0.0282
     98  CG       -44.4160   42.5350  -36.6980 C.3   190  PRO190      0.0208
     99  CD       -44.9910   41.5520  -35.7260 C.3   190  PRO190      0.0893
    100  N        -46.5430   45.9490  -34.9800 N.am  191  ILE191     -0.1980
    101  CA       -47.6690   46.8340  -35.2550 C.3   191  ILE191      0.1595
    102  C        -47.3190   48.0150  -36.1670 C.2   191  ILE191      0.2287
    103  O        -46.4900   48.8570  -35.8080 O.2   191  ILE191     -0.2864
    104  CB       -48.2830   47.3420  -33.9430 C.3   191  ILE191      0.0276
    105  CG1      -48.8320   46.1410  -33.1660 C.3   191  ILE191      0.0022
    106  CG2      -49.3580   48.3930  -34.2440 C.3   191  ILE191      0.0022
    107  CD1      -50.3490   46.0400  -33.1020 C.3   191  ILE191      0.0001
@<TRIPOS>BOND
     1    54    53    1
     2    54    55    1
     3    98    97    1
     4    98    99    1
     5    63    61   am
     6    53    50    1
     7    96    95    2
     8   102   103    2
     9   102   101    1
    10    55    49    1
    11    97    94    1
    12    99    93    1
    13    95   100   am
    14    95    94    1
    15    61    62    2
    16    61    60    1
    17   101   100    1
    18   101   104    1
    19    94    93    1
    20    50    49    1
    21    50    51    1
    22    49    43   am
    23    52    51    2
    24    47    45    1
    25    51    56   am
    26    40    39    1
    27   106   104    1
    28    60    57    1
    29   104   105    1
    30    56    57    1
    31    43    42    1
    32    43    44    2
    33    42    45    1
    34    42    41    1
    35    48    46    1
    36    45    46    1
    37   105   107    1
    38    57    58    1
    39    39    37   ar
    40    39    38   ar
    41    37    35   ar
    42    24    23    2
    43    38    36   ar
    44    58    64   am
    45    58    59    2
    46    64    65    1
    47    35    34   ar
    48    23    22    1
    49    68    65    1
    50    68    69    1
    51    36    34   ar
    52    65    66    1
    53    34    33    1
    54    25    22    1
    55    25    26    1
    56    22    21    1
    57    70    69   ar
    58    70    72   ar
    59    69    71   ar
    60    66    67    2
    61    72    74   ar
    62    26    28    1
    63    26    27    1
    64    33    30    1
    65    71    73   ar
    66    31    30    1
    67    31    32    2
    68    30    29    1
    69    74    73   ar
    70    74    75    1
    71    80    81    1
    72    80    77    1
    73    81    82    1
    74    76    77    1
    75    78    77    1
    76    78    79    2
    77    19    18    2
    78    89    88    1
    79    89    90    1
    80    91    92    1
    81    91    90    1
    82    82    83    1
    83    88    85    1
    84    20    17    1
    85    18    17    1
    86    16    17    1
    87    16     7   am
    88    13    11   ar
    89    13    15   ar
    90     4     3    2
    91    11    10   ar
    92    85    84    1
    93    85    86    1
    94     6     7    1
    95     6     5    1
    96     6     9    1
    97     7     8    2
    98     3     5   am
    99     3     2    1
   100    15    14   ar
   101    86    87    2
   102     2     1    1
   103    10     9    1
   104    10    12   ar
   105    14    12   ar
