@<TRIPOS>MOLECULE
tmp/4cv3A00.pdb
 105 101 0 0 0
SMALL
GASTEIGER

@<TRIPOS>ATOM
      1  N        -27.4440   30.4840  -10.3970 N.3    92  GLY92      -0.1210
      2  CA       -28.8050   30.9800  -10.1770 C.3    92  GLY92       0.1956
      3  C        -28.9150   31.4900   -8.7600 C.2    92  GLY92       0.2612
      4  O        -28.2620   30.9950   -7.8340 O.2    92  GLY92      -0.2717
      5  N        -29.7790   32.4790   -8.5770 N.am   93  PHE93      -0.1962
      6  CA       -30.0260   32.9780   -7.2420 C.3    93  PHE93       0.1771
      7  C        -31.3320   33.7690   -7.2400 C.2    93  PHE93       0.2619
      8  O        -31.5370   34.6050   -8.1160 O.2    93  PHE93      -0.2715
      9  CB       -28.9060   33.9140   -6.7950 C.3    93  PHE93       0.0574
     10  CG       -29.1360   34.4810   -5.3980 C.ar   93  PHE93      -0.0200
     11  CD1      -29.0250   33.6440   -4.2620 C.ar   93  PHE93      -0.0042
     12  CD2      -29.3800   35.8450   -5.2050 C.ar   93  PHE93      -0.0042
     13  CE1      -29.2150   34.1490   -2.9600 C.ar   93  PHE93      -0.0003
     14  CE2      -29.5510   36.3640   -3.9270 C.ar   93  PHE93      -0.0003
     15  CZ       -29.5130   35.5170   -2.7940 C.ar   93  PHE93      -0.0000
     16  N        -32.0720   33.6660   -6.1370 N.am   94  ALA94      -0.1977
     17  CA       -33.1110   34.6260   -5.7710 C.3    94  ALA94       0.1597
     18  C        -33.0640   34.7440   -4.2410 C.2    94  ALA94       0.2287
     19  O        -32.8160   33.7460   -3.5760 O.2    94  ALA94      -0.2864
     20  CB       -34.5030   34.1060   -6.2540 C.3    94  ALA94       0.0319
     21  N        -39.0420   32.7680   -2.4890 N.3    99  LEU99      -0.1245
     22  CA       -39.3050   31.3720   -2.8450 C.3    99  LEU99       0.1561
     23  C        -40.2100   30.6280   -1.8610 C.2    99  LEU99       0.2260
     24  O        -40.1150   29.4100   -1.7450 O.2    99  LEU99      -0.2867
     25  CB       -37.9800   30.6120   -3.0270 C.3    99  LEU99       0.0270
     26  CG       -36.9540   31.2870   -3.9370 C.3    99  LEU99       0.0019
     27  CD1      -35.5420   30.6920   -3.7590 C.3    99  LEU99       0.0001
     28  CD2      -37.3930   31.2870   -5.4130 C.3    99  LEU99       0.0001
     29  N        -34.9730   25.5300  -16.0680 N.3   145  TYR145     -0.1241
     30  CA       -35.8370   24.6260  -15.3370 C.3   145  TYR145      0.1605
     31  C        -37.2340   24.8730  -15.9190 C.2   145  TYR145      0.2264
     32  O        -37.5350   25.9360  -16.4700 O.2   145  TYR145     -0.2867
     33  CB       -35.7510   24.9110  -13.8270 C.3   145  TYR145      0.0534
     34  CG       -36.6690   24.0310  -13.0290 C.ar  145  TYR145     -0.0201
     35  CD1      -36.6130   22.6500  -13.1870 C.ar  145  TYR145     -0.0009
     36  CD2      -37.7440   24.5770  -12.2990 C.ar  145  TYR145     -0.0009
     37  CE1      -37.5300   21.8390  -12.6040 C.ar  145  TYR145      0.0417
     38  CE2      -38.6660   23.7590  -11.6550 C.ar  145  TYR145      0.0417
     39  CZ       -38.5660   22.3810  -11.8600 C.ar  145  TYR145      0.1957
     40  OH       -39.4800   21.4910  -11.3290 O.3   145  TYR145     -0.2866
     41  N        -45.0490   26.9820  -11.2610 N.3   152  ILE152     -0.1231
     42  CA       -44.7370   25.9660  -10.2380 C.3   152  ILE152      0.1678
     43  C        -44.8140   26.6550   -8.8910 C.2   152  ILE152      0.2434
     44  O        -44.2520   27.7230   -8.7230 O.2   152  ILE152     -0.2733
     45  CB       -43.3140   25.4310  -10.4850 C.3   152  ILE152      0.0265
     46  CG1      -43.2070   24.8960  -11.9400 C.3   152  ILE152      0.0019
     47  CG2      -42.9050   24.4310   -9.3860 C.3   152  ILE152      0.0020
     48  CD1      -41.9870   24.1140  -12.2410 C.3   152  ILE152      0.0001
     49  N        -45.5180   26.0580   -7.9160 N.am  153  PRO153     -0.2729
     50  CA       -45.6400   26.7300   -6.6150 C.3   153  PRO153      0.1401
     51  C        -44.2610   26.9380   -6.0030 C.2   153  PRO153      0.2269
     52  O        -43.3790   26.1000   -6.2230 O.2   153  PRO153     -0.2865
     53  CB       -46.4280   25.7150   -5.7790 C.3   153  PRO153      0.0296
     54  CG       -47.2990   25.0480   -6.7920 C.3   153  PRO153      0.0237
     55  CD       -46.3900   24.8730   -8.0040 C.3   153  PRO153      0.0939
     56  N        -41.5810   28.2240   -6.6610 N.3   155  TYR155     -0.1241
     57  CA       -40.4260   28.6010   -7.5170 C.3   155  TYR155      0.1605
     58  C        -40.5290   30.0900   -7.8710 C.2   155  TYR155      0.2264
     59  O        -39.5390   30.7770   -8.0720 O.2   155  TYR155     -0.2867
     60  CB       -40.4130   27.7500   -8.7980 C.3   155  TYR155      0.0534
     61  CG       -39.1020   27.7610   -9.5570 C.ar  155  TYR155     -0.0201
     62  CD1      -37.9500   27.2320   -8.9860 C.ar  155  TYR155     -0.0009
     63  CD2      -39.0220   28.3090  -10.8420 C.ar  155  TYR155     -0.0009
     64  CE1      -36.7640   27.2140   -9.6950 C.ar  155  TYR155      0.0417
     65  CE2      -37.8490   28.3050  -11.5680 C.ar  155  TYR155      0.0417
     66  CZ       -36.7220   27.7330  -10.9830 C.ar  155  TYR155      0.1957
     67  OH       -35.5350   27.7080  -11.6520 O.3   155  TYR155     -0.2866
     68  N        -38.2730   33.0920   -9.6190 N.3   158  MET158     -0.1245
     69  CA       -37.2800   32.3070  -10.3910 C.3   158  MET158      0.1570
     70  C        -37.8150   31.7300  -11.7240 C.2   158  MET158      0.2261
     71  O        -37.0920   31.6590  -12.7270 O.2   158  MET158     -0.2867
     72  CB       -36.6990   31.2370   -9.4980 C.3   158  MET158      0.0387
     73  CG       -35.3590   30.8460   -9.9910 C.3   158  MET158      0.0595
     74  SD       -34.0860   32.1140   -9.6340 S.3   158  MET158     -0.1393
     75  CE       -33.0290   30.8700  -10.3050 C.3   158  MET158      0.0692
     76  N        -35.9120   32.4270  -15.2240 N.3   162  LYS162     -0.1245
     77  CA       -35.5850   31.3620  -16.1690 C.3   162  LYS162      0.1561
     78  C        -36.2170   31.5950  -17.5610 C.2   162  LYS162      0.2260
     79  O        -35.5710   31.3560  -18.6050 O.2   162  LYS162     -0.2867
     80  CB       -35.9390   29.9630  -15.6160 C.3   162  LYS162      0.0271
     81  CG       -35.1420   29.5400  -14.3470 C.3   162  LYS162      0.0035
     82  CD       -33.6040   29.5800  -14.5880 C.3   162  LYS162      0.0206
     83  CE       -32.8860   28.7140  -13.5180 C.3   162  LYS162      0.1093
     84  NZ       -31.3890   28.6720  -13.7380 N.3   162  LYS162     -0.1314
     85  N        -35.5440   18.2460  -11.7620 N.3   190  PRO190     -0.2102
     86  CA       -35.0560   18.4770  -10.4120 C.3   190  PRO190      0.1504
     87  C        -34.0760   17.4090   -9.9450 C.2   190  PRO190      0.2575
     88  O        -34.2920   16.1900  -10.1450 O.2   190  PRO190     -0.2718
     89  CB       -36.3070   18.4110   -9.5400 C.3   190  PRO190      0.0282
     90  CG       -37.4910   18.3050  -10.5140 C.3   190  PRO190      0.0208
     91  CD       -36.9590   17.8120  -11.7810 C.3   190  PRO190      0.0893
     92  N        -33.0230   17.8550   -9.2730 N.am  191  ILE191     -0.1980
     93  CA       -31.8980   16.9440   -9.0050 C.3   191  ILE191      0.1595
     94  C        -32.1620   16.1200   -7.7280 C.2   191  ILE191      0.2287
     95  O        -32.4390   16.7240   -6.6940 O.2   191  ILE191     -0.2864
     96  CB       -30.5610   17.7310   -8.9200 C.3   191  ILE191      0.0276
     97  CG1      -30.1560   18.2570  -10.3030 C.3   191  ILE191      0.0022
     98  CG2      -29.4520   16.8660   -8.3230 C.3   191  ILE191      0.0022
     99  CD1      -30.1810   17.1640  -11.3700 C.3   191  ILE191      0.0001
    100  N        -42.8180   12.3050   -7.9730 N.3   192  CYS192     -0.1235
    101  CA       -42.8430   12.8380   -9.3390 C.3   192  CYS192      0.1677
    102  C        -41.9940   11.9940  -10.3050 C.2   192  CYS192      0.2270
    103  O        -42.0430   12.1830  -11.5190 O.2   192  CYS192     -0.2867
    104  CB       -42.4620   14.3300   -9.3590 C.3   192  CYS192      0.0956
    105  SG       -43.9180   15.4360   -9.2250 S.3   192  CYS192     -0.0801
@<TRIPOS>BOND
     1    79    78    2
     2    78    77    1
     3    32    31    2
     4    77    80    1
     5    77    76    1
     6    29    30    1
     7    31    30    1
     8    80    81    1
     9    30    33    1
    10    82    81    1
    11    82    83    1
    12    33    34    1
    13    84    83    1
    14    35    34   ar
    15    35    37   ar
    16    34    36   ar
    17    71    70    2
    18    37    39   ar
    19    36    38   ar
    20    48    46    1
    21    46    45    1
    22    39    38   ar
    23    39    40    1
    24    91    85    1
    25    91    90    1
    26    85    86    1
    27    70    69    1
    28    67    66    1
    29    65    66   ar
    30    65    63   ar
    31   103   102    2
    32    99    97    1
    33    41    42    1
    34    66    64   ar
    35    63    61   ar
    36    90    89    1
    37    45    42    1
    38    45    47    1
    39    86    87    1
    40    86    89    1
    41     1     2    1
    42    69    68    1
    43    69    72    1
    44    75    74    1
    45   102   101    1
    46    97    96    1
    47    42    43    1
    48     2     3    1
    49    88    87    2
    50    73    74    1
    51    73    72    1
    52    87    92   am
    53    64    62   ar
    54    61    62   ar
    55    61    60    1
    56   104   101    1
    57   104   105    1
    58   101   100    1
    59    92    93    1
    60    93    96    1
    61    93    94    1
    62    96    98    1
    63    43    44    2
    64    43    49   am
    65    60    57    1
    66     3     5   am
    67     3     4    2
    68     5     6    1
    69     8     7    2
    70    59    58    2
    71    55    49    1
    72    55    54    1
    73    49    50    1
    74    58    57    1
    75    94    95    2
    76    57    56    1
    77     6     7    1
    78     6     9    1
    79     7    16   am
    80     9    10    1
    81    54    53    1
    82    50    51    1
    83    50    53    1
    84    20    17    1
    85    52    51    2
    86    16    17    1
    87    17    18    1
    88    28    26    1
    89    10    12   ar
    90    10    11   ar
    91    12    14   ar
    92    11    13   ar
    93    18    19    2
    94    26    27    1
    95    26    25    1
    96    14    15   ar
    97    25    22    1
    98    13    15   ar
    99    22    21    1
   100    22    23    1
   101    23    24    2
