@<TRIPOS>MOLECULE
tmp/4cv8A00.pdb
 129 116 0 0 0
SMALL
GASTEIGER

@<TRIPOS>ATOM
      1  N          5.2670  -17.5020  -51.2470 N.3    16  ILE16      -0.1245
      2  CA         4.0480  -17.0240  -50.6230 C.3    16  ILE16       0.1561
      3  C          4.3700  -15.8750  -49.6620 C.2    16  ILE16       0.2260
      4  O          3.9940  -14.7320  -49.9180 O.2    16  ILE16      -0.2867
      5  CB         3.3020  -18.2110  -49.9470 C.3    16  ILE16       0.0252
      6  CG1        2.8490  -19.2590  -50.9920 C.3    16  ILE16       0.0019
      7  CG2        2.1270  -17.7320  -49.0760 C.3    16  ILE16       0.0019
      8  CD1        2.8120  -20.7130  -50.4520 C.3    16  ILE16       0.0001
      9  N          8.3190  -18.6750  -47.1360 N.3    24  VAL24      -0.1245
     10  CA         7.4160  -19.7940  -47.4170 C.3    24  VAL24       0.1561
     11  C          7.3110  -19.9160  -48.9350 C.2    24  VAL24       0.2260
     12  O          7.1630  -18.9010  -49.6200 O.2    24  VAL24      -0.2867
     13  CB         6.0180  -19.6560  -46.7490 C.3    24  VAL24       0.0252
     14  CG1        5.1420  -20.8690  -47.0370 C.3    24  VAL24       0.0019
     15  CG2        6.1310  -19.4440  -45.2520 C.3    24  VAL24       0.0019
     16  N          3.6750  -26.7910  -49.2400 N.3    36  ALA36      -0.1245
     17  CA         4.1950  -25.4810  -48.8820 C.3    36  ALA36       0.1562
     18  C          5.3690  -25.7220  -47.9810 C.2    36  ALA36       0.2260
     19  O          5.2470  -26.4440  -46.9760 O.2    36  ALA36      -0.2867
     20  CB         3.1430  -24.6560  -48.1600 C.3    36  ALA36       0.0290
     21  N          8.2210  -24.1060  -45.5430 N.3    38  LYS38      -0.1245
     22  CA         8.6690  -22.9800  -44.7440 C.3    38  LYS38       0.1561
     23  C         10.1670  -23.1670  -44.5900 C.2    38  LYS38       0.2260
     24  O         10.6380  -24.2640  -44.2700 O.2    38  LYS38      -0.2867
     25  CB         7.9930  -22.9320  -43.3690 C.3    38  LYS38       0.0271
     26  CG         8.0490  -21.5440  -42.7570 C.3    38  LYS38       0.0035
     27  CD         7.7060  -21.5580  -41.2910 C.3    38  LYS38       0.0206
     28  CE         7.5700  -20.1650  -40.7450 C.3    38  LYS38       0.1093
     29  NZ         7.0670  -20.1950  -39.3520 N.3    38  LYS38      -0.1314
     30  N          7.8810  -24.3380  -31.2080 N.3    56  GLU56      -0.1245
     31  CA         6.7870  -24.3150  -32.1760 C.3    56  GLU56       0.1567
     32  C          6.7290  -25.6280  -32.9980 C.2    56  GLU56       0.2260
     33  O          5.6540  -26.2210  -33.0400 O.2    56  GLU56      -0.2867
     34  CB         6.7940  -23.0510  -33.0600 C.3    56  GLU56       0.0388
     35  CG         5.5770  -23.0790  -33.9910 C.3    56  GLU56       0.1160
     36  CD         5.6540  -21.8620  -34.9180 C.2    56  GLU56       0.3649
     37  OE1        6.6870  -21.5750  -35.5550 O.co2  56  GLU56      -0.2457
     38  OE2        4.6350  -21.1880  -35.0940 O.co2  56  GLU56      -0.2457
     39  N          3.5900  -28.1370  -32.9400 N.3    60  LEU60      -0.1245
     40  CA         2.9810  -28.3260  -34.2490 C.3    60  LEU60       0.1561
     41  C          3.0440  -29.7860  -34.6890 C.2    60  LEU60       0.2260
     42  O          2.1420  -30.2330  -35.3780 O.2    60  LEU60      -0.2867
     43  CB         3.5520  -27.3740  -35.3040 C.3    60  LEU60       0.0270
     44  CG         2.9110  -27.4880  -36.6910 C.3    60  LEU60       0.0019
     45  CD1        1.4740  -26.9880  -36.6790 C.3    60  LEU60       0.0001
     46  CD2        3.7630  -26.8440  -37.7620 C.3    60  LEU60       0.0001
     47  N         -2.7310  -26.9230  -38.9680 N.3    71  ILE71      -0.1245
     48  CA        -1.9870  -27.1400  -40.1980 C.3    71  ILE71       0.1561
     49  C         -1.1540  -28.4350  -40.1690 C.2    71  ILE71       0.2260
     50  O         -0.4940  -28.7520  -39.1740 O.2    71  ILE71      -0.2867
     51  CB        -1.1630  -25.8930  -40.6100 C.3    71  ILE71       0.0252
     52  CG1       -0.6730  -25.9530  -42.0780 C.3    71  ILE71       0.0019
     53  CG2       -0.0130  -25.6050  -39.6580 C.3    71  ILE71       0.0019
     54  CD1       -1.6700  -25.6900  -43.0670 C.3    71  ILE71       0.0001
     55  N         10.3900  -27.0330  -43.2570 N.3    85  MET85      -0.1245
     56  CA         9.1250  -27.5950  -42.7890 C.3    85  MET85       0.1570
     57  C          8.2680  -27.8380  -44.0190 C.2    85  MET85       0.2261
     58  O          8.0050  -26.8980  -44.7730 O.2    85  MET85      -0.2867
     59  CB         8.4150  -26.6240  -41.8320 C.3    85  MET85       0.0387
     60  CG         9.0330  -26.5700  -40.4640 C.3    85  MET85       0.0595
     61  SD         8.6920  -25.0470  -39.5290 S.3    85  MET85      -0.1393
     62  CE         6.9100  -25.1660  -39.2890 C.3    85  MET85       0.0692
     63  N          4.7290  -28.6320  -45.2150 N.3    87  MET87      -0.1230
     64  CA         3.3480  -28.5840  -44.7370 C.3    87  MET87       0.1702
     65  C          2.3440  -28.6600  -45.8630 C.2    87  MET87       0.2595
     66  O          2.7390  -28.6400  -47.0340 O.2    87  MET87      -0.2718
     67  CB         3.1190  -27.2960  -43.9430 C.3    87  MET87       0.0401
     68  CG         3.8850  -27.2500  -42.6540 C.3    87  MET87       0.0596
     69  SD         4.0560  -25.5580  -42.0740 S.3    87  MET87      -0.1393
     70  CE         4.7550  -24.7650  -43.5380 C.3    87  MET87       0.0692
     71  N          1.0440  -28.7420  -45.5130 N.am   88  GLU88      -0.1920
     72  CA        -0.0130  -28.7660  -46.4960 C.3    88  GLU88       0.1949
     73  C         -0.2060  -27.3580  -47.1020 C.2    88  GLU88       0.2659
     74  O          0.1100  -26.3480  -46.4580 O.2    88  GLU88      -0.2711
     75  CB        -1.2950  -29.4060  -45.9300 C.2    88  GLU88       0.0111
     76  CG        -2.2160  -28.4730  -45.1560 C.2    88  GLU88       0.0838
     77  CD        -3.4300  -29.0910  -44.4830 C.2    88  GLU88       0.3877
     78  OE1       -4.3000  -29.6360  -45.2000 O.co2  88  GLU88      -0.2406
     79  OE2       -3.5270  -28.9940  -43.2370 O.co2  88  GLU88      -0.2406
     80  N         -0.6580  -27.3150  -48.3710 N.am   89  CYS89      -0.1951
     81  CA        -0.8630  -26.0940  -49.1420 C.3    89  CYS89       0.1843
     82  C         -2.3380  -25.7010  -49.1400 C.2    89  CYS89       0.2626
     83  O         -3.2080  -26.4820  -49.5620 O.2    89  CYS89      -0.2714
     84  CB        -0.3200  -26.2610  -50.5620 C.3    89  CYS89       0.0997
     85  SG        -0.0420  -24.7010  -51.4520 S.3    89  CYS89      -0.0797
     86  N         -2.5910  -24.4960  -48.6390 N.am   90  GLY90      -0.1954
     87  CA        -3.9180  -23.9170  -48.5390 C.3    90  GLY90       0.1869
     88  C         -4.2820  -23.0890  -49.7440 C.2    90  GLY90       0.2309
     89  O         -3.4070  -22.6710  -50.5070 O.2    90  GLY90      -0.2863
     90  N         -5.2300  -17.3200  -47.1960 N.3    93  ASP93      -0.1239
     91  CA        -5.2570  -16.9900  -45.7620 C.3    93  ASP93       0.1674
     92  C         -6.5670  -16.2860  -45.4390 C.2    93  ASP93       0.2266
     93  O         -7.1670  -15.6960  -46.3330 O.2    93  ASP93      -0.2867
     94  CB        -4.0300  -16.1610  -45.3020 C.3    93  ASP93       0.1410
     95  CG        -3.9310  -14.7270  -45.8130 C.2    93  ASP93       0.3668
     96  OD1       -3.3270  -14.5210  -46.8890 O.co2  93  ASP93      -0.2456
     97  OD2       -4.3440  -13.8040  -45.0780 O.co2  93  ASP93      -0.2456
     98  N         -5.9490  -20.3250  -42.2240 N.3   139  LEU139     -0.1245
     99  CA        -5.7510  -20.6080  -43.6240 C.3   139  LEU139      0.1561
    100  C         -6.8260  -21.5550  -44.1510 C.2   139  LEU139      0.2260
    101  O         -7.0160  -22.6230  -43.5780 O.2   139  LEU139     -0.2867
    102  CB        -4.3580  -21.2500  -43.7090 C.3   139  LEU139      0.0270
    103  CG        -3.8850  -21.6820  -45.0550 C.3   139  LEU139      0.0019
    104  CD1       -3.1320  -20.5560  -45.7310 C.3   139  LEU139      0.0001
    105  CD2       -3.0420  -22.9110  -44.9410 C.3   139  LEU139      0.0001
    106  N         -2.2610  -22.0840  -38.4070 N.3   148  ILE148     -0.1231
    107  CA        -0.8890  -22.2260  -38.8810 C.3   148  ILE148      0.1692
    108  C          0.0870  -21.8360  -37.7810 C.2   148  ILE148      0.2592
    109  O          1.0530  -22.5580  -37.5570 O.2   148  ILE148     -0.2718
    110  CB        -0.6240  -21.5310  -40.2620 C.3   148  ILE148      0.0266
    111  CG1       -0.9770  -20.0270  -40.2700 C.3   148  ILE148      0.0019
    112  CG2       -1.3920  -22.2570  -41.3750 C.3   148  ILE148      0.0020
    113  CD1       -0.1890  -19.1820  -41.1920 C.3   148  ILE148      0.0001
    114  N         -0.2280  -20.7680  -37.0230 N.am  149  ASP149     -0.1974
    115  CA         0.5840  -20.2500  -35.9220 C.3   149  ASP149      0.1709
    116  C          0.0410  -20.6210  -34.5270 C.2   149  ASP149      0.2293
    117  O         -1.1420  -20.4600  -34.2670 O.2   149  ASP149     -0.2864
    118  CB         0.6660  -18.7120  -36.0520 C.3   149  ASP149      0.1436
    119  CG         1.8200  -17.9970  -35.3400 C.2   149  ASP149      0.3671
    120  OD1        2.6910  -18.6950  -34.7360 O.co2 149  ASP149     -0.2456
    121  OD2        1.8760  -16.7410  -35.4090 O.co2 149  ASP149     -0.2456
    122  N          5.5940  -15.3070  -39.6930 N.3   156  MET156     -0.1245
    123  CA         6.0940  -14.8940  -41.0150 C.3   156  MET156      0.1570
    124  C          5.2500  -13.7940  -41.6800 C.2   156  MET156      0.2261
    125  O          4.0210  -13.8610  -41.7030 O.2   156  MET156     -0.2867
    126  CB         6.2620  -16.1060  -41.9500 C.3   156  MET156      0.0387
    127  CG         4.9810  -16.7660  -42.3360 C.3   156  MET156      0.0595
    128  SD         4.5670  -16.3600  -44.1040 S.3   156  MET156     -0.1393
    129  CE         3.2570  -17.6300  -44.3180 C.3   156  MET156      0.0692
@<TRIPOS>BOND
     1    85    84    1
     2     1     2    1
     3     6     8    1
     4     6     5    1
     5     2     5    1
     6     2     3    1
     7    84    81    1
     8    89    88    2
     9     5     7    1
    10     4     3    2
    11    88    87    1
    12    12    11    2
    13    83    82    2
    14    16    17    1
    15    81    82    1
    16    81    80    1
    17    82    86   am
    18    11    10    1
    19    17    20    1
    20    17    18    1
    21    86    87    1
    22    80    73   am
    23    18    19    2
    24    10     9    1
    25    10    13    1
    26    90    91    1
    27    73    72    1
    28    73    74    2
    29    14    13    1
    30    66    65    2
    31    96    95   ar
    32    13    15    1
    33    72    75    1
    34    72    71    1
    35    93    92    2
    36    75    76    2
    37    65    71   am
    38    65    64    1
    39    95    94    1
    40    95    97   ar
    41    91    92    1
    42    91    94    1
    43   104   103    1
    44    21    22    1
    45    63    64    1
    46    78    77   ar
    47    76    77    1
    48   103   105    1
    49   103   102    1
    50    58    57    2
    51    22    23    1
    52    22    25    1
    53    64    67    1
    54    23    24    2
    55    77    79   ar
    56   129   128    1
    57   100    99    1
    58   100   101    2
    59   128   127    1
    60    57    56    1
    61    67    68    1
    62   102    99    1
    63    99    98    1
    64    70    69    1
    65    25    26    1
    66    55    56    1
    67    54    52    1
    68    56    59    1
    69    26    27    1
    70    68    69    1
    71   127   126    1
    72    52    51    1
    73   126   123    1
    74    59    60    1
    75   125   124    2
    76   124   123    1
    77   112   110    1
    78    27    28    1
    79   113   111    1
    80   123   122    1
    81    28    29    1
    82    51    48    1
    83    51    53    1
    84    60    61    1
    85   111   110    1
    86   110   107    1
    87    48    49    1
    88    48    47    1
    89    49    50    2
    90    61    62    1
    91   107   106    1
    92   107   108    1
    93   108   109    2
    94   108   114   am
    95    46    44    1
    96   114   115    1
    97    44    45    1
    98    44    43    1
    99   118   115    1
   100   118   119    1
   101   115   116    1
   102    37    36   ar
   103   121   119   ar
   104    42    41    2
   105   119   120   ar
   106    43    40    1
   107    38    36   ar
   108    36    35    1
   109    41    40    1
   110   116   117    2
   111    40    39    1
   112    35    34    1
   113    34    31    1
   114    33    32    2
   115    32    31    1
   116    31    30    1
