@<TRIPOS>MOLECULE
tmp/4cv9A00.pdb
 152 139 0 0 0
SMALL
GASTEIGER

@<TRIPOS>ATOM
      1  N          5.0200  -16.9550  -51.0080 N.3    17  ILE17      -0.1245
      2  CA         3.8370  -16.4570  -50.3200 C.3    17  ILE17       0.1561
      3  C          4.2570  -15.3320  -49.3700 C.2    17  ILE17       0.2260
      4  O          3.8160  -14.1930  -49.5100 O.2    17  ILE17      -0.2867
      5  CB         3.1580  -17.5960  -49.4990 C.3    17  ILE17       0.0252
      6  CG1        2.6330  -18.7420  -50.3640 C.3    17  ILE17       0.0019
      7  CG2        2.0800  -17.0380  -48.6150 C.3    17  ILE17       0.0019
      8  CD1        2.5750  -20.0620  -49.5810 C.3    17  ILE17       0.0001
      9  N          8.0820  -18.0970  -46.8340 N.3    25  VAL25      -0.1245
     10  CA         7.1080  -19.1700  -47.0510 C.3    25  VAL25       0.1561
     11  C          6.9380  -19.3250  -48.5780 C.2    25  VAL25       0.2260
     12  O          6.7720  -18.3300  -49.2940 O.2    25  VAL25      -0.2867
     13  CB         5.7550  -18.9710  -46.2700 C.3    25  VAL25       0.0252
     14  CG1        4.7130  -20.0210  -46.6390 C.3    25  VAL25       0.0019
     15  CG2        5.9860  -18.9810  -44.7680 C.3    25  VAL25       0.0019
     16  N          5.1350  -21.7000  -51.9450 N.3    27  GLN27      -0.1245
     17  CA         4.2180  -22.6750  -52.5180 C.3    27  GLN27       0.1566
     18  C          5.1810  -23.5140  -53.3460 C.2    27  GLN27       0.2260
     19  O          5.9760  -22.9520  -54.1060 O.2    27  GLN27      -0.2867
     20  CB         3.1820  -22.0210  -53.4090 C.3    27  GLN27       0.0367
     21  CG         1.8660  -21.8370  -52.7100 C.3    27  GLN27       0.0905
     22  CD         0.9290  -21.0320  -53.5530 C.2    27  GLN27       0.2608
     23  OE1        1.3010  -20.5540  -54.6140 O.2    27  GLN27      -0.2717
     24  NE2       -0.2960  -20.8220  -53.0780 N.am   27  GLN27      -0.0878
     25  N          3.3700  -26.2190  -48.7620 N.3    37  ALA37      -0.1245
     26  CA         3.9220  -24.9110  -48.4620 C.3    37  ALA37       0.1562
     27  C          5.1440  -25.1560  -47.6060 C.2    37  ALA37       0.2260
     28  O          5.0870  -25.9690  -46.6680 O.2    37  ALA37      -0.2867
     29  CB         2.9230  -24.0130  -47.7710 C.3    37  ALA37       0.0290
     30  N          7.9450  -23.5000  -45.1410 N.3    39  LYS39      -0.1245
     31  CA         8.4590  -22.3990  -44.3380 C.3    39  LYS39       0.1561
     32  C          9.9850  -22.6030  -44.1830 C.2    39  LYS39       0.2260
     33  O         10.4710  -23.6550  -43.7350 O.2    39  LYS39      -0.2867
     34  CB         7.7660  -22.2800  -42.9810 C.3    39  LYS39       0.0271
     35  CG         8.1400  -21.0090  -42.2250 C.3    39  LYS39       0.0035
     36  CD         7.2430  -20.8340  -41.0220 C.3    39  LYS39       0.0206
     37  CE         7.6620  -19.6760  -40.1650 C.3    39  LYS39       0.1093
     38  NZ         6.8360  -19.6250  -38.9380 N.3    39  LYS39      -0.1314
     39  N          3.3580  -27.7520  -32.7270 N.3    61  LEU61      -0.1245
     40  CA         2.7280  -27.9590  -34.0260 C.3    61  LEU61       0.1561
     41  C          2.7460  -29.4500  -34.3820 C.2    61  LEU61       0.2260
     42  O          1.7310  -29.9710  -34.8010 O.2    61  LEU61      -0.2867
     43  CB         3.4450  -27.1350  -35.1110 C.3    61  LEU61       0.0270
     44  CG         2.8100  -27.1580  -36.4950 C.3    61  LEU61       0.0019
     45  CD1        1.4120  -26.6010  -36.4600 C.3    61  LEU61       0.0001
     46  CD2        3.6540  -26.4310  -37.4770 C.3    61  LEU61       0.0001
     47  N         -3.0250  -26.4420  -38.8550 N.3    72  ILE72      -0.1245
     48  CA        -2.2230  -26.6720  -40.0560 C.3    72  ILE72       0.1561
     49  C         -1.4160  -27.9910  -39.9760 C.2    72  ILE72       0.2260
     50  O         -0.8220  -28.2810  -38.9450 O.2    72  ILE72      -0.2867
     51  CB        -1.3040  -25.4340  -40.3670 C.3    72  ILE72       0.0252
     52  CG1       -0.8640  -25.3970  -41.8670 C.3    72  ILE72       0.0019
     53  CG2       -0.1020  -25.3000  -39.4030 C.3    72  ILE72       0.0019
     54  CD1       -2.0800  -25.1290  -42.8710 C.3    72  ILE72       0.0001
     55  N         10.1370  -26.3480  -43.0700 N.3    86  MET86      -0.1245
     56  CA         8.9140  -27.0210  -42.6000 C.3    86  MET86       0.1570
     57  C          7.9910  -27.3010  -43.7810 C.2    86  MET86       0.2261
     58  O          7.4940  -26.3610  -44.4050 O.2    86  MET86      -0.2867
     59  CB         8.1830  -26.2040  -41.5410 C.3    86  MET86       0.0387
     60  CG         8.8750  -26.1700  -40.2160 C.3    86  MET86       0.0595
     61  SD         8.4820  -24.6190  -39.3870 S.3    86  MET86      -0.1393
     62  CE         6.8620  -25.0000  -38.6860 C.3    86  MET86       0.0692
     63  N          4.5640  -28.2940  -45.0510 N.3    88  MET88      -0.1230
     64  CA         3.2090  -28.1540  -44.5360 C.3    88  MET88       0.1702
     65  C          2.1580  -28.2020  -45.6160 C.2    88  MET88       0.2592
     66  O          2.4840  -28.2050  -46.7960 O.2    88  MET88      -0.2718
     67  CB         3.0760  -26.8180  -43.7730 C.3    88  MET88       0.0401
     68  CG         3.8630  -26.7710  -42.4800 C.3    88  MET88       0.0596
     69  SD         4.0050  -25.1260  -41.7660 S.3    88  MET88      -0.1393
     70  CE         4.7760  -24.2550  -43.1240 C.3    88  MET88       0.0692
     71  N          0.8840  -28.2230  -45.2120 N.am   89  GLU89      -0.1966
     72  CA        -0.1680  -28.2140  -46.1890 C.3    89  GLU89       0.1733
     73  C         -0.3440  -26.7790  -46.7360 C.2    89  GLU89       0.2616
     74  O          0.0310  -25.8130  -46.0600 O.2    89  GLU89      -0.2715
     75  CB        -1.4500  -28.8610  -45.6400 C.3    89  GLU89       0.0429
     76  CG        -2.3470  -27.9370  -44.8540 C.3    89  GLU89       0.1163
     77  CD        -3.5270  -28.6090  -44.1880 C.2    89  GLU89       0.3649
     78  OE1       -4.3210  -29.2650  -44.8980 O.co2  89  GLU89      -0.2457
     79  OE2       -3.6440  -28.4960  -42.9480 O.co2  89  GLU89      -0.2457
     80  N         -0.8230  -26.6780  -47.9980 N.am   90  CYS90      -0.1954
     81  CA        -1.1030  -25.4500  -48.7310 C.3    90  CYS90       0.1843
     82  C         -2.6000  -25.0940  -48.6560 C.2    90  CYS90       0.2626
     83  O         -3.4590  -25.9530  -48.8530 O.2    90  CYS90      -0.2714
     84  CB        -0.6330  -25.5830  -50.1760 C.3    90  CYS90       0.0997
     85  SG        -0.3570  -24.0070  -51.0280 S.3    90  CYS90      -0.0797
     86  N         -2.8770  -23.8360  -48.3360 N.am   91  GLY91      -0.1940
     87  CA        -4.2070  -23.2410  -48.3070 C.3    91  GLY91       0.2014
     88  C         -4.3340  -22.2340  -49.4340 C.2    91  GLY91       0.2639
     89  O         -3.3240  -21.7780  -49.9730 O.2    91  GLY91      -0.2714
     90  N         -5.5580  -21.8980  -49.8300 N.am   92  ASN92      -0.1958
     91  CA        -5.7870  -20.9750  -50.9640 C.3    92  ASN92       0.1819
     92  C         -5.5670  -19.5050  -50.6020 C.2    92  ASN92       0.2621
     93  O         -5.1250  -18.7410  -51.4420 O.2    92  ASN92      -0.2715
     94  CB        -7.2060  -21.1520  -51.5730 C.3    92  ASN92       0.1195
     95  CG        -7.8200  -22.5130  -51.3640 C.2    92  ASN92       0.2630
     96  OD1       -8.4420  -22.7830  -50.3300 O.2    92  ASN92      -0.2716
     97  ND2       -7.6300  -23.4090  -52.3290 N.am   92  ASN92      -0.0877
     98  N         -5.9550  -19.1010  -49.3790 N.am   93  ILE93      -0.1963
     99  CA        -5.8900  -17.7150  -48.8920 C.3    93  ILE93       0.1727
    100  C         -5.9100  -17.7060  -47.3550 C.2    93  ILE93       0.2616
    101  O         -6.4010  -18.6630  -46.7520 O.2    93  ILE93      -0.2715
    102  CB        -7.0760  -16.8870  -49.5330 C.3    93  ILE93       0.0290
    103  CG1       -6.9090  -15.3620  -49.3170 C.3    93  ILE93       0.0022
    104  CG2       -8.4680  -17.3820  -49.0940 C.3    93  ILE93       0.0023
    105  CD1       -7.7140  -14.4930  -50.2600 C.3    93  ILE93       0.0001
    106  N         -5.3720  -16.6410  -46.7340 N.am   94  ASP94      -0.1971
    107  CA        -5.4200  -16.4400  -45.2810 C.3    94  ASP94       0.1709
    108  C         -6.7300  -15.6880  -45.0030 C.2    94  ASP94       0.2293
    109  O         -7.2770  -15.0860  -45.9320 O.2    94  ASP94      -0.2864
    110  CB        -4.2120  -15.6360  -44.7730 C.3    94  ASP94       0.1436
    111  CG        -4.1160  -14.2450  -45.3600 C.2    94  ASP94       0.3671
    112  OD1       -3.8420  -14.1340  -46.5610 O.co2  94  ASP94      -0.2456
    113  OD2       -4.3060  -13.2730  -44.6110 O.co2  94  ASP94      -0.2456
    114  N         -6.6920  -11.5760  -45.8290 N.3    97  SER97      -0.1217
    115  CA        -6.8240  -11.2840  -47.2550 C.3    97  SER97       0.1889
    116  C         -8.2500  -11.5760  -47.7160 C.2    97  SER97       0.2288
    117  O         -8.8480  -10.7490  -48.4010 O.2    97  SER97      -0.2866
    118  CB        -5.8190  -12.0970  -48.0660 C.3    97  SER97       0.2089
    119  OG        -4.4900  -11.7720  -47.6970 O.3    97  SER97      -0.2183
    120  N        -10.9720   -8.7030  -49.0300 N.3   101  LYS101     -0.1245
    121  CA       -11.5310   -8.9230  -50.3720 C.3   101  LYS101      0.1561
    122  C        -13.0620   -9.0960  -50.3670 C.2   101  LYS101      0.2260
    123  O        -13.7380   -8.4730  -51.1890 O.2   101  LYS101     -0.2867
    124  CB       -10.8470  -10.1110  -51.0770 C.3   101  LYS101      0.0271
    125  CG        -9.5910   -9.7540  -51.8210 C.3   101  LYS101      0.0035
    126  CD        -9.0600  -10.9720  -52.5320 C.3   101  LYS101      0.0206
    127  CE        -7.6410  -10.7360  -52.9550 C.3   101  LYS101      0.1093
    128  NZ        -6.7610  -10.6000  -51.7610 N.3   101  LYS101     -0.1314
    129  N         -5.6580  -19.8140  -41.9930 N.3   140  LEU140     -0.1245
    130  CA        -5.5900  -20.0700  -43.4190 C.3   140  LEU140      0.1561
    131  C         -6.8140  -20.8980  -43.8260 C.2   140  LEU140      0.2260
    132  O         -7.2210  -21.7830  -43.0790 O.2   140  LEU140     -0.2867
    133  CB        -4.2900  -20.8350  -43.6910 C.3   140  LEU140      0.0270
    134  CG        -3.9460  -21.2290  -45.1140 C.3   140  LEU140      0.0019
    135  CD1       -3.4410  -20.0540  -45.8820 C.3   140  LEU140      0.0001
    136  CD2       -2.8760  -22.2640  -45.1040 C.3   140  LEU140      0.0001
    137  N         -2.4720  -21.5490  -38.1390 N.3   149  ILE149     -0.1231
    138  CA        -1.1190  -21.7870  -38.6850 C.3   149  ILE149      0.1692
    139  C          0.0160  -21.4650  -37.6980 C.2   149  ILE149      0.2592
    140  O          1.1380  -21.9080  -37.9030 O.2   149  ILE149     -0.2718
    141  CB        -0.8750  -21.0670  -40.0650 C.3   149  ILE149      0.0266
    142  CG1       -1.2440  -19.5780  -40.0270 C.3   149  ILE149      0.0019
    143  CG2       -1.5930  -21.7650  -41.2090 C.3   149  ILE149      0.0020
    144  CD1       -0.5240  -18.7300  -40.9630 C.3   149  ILE149      0.0001
    145  N         -0.2770  -20.6520  -36.6730 N.am  150  ASP150     -0.1974
    146  CA         0.6720  -20.0780  -35.7170 C.3   150  ASP150      0.1709
    147  C          0.1850  -20.2640  -34.2810 C.2   150  ASP150      0.2293
    148  O         -1.0170  -20.2470  -34.0540 O.2   150  ASP150     -0.2864
    149  CB         0.8050  -18.5690  -36.0640 C.3   150  ASP150      0.1436
    150  CG         1.6130  -17.7050  -35.1210 C.2   150  ASP150      0.3671
    151  OD1        2.7660  -18.0740  -34.8150 O.co2 150  ASP150     -0.2456
    152  OD2        1.1360  -16.6150  -34.7670 O.co2 150  ASP150     -0.2456
@<TRIPOS>BOND
     1    23    22    2
     2    19    18    2
     3    22    24   am
     4    22    21    1
     5    20    21    1
     6    20    17    1
     7    18    17    1
     8   127   126    1
     9   127   128    1
    10   126   125    1
    11    17    16    1
    12    97    95   am
    13   125   124    1
    14    94    95    1
    15    94    91    1
    16    93    92    2
    17    95    96    2
    18   123   122    2
    19   124   121    1
    20    85    84    1
    21     1     2    1
    22    91    92    1
    23    91    90    1
    24    92    98   am
    25   121   122    1
    26   121   120    1
    27     6     8    1
    28     6     5    1
    29     2     5    1
    30     2     3    1
    31   105   103    1
    32    84    81    1
    33    89    88    2
    34    90    88   am
    35   102   103    1
    36   102   104    1
    37   102    99    1
    38     4     3    2
    39     5     7    1
    40    88    87    1
    41    98    99    1
    42    12    11    2
    43    99   100    1
    44    83    82    2
    45    25    26    1
    46    81    82    1
    47    81    80    1
    48    82    86   am
    49    11    10    1
    50    26    29    1
    51    26    27    1
    52   117   116    2
    53    86    87    1
    54   118   119    1
    55   118   115    1
    56    80    73   am
    57   116   115    1
    58    27    28    2
    59   100   101    2
    60   100   106   am
    61   115   114    1
    62    10     9    1
    63    10    13    1
    64    66    65    2
    65    73    72    1
    66    73    74    2
    67   106   107    1
    68    14    13    1
    69   112   111   ar
    70    13    15    1
    71    72    75    1
    72    72    71    1
    73   109   108    2
    74   135   134    1
    75    75    76    1
    76    65    71   am
    77    65    64    1
    78   111   110    1
    79   111   113   ar
    80   107   108    1
    81   107   110    1
    82    30    31    1
    83   134   136    1
    84   134   133    1
    85    63    64    1
    86    78    77   ar
    87    76    77    1
    88    64    67    1
    89    58    57    2
    90    31    32    1
    91    31    34    1
    92    77    79   ar
    93    32    33    2
    94   131   130    1
    95   131   132    2
    96    57    56    1
    97    67    68    1
    98   133   130    1
    99   130   129    1
   100    70    69    1
   101    55    56    1
   102    34    35    1
   103    54    52    1
   104    56    59    1
   105    68    69    1
   106    35    36    1
   107    52    51    1
   108    59    60    1
   109   143   141    1
   110    36    37    1
   111   144   142    1
   112    51    48    1
   113    51    53    1
   114    60    61    1
   115    37    38    1
   116   141   142    1
   117   141   138    1
   118    48    49    1
   119    48    47    1
   120    49    50    2
   121    61    62    1
   122   138   137    1
   123   138   139    1
   124   140   139    2
   125   139   145   am
   126    46    44    1
   127   145   146    1
   128    44    45    1
   129    44    43    1
   130   149   146    1
   131   149   150    1
   132   146   147    1
   133   150   151   ar
   134   150   152   ar
   135    43    40    1
   136    42    41    2
   137    41    40    1
   138   147   148    2
   139    40    39    1
