@<TRIPOS>MOLECULE
tmp/4cvbA00.pdb
 199 187 0 0 0
SMALL
GASTEIGER

@<TRIPOS>ATOM
      1  N          9.8630   37.6570   24.8340 N.3    60  SER60      -0.1217
      2  CA        10.5370   36.6510   24.0330 C.3    60  SER60       0.1889
      3  C         11.0350   35.5480   24.9460 C.2    60  SER60       0.2288
      4  O         11.9680   35.7640   25.7170 O.2    60  SER60      -0.2866
      5  CB        11.7060   37.2600   23.2640 C.3    60  SER60       0.2089
      6  OG        12.3050   36.2760   22.4510 O.3    60  SER60      -0.2183
      7  N         12.8860   32.5350   25.5600 N.3    62  GLU62      -0.1245
      8  CA        13.9410   31.6920   25.0080 C.3    62  GLU62       0.1567
      9  C         14.7330   30.9200   26.0490 C.2    62  GLU62       0.2260
     10  O         15.7290   30.2960   25.7110 O.2    62  GLU62      -0.2867
     11  CB        14.9070   32.5490   24.2030 C.3    62  GLU62       0.0388
     12  CG        14.1890   33.4760   23.2370 C.3    62  GLU62       0.1160
     13  CD        15.1260   34.2840   22.3690 C.2    62  GLU62       0.3649
     14  OE1       16.3560   34.2340   22.5660 O.co2  62  GLU62      -0.2457
     15  OE2       14.5970   34.9890   21.4800 O.co2  62  GLU62      -0.2457
     16  N         16.7530   43.3590   23.3800 N.3   109  LEU109     -0.1245
     17  CA        17.2080   41.9600   23.3760 C.3   109  LEU109      0.1561
     18  C         17.6650   41.5170   24.7730 C.2   109  LEU109      0.2260
     19  O         17.5730   40.3350   25.1330 O.2   109  LEU109     -0.2867
     20  CB        18.3040   41.7600   22.3300 C.3   109  LEU109      0.0270
     21  CG        17.9380   42.1840   20.8980 C.3   109  LEU109      0.0019
     22  CD1       19.1820   42.5060   20.0640 C.3   109  LEU109      0.0001
     23  CD2       17.0600   41.1440   20.2010 C.3   109  LEU109      0.0001
     24  N         15.2040   39.3420   27.1290 N.3   112  ALA112     -0.1245
     25  CA        15.2530   37.8670   27.0100 C.3   112  ALA112      0.1562
     26  C         16.5220   37.2740   27.6300 C.2   112  ALA112      0.2260
     27  O         17.5680   37.9400   27.6830 O.2   112  ALA112     -0.2867
     28  CB        15.1520   37.4400   25.5660 C.3   112  ALA112      0.0290
     29  N         18.4830   33.3860   27.9600 N.3   114  ARG114     -0.1245
     30  CA        18.4740   31.9770   27.5500 C.3   114  ARG114      0.1563
     31  C         18.8520   31.0670   28.7180 C.2   114  ARG114      0.2260
     32  O         18.4210   29.9040   28.7760 O.2   114  ARG114     -0.2867
     33  CB        19.3710   31.7590   26.3190 C.3   114  ARG114      0.0307
     34  CG        18.8410   32.4900   25.0960 C.3   114  ARG114      0.0489
     35  CD        19.6530   32.2940   23.8110 C.3   114  ARG114      0.2205
     36  NE        19.1550   33.3510   22.9390 N.pl3 114  ARG114     -0.0865
     37  CZ        19.7670   34.5090   22.7020 C.cat 114  ARG114      0.5346
     38  NH1       21.0070   34.7390   23.1380 N.pl3 114  ARG114      0.1354
     39  NH2       19.1480   35.4170   21.9760 N.pl3 114  ARG114      0.1354
     40  N         22.0660   38.2990   26.5100 N.3   159  SER159     -0.1217
     41  CA        20.8550   37.5080   26.2260 C.3   159  SER159      0.1889
     42  C         21.0200   36.0140   26.4380 C.2   159  SER159      0.2288
     43  O         20.0250   35.3130   26.6390 O.2   159  SER159     -0.2866
     44  CB        20.3670   37.7720   24.8030 C.3   159  SER159      0.2089
     45  OG        21.3870   37.5000   23.8740 O.3   159  SER159     -0.2183
     46  N         25.7340   41.8240   24.2410 N.3   174  THR174     -0.1203
     47  CA        25.1480   42.3480   23.0060 C.3   174  THR174      0.1994
     48  C         25.1270   43.8670   23.1300 C.2   174  THR174      0.2618
     49  O         24.7370   44.4110   24.1740 O.2   174  THR174     -0.2717
     50  CB        23.7060   41.8100   22.7630 C.3   174  THR174      0.1784
     51  OG1       23.0100   42.6900   21.8800 O.3   174  THR174     -0.2211
     52  CG2       22.8980   41.7390   24.0540 C.3   174  THR174      0.0376
     53  N         25.5480   44.5440   22.0630 N.am  175  CYS175     -0.1955
     54  CA        25.4910   46.0080   21.9650 C.3   175  CYS175      0.1843
     55  C         24.9430   46.3530   20.5820 C.2   175  CYS175      0.2625
     56  O         25.5080   47.1640   19.8670 O.2   175  CYS175     -0.2714
     57  CB        26.8910   46.6380   22.1710 C.3   175  CYS175      0.0997
     58  SG        28.2710   45.7610   21.3880 S.3   175  CYS175     -0.0797
     59  N         23.8310   45.6980   20.2390 N.am  176  GLN176     -0.1977
     60  CA        23.2220   45.7180   18.8970 C.3   176  GLN176      0.1601
     61  C         22.7960   47.0960   18.4060 C.2   176  GLN176      0.2287
     62  O         22.6700   47.3220   17.1800 O.2   176  GLN176     -0.2864
     63  CB        21.9860   44.7830   18.8950 C.3   176  GLN176      0.0394
     64  CG        21.2810   44.6160   17.5480 C.3   176  GLN176      0.0908
     65  CD        22.1530   43.9550   16.4830 C.2   176  GLN176      0.2608
     66  OE1       21.9870   42.7700   16.1720 O.2   176  GLN176     -0.2717
     67  NE2       23.0920   44.7160   15.9170 N.am  176  GLN176     -0.0878
     68  N         28.8200   47.7120   17.1040 N.3   222  MET222     -0.1245
     69  CA        27.9740   46.5460   17.4030 C.3   222  MET222      0.1570
     70  C         28.6670   45.2040   17.5080 C.2   222  MET222      0.2261
     71  O         28.0360   44.2110   17.8790 O.2   222  MET222     -0.2867
     72  CB        26.7760   46.4480   16.4350 C.3   222  MET222      0.0387
     73  CG        25.9460   47.7260   16.3690 C.3   222  MET222      0.0595
     74  SD        25.0610   47.8240   14.7890 S.3   222  MET222     -0.1393
     75  CE        24.3970   49.4810   14.9170 C.3   222  MET222      0.0692
     76  N         30.0550   42.3170   19.0700 N.3   224  GLY224     -0.1225
     77  CA        29.8850   41.7810   20.4330 C.3   224  GLY224      0.1811
     78  C         30.1290   40.2800   20.4970 C.2   224  GLY224      0.2280
     79  O         30.7940   39.7160   19.6180 O.2   224  GLY224     -0.2866
     80  N         27.3040   37.6900   21.7680 N.3   226  TRP226     -0.1241
     81  CA        26.0330   37.4800   22.4550 C.3   226  TRP226      0.1605
     82  C         25.5330   36.0640   22.4950 C.2   226  TRP226      0.2264
     83  O         24.5190   35.7820   23.1560 O.2   226  TRP226     -0.2867
     84  CB        24.9470   38.4110   21.9150 C.3   226  TRP226      0.0550
     85  CG        24.6280   38.1970   20.4580 C.ar  226  TRP226      0.0003
     86  CD1       25.2160   38.8180   19.3660 C.ar  226  TRP226      0.0946
     87  CD2       23.6110   37.3030   19.8960 C.ar  226  TRP226      0.0152
     88  NE1       24.6460   38.3890   18.1890 N.ar  226  TRP226     -0.2442
     89  CE2       23.6770   37.4700   18.4430 C.ar  226  TRP226      0.0810
     90  CE3       22.6820   36.4090   20.4350 C.ar  226  TRP226      0.0012
     91  CZ2       22.8490   36.7590   17.5850 C.ar  226  TRP226      0.0191
     92  CZ3       21.8380   35.7060   19.5550 C.ar  226  TRP226      0.0001
     93  CH2       21.9280   35.8750   18.1670 C.ar  226  TRP226      0.0015
     94  N         30.8310   38.7100   16.8740 N.3   243  THR243     -0.1218
     95  CA        29.8430   38.9360   15.8150 C.3   243  THR243      0.1862
     96  C         30.3420   39.9800   14.8110 C.2   243  THR243      0.2287
     97  O         31.5290   40.3140   14.7860 O.2   243  THR243     -0.2866
     98  CB        28.5120   39.3990   16.4170 C.3   243  THR243      0.1770
     99  OG1       28.7050   40.6500   17.0940 O.3   243  THR243     -0.2211
    100  CG2       28.0170   38.3620   17.3980 C.3   243  THR243      0.0375
    101  N         25.0930   40.2770    8.6040 N.3   289  ASP289     -0.1239
    102  CA        24.6810   40.0720    9.9890 C.3   289  ASP289      0.1674
    103  C         24.8290   38.5850   10.3640 C.2   289  ASP289      0.2266
    104  O         23.9070   37.9690   10.9320 O.2   289  ASP289     -0.2867
    105  CB        23.2260   40.5300   10.1800 C.3   289  ASP289      0.1410
    106  CG        22.7440   40.3850   11.6220 C.2   289  ASP289      0.3668
    107  OD1       23.5790   40.3990   12.5530 O.co2 289  ASP289     -0.2456
    108  OD2       21.5190   40.2490   11.8280 O.co2 289  ASP289     -0.2456
    109  N         27.0550   36.8120   12.4410 N.3   291  GLU291     -0.1245
    110  CA        27.1140   36.4880   13.8920 C.3   291  GLU291      0.1567
    111  C         27.6510   35.1080   14.2360 C.2   291  GLU291      0.2260
    112  O         26.8990   34.2210   14.6700 O.2   291  GLU291     -0.2867
    113  CB        25.7470   36.6450   14.5850 C.3   291  GLU291      0.0388
    114  CG        24.9300   37.8490   14.1610 C.3   291  GLU291      0.1160
    115  CD        25.6170   39.1440   14.4440 C.2   291  GLU291      0.3649
    116  OE1       26.5960   39.4690   13.7250 O.co2 291  GLU291     -0.2457
    117  OE2       25.1490   39.8410   15.3880 O.co2 291  GLU291     -0.2457
    118  N         25.2160   32.1780   11.3410 N.3   334  LYS334     -0.1245
    119  CA        23.8670   32.0260   10.7620 C.3   334  LYS334      0.1561
    120  C         23.9160   31.3960    9.3910 C.2   334  LYS334      0.2260
    121  O         22.9620   30.7380    8.9680 O.2   334  LYS334     -0.2867
    122  CB        23.1670   33.3840   10.6600 C.3   334  LYS334      0.0271
    123  CG        22.8490   33.9940   12.0170 C.3   334  LYS334      0.0035
    124  CD        22.1670   35.3330   11.8270 C.3   334  LYS334      0.0206
    125  CE        22.0280   36.1010   13.1200 C.3   334  LYS334      0.1093
    126  NZ        21.7190   37.5260   12.8060 N.3   334  LYS334     -0.1314
    127  N         19.1110   36.9970    7.9320 N.3   390  PHE390     -0.1227
    128  CA        19.6160   37.5230    9.2140 C.3   390  PHE390      0.1736
    129  C         19.0610   36.7390   10.4110 C.2   390  PHE390      0.2595
    130  O         19.3560   37.0590   11.5840 O.2   390  PHE390     -0.2718
    131  CB        19.2850   39.0250    9.3650 C.3   390  PHE390      0.0547
    132  CG        19.9980   39.9560    8.3850 C.ar  390  PHE390     -0.0202
    133  CD1       20.7210   39.4820    7.2720 C.ar  390  PHE390     -0.0042
    134  CD2       19.9000   41.3330    8.5620 C.ar  390  PHE390     -0.0042
    135  CE1       21.3370   40.3650    6.3710 C.ar  390  PHE390     -0.0003
    136  CE2       20.5060   42.2300    7.6570 C.ar  390  PHE390     -0.0003
    137  CZ        21.2300   41.7510    6.5710 C.ar  390  PHE390     -0.0000
    138  N         18.2410   35.7190   10.1490 N.am  391  LEU391     -0.1980
    139  CA        17.8370   34.7850   11.2010 C.3   391  LEU391      0.1596
    140  C         18.2050   33.3520   10.8160 C.2   391  LEU391      0.2287
    141  O         17.6620   32.3980   11.3800 O.2   391  LEU391     -0.2864
    142  CB        16.3310   34.8830   11.4960 C.3   391  LEU391      0.0297
    143  CG        15.8130   36.0440   12.3570 C.3   391  LEU391      0.0022
    144  CD1       15.8390   37.3420   11.5730 C.3   391  LEU391      0.0001
    145  CD2       14.3890   35.7550   12.8540 C.3   391  LEU391      0.0001
    146  N         20.3360   30.1320   13.9540 N.3   395  ASP395     -0.1225
    147  CA        20.4450   31.3480   14.7360 C.3   395  ASP395      0.1805
    148  C         20.8030   30.8410   16.1370 C.2   395  ASP395      0.2597
    149  O         21.3890   29.7550   16.2550 O.2   395  ASP395     -0.2718
    150  CB        19.1380   32.1600   14.6630 C.3   395  ASP395      0.1424
    151  CG        19.3320   33.6190   15.0220 C.2   395  ASP395      0.3668
    152  OD1       20.0360   33.9070   16.0120 O.co2 395  ASP395     -0.2456
    153  OD2       18.7650   34.4900   14.3280 O.co2 395  ASP395     -0.2456
    154  N         20.4530   31.5690   17.1970 N.am  396  TRP396     -0.1976
    155  CA        20.8070   31.1030   18.5470 C.3   396  TRP396      0.1640
    156  C         20.3020   29.7090   18.9080 C.2   396  TRP396      0.2290
    157  O         20.9680   29.0120   19.6790 O.2   396  TRP396     -0.2864
    158  CB        20.4360   32.1440   19.6170 C.3   396  TRP396      0.0576
    159  CG        18.9570   32.3460   19.6450 C.ar  396  TRP396      0.0006
    160  CD1       18.2080   33.2870   18.9370 C.ar  396  TRP396      0.0946
    161  CD2       17.9820   31.5100   20.3320 C.ar  396  TRP396      0.0152
    162  NE1       16.8710   33.1230   19.1790 N.ar  396  TRP396     -0.2442
    163  CE2       16.6650   32.0650   20.0030 C.ar  396  TRP396      0.0810
    164  CE3       18.0630   30.4210   21.1920 C.ar  396  TRP396      0.0012
    165  CZ2       15.4980   31.5190   20.5020 C.ar  396  TRP396      0.0191
    166  CZ3       16.8790   29.8810   21.6930 C.ar  396  TRP396      0.0001
    167  CH2       15.6200   30.4260   21.3630 C.ar  396  TRP396      0.0015
    168  N         21.2750   47.2550   11.1930 N.3   432  TYR432     -0.1241
    169  CA        21.9540   46.9540    9.9060 C.3   432  TYR432      0.1605
    170  C         21.5910   47.8870    8.7710 C.2   432  TYR432      0.2264
    171  O         22.2010   47.8300    7.6990 O.2   432  TYR432     -0.2867
    172  CB        21.7910   45.4650    9.5210 C.3   432  TYR432      0.0534
    173  CG        22.4550   44.6920   10.6100 C.ar  432  TYR432     -0.0201
    174  CD1       23.8440   44.7100   10.7300 C.ar  432  TYR432     -0.0009
    175  CD2       21.6990   44.0790   11.6210 C.ar  432  TYR432     -0.0009
    176  CE1       24.4780   44.0800   11.7790 C.ar  432  TYR432      0.0417
    177  CE2       22.3280   43.4460   12.6810 C.ar  432  TYR432      0.0417
    178  CZ        23.7150   43.4540   12.7510 C.ar  432  TYR432      0.1957
    179  OH        24.3460   42.8270   13.8020 O.3   432  TYR432     -0.2866
    180  N         13.0290   27.0740   14.5210 N.3   471  TYR471     -0.1241
    181  CA        13.5930   28.2100   15.2700 C.3   471  TYR471      0.1605
    182  C         13.5650   27.9540   16.7760 C.2   471  TYR471      0.2264
    183  O         13.1170   28.7840   17.5750 O.2   471  TYR471     -0.2867
    184  CB        12.8700   29.5220   14.9040 C.3   471  TYR471      0.0534
    185  CG        13.7400   30.7480   15.1280 C.ar  471  TYR471     -0.0201
    186  CD1       14.8150   31.0390   14.2760 C.ar  471  TYR471     -0.0009
    187  CD2       13.5050   31.5900   16.2250 C.ar  471  TYR471     -0.0009
    188  CE1       15.6220   32.1540   14.4920 C.ar  471  TYR471      0.0417
    189  CE2       14.3090   32.6930   16.4550 C.ar  471  TYR471      0.0417
    190  CZ        15.3660   32.9650   15.6010 C.ar  471  TYR471      0.1957
    191  OH        16.1360   34.0900   15.8530 O.3   471  TYR471     -0.2866
    192  N         11.2900   36.0530   18.4210 N.3   534  LEU534     -0.1245
    193  CA        11.2920   36.7520   17.1360 C.3   534  LEU534      0.1561
    194  C         10.9520   35.8210   15.9560 C.2   534  LEU534      0.2260
    195  O         10.5950   36.2910   14.8710 O.2   534  LEU534     -0.2867
    196  CB        12.6210   37.4900   16.9270 C.3   534  LEU534      0.0270
    197  CG        13.0510   38.4860   18.0310 C.3   534  LEU534      0.0019
    198  CD1       14.3810   39.1230   17.6640 C.3   534  LEU534      0.0001
    199  CD2       12.0090   39.5750   18.3040 C.3   534  LEU534      0.0001
@<TRIPOS>BOND
     1   135   137   ar
     2   135   133   ar
     3   137   136   ar
     4   133   132   ar
     5   136   134   ar
     6   171   170    2
     7   127   128    1
     8   132   134   ar
     9   132   131    1
    10   101   102    1
    11   170   169    1
    12   121   120    2
    13   128   131    1
    14   128   129    1
    15   120   119    1
    16   172   169    1
    17   172   173    1
    18   169   168    1
    19   102   105    1
    20   102   103    1
    21   138   129   am
    22   138   139    1
    23   105   106    1
    24   103   104    2
    25   129   130    2
    26   173   174   ar
    27   173   175   ar
    28   122   119    1
    29   122   123    1
    30   174   176   ar
    31   119   118    1
    32   140   139    1
    33   140   141    2
    34   139   142    1
    35   142   143    1
    36   144   143    1
    37   175   177   ar
    38   106   108   ar
    39   106   107   ar
    40   176   178   ar
    41   124   123    1
    42   124   125    1
    43   143   145    1
    44   109   110    1
    45   177   178   ar
    46   178   179    1
    47   126   125    1
    48   116   115   ar
    49   110   111    1
    50   110   113    1
    51   146   147    1
    52   114   115    1
    53   114   113    1
    54   111   112    2
    55   186   188   ar
    56   186   185   ar
    57   153   151   ar
    58   115   117   ar
    59   188   190   ar
    60   180   181    1
    61   150   147    1
    62   150   151    1
    63   147   148    1
    64    97    96    2
    65    74    75    1
    66    74    73    1
    67    96    95    1
    68   195   194    2
    69   184   185    1
    70   184   181    1
    71   151   152   ar
    72   185   187   ar
    73   181   182    1
    74   190   191    1
    75   190   189   ar
    76    95    98    1
    77    95    94    1
    78    67    65   am
    79   194   193    1
    80   148   149    2
    81   148   154   am
    82    66    65    2
    83   187   189   ar
    84    73    72    1
    85    98    99    1
    86    98   100    1
    87    72    69    1
    88    65    64    1
    89   182   183    2
    90   196   193    1
    91   196   197    1
    92    68    69    1
    93   193   192    1
    94    62    61    2
    95   154   155    1
    96    69    70    1
    97    70    71    2
    98    64    63    1
    99    91    93   ar
   100    91    89   ar
   101   198   197    1
   102   197   199    1
   103    93    92   ar
   104    88    89   ar
   105    88    86   ar
   106    61    60    1
   107    89    87   ar
   108   155   156    1
   109   155   158    1
   110    63    60    1
   111    60    59    1
   112   156   157    2
   113   160   162   ar
   114   160   159   ar
   115    76    77    1
   116   162   163   ar
   117    86    85   ar
   118    92    90   ar
   119   158   159    1
   120    79    78    2
   121   159   161   ar
   122    56    55    2
   123    87    90   ar
   124    87    85   ar
   125   163   161   ar
   126   163   165   ar
   127    22    21    1
   128    23    21    1
   129    59    55   am
   130   161   164   ar
   131    77    78    1
   132    85    84    1
   133   165   167   ar
   134    55    54    1
   135    21    20    1
   136   164   166   ar
   137   167   166   ar
   138    58    57    1
   139    15    13   ar
   140    80    81    1
   141    51    50    1
   142    84    81    1
   143    54    53    1
   144    54    57    1
   145    39    37    1
   146    53    48   am
   147    20    17    1
   148    13    14   ar
   149    13    12    1
   150     6     5    1
   151    81    82    1
   152    82    83    2
   153    37    36    2
   154    37    38    1
   155    50    47    1
   156    50    52    1
   157    36    35    1
   158    47    48    1
   159    47    46    1
   160    48    49    2
   161    12    11    1
   162     5     2    1
   163    17    16    1
   164    17    18    1
   165    35    34    1
   166    45    44    1
   167     2     1    1
   168     2     3    1
   169    11     8    1
   170    18    19    2
   171    44    41    1
   172     3     4    2
   173     8     7    1
   174     8     9    1
   175    34    33    1
   176    28    25    1
   177    10     9    2
   178    41    42    1
   179    41    40    1
   180    33    30    1
   181    42    43    2
   182    25    24    1
   183    25    26    1
   184    30    29    1
   185    30    31    1
   186    26    27    2
   187    31    32    2
