@<TRIPOS>MOLECULE
tmp/4cvcA00.pdb
 112 107 0 0 0
SMALL
GASTEIGER

@<TRIPOS>ATOM
      1  N         16.6970   43.3770   23.4040 N.3   109  LEU109     -0.1245
      2  CA        17.1480   41.9830   23.3460 C.3   109  LEU109      0.1561
      3  C         17.6720   41.5040   24.7030 C.2   109  LEU109      0.2260
      4  O         17.6890   40.3030   24.9890 O.2   109  LEU109     -0.2867
      5  CB        18.2110   41.8040   22.2560 C.3   109  LEU109      0.0270
      6  CG        17.8380   42.2580   20.8360 C.3   109  LEU109      0.0019
      7  CD1       19.0870   42.5740   20.0190 C.3   109  LEU109      0.0001
      8  CD2       16.9600   41.2390   20.1170 C.3   109  LEU109      0.0001
      9  N         23.8330   45.6290   20.2290 N.3   176  GLN176     -0.1231
     10  CA        23.2240   45.6570   18.8970 C.3   176  GLN176      0.1698
     11  C         22.8130   47.0490   18.4090 C.2   176  GLN176      0.2592
     12  O         22.7480   47.2870   17.1980 O.2   176  GLN176     -0.2718
     13  CB        22.0070   44.7060   18.8700 C.3   176  GLN176      0.0381
     14  CG        21.3410   44.4860   17.5110 C.3   176  GLN176      0.0905
     15  CD        22.2440   43.8100   16.4810 C.2   176  GLN176      0.2608
     16  OE1       22.0950   42.6100   16.1770 O.2   176  GLN176     -0.2717
     17  NE2       23.1890   44.5770   15.9280 N.am  176  GLN176     -0.0878
     18  N         22.5260   47.9530   19.3430 N.am  177  PHE177     -0.1976
     19  CA        22.0190   49.2820   18.9950 C.3   177  PHE177      0.1639
     20  C         23.0150   50.3770   19.3550 C.2   177  PHE177      0.2290
     21  O         22.6700   51.5560   19.3460 O.2   177  PHE177     -0.2864
     22  CB        20.6650   49.5460   19.6780 C.3   177  PHE177      0.0560
     23  CG        19.6150   48.5140   19.3670 C.ar  177  PHE177     -0.0200
     24  CD1       19.5500   47.3280   20.0950 C.ar  177  PHE177     -0.0042
     25  CD2       18.6890   48.7230   18.3490 C.ar  177  PHE177     -0.0042
     26  CE1       18.5880   46.3670   19.8110 C.ar  177  PHE177     -0.0003
     27  CE2       17.7220   47.7660   18.0630 C.ar  177  PHE177     -0.0003
     28  CZ        17.6740   46.5880   18.7910 C.ar  177  PHE177     -0.0000
     29  N         25.1280   40.1760    8.5060 N.3   289  ASP289     -0.1239
     30  CA        24.6910   39.9870    9.8880 C.3   289  ASP289      0.1674
     31  C         24.8350   38.5100   10.2930 C.2   289  ASP289      0.2266
     32  O         23.9370   37.9290   10.9080 O.2   289  ASP289     -0.2867
     33  CB        23.2370   40.4610   10.0360 C.3   289  ASP289      0.1410
     34  CG        22.7490   40.4350   11.4720 C.2   289  ASP289      0.3668
     35  OD1       23.5630   40.6310   12.3870 O.co2 289  ASP289     -0.2456
     36  OD2       21.5460   40.2090   11.6860 O.co2 289  ASP289     -0.2456
     37  N         27.0640   36.8060   12.3130 N.3   291  GLU291     -0.1245
     38  CA        27.1460   36.5530   13.7630 C.3   291  GLU291      0.1567
     39  C         27.6260   35.1620   14.1750 C.2   291  GLU291      0.2260
     40  O         26.8330   34.3120   14.5990 O.2   291  GLU291     -0.2867
     41  CB        25.8050   36.8720   14.4180 C.3   291  GLU291      0.0388
     42  CG        25.2800   38.2250   13.9790 C.3   291  GLU291      0.1160
     43  CD        24.3700   38.8450   14.9920 C.2   291  GLU291      0.3649
     44  OE1       23.4280   38.1570   15.4360 O.co2 291  GLU291     -0.2457
     45  OE2       24.5940   40.0200   15.3410 O.co2 291  GLU291     -0.2457
     46  N         25.1400   32.1670   11.3540 N.3   334  LYS334     -0.1245
     47  CA        23.8020   32.0290   10.7600 C.3   334  LYS334      0.1561
     48  C         23.8540   31.3970    9.3720 C.2   334  LYS334      0.2260
     49  O         22.8940   30.7610    8.9310 O.2   334  LYS334     -0.2867
     50  CB        23.1150   33.3910   10.6570 C.3   334  LYS334      0.0271
     51  CG        22.8110   34.0360   11.9950 C.3   334  LYS334      0.0035
     52  CD        22.1290   35.3720   11.7820 C.3   334  LYS334      0.0206
     53  CE        22.1650   36.2050   13.0460 C.3   334  LYS334      0.1093
     54  NZ        21.7330   37.6070   12.7740 N.3   334  LYS334     -0.1314
     55  N         19.0680   36.9840    7.9300 N.3   390  PHE390     -0.1227
     56  CA        19.5920   37.5350    9.1880 C.3   390  PHE390      0.1736
     57  C         19.0500   36.7630   10.4070 C.2   390  PHE390      0.2595
     58  O         19.3720   37.0890   11.5580 O.2   390  PHE390     -0.2718
     59  CB        19.2740   39.0380    9.3040 C.3   390  PHE390      0.0547
     60  CG        20.0040   39.9190    8.3050 C.ar  390  PHE390     -0.0202
     61  CD1       20.7570   39.3830    7.2550 C.ar  390  PHE390     -0.0042
     62  CD2       19.9020   41.3070    8.4000 C.ar  390  PHE390     -0.0042
     63  CE1       21.4080   40.2110    6.3400 C.ar  390  PHE390     -0.0003
     64  CE2       20.5430   42.1400    7.4830 C.ar  390  PHE390     -0.0003
     65  CZ        21.3010   41.5910    6.4560 C.ar  390  PHE390     -0.0000
     66  N         18.2200   35.7490   10.1510 N.am  391  LEU391     -0.1980
     67  CA        17.7830   34.8060   11.1860 C.3   391  LEU391      0.1596
     68  C         18.1720   33.3690   10.8300 C.2   391  LEU391      0.2287
     69  O         17.6800   32.4160   11.4470 O.2   391  LEU391     -0.2864
     70  CB        16.2650   34.8840   11.4170 C.3   391  LEU391      0.0297
     71  CG        15.6140   36.0940   12.1020 C.3   391  LEU391      0.0022
     72  CD1       16.2490   36.3770   13.4570 C.3   391  LEU391      0.0001
     73  CD2       15.6440   37.3350   11.2210 C.3   391  LEU391      0.0001
     74  N         16.8620   35.7830    1.7880 N.3   417  TYR417     -0.1241
     75  CA        16.6010   37.1610    2.1880 C.3   417  TYR417      0.1605
     76  C         16.8320   38.0800    1.0020 C.2   417  TYR417      0.2264
     77  O         17.9680   38.2240    0.5400 O.2   417  TYR417     -0.2867
     78  CB        17.5870   37.5310    3.2970 C.3   417  TYR417      0.0534
     79  CG        17.0320   38.2750    4.4920 C.ar  417  TYR417     -0.0201
     80  CD1       15.7740   37.9700    5.0160 C.ar  417  TYR417     -0.0009
     81  CD2       17.7990   39.2440    5.1390 C.ar  417  TYR417     -0.0009
     82  CE1       15.2830   38.6310    6.1310 C.ar  417  TYR417      0.0417
     83  CE2       17.3180   39.9080    6.2610 C.ar  417  TYR417      0.0417
     84  CZ        16.0610   39.5960    6.7510 C.ar  417  TYR417      0.1957
     85  OH        15.5730   40.2560    7.8570 O.3   417  TYR417     -0.2866
     86  N         20.6180   49.7470   13.3110 N.3   431  VAL431     -0.1231
     87  CA        21.1970   48.3990   13.3880 C.3   431  VAL431      0.1692
     88  C         21.9340   48.0450   12.0840 C.2   431  VAL431      0.2592
     89  O         23.0090   48.5810   11.8310 O.2   431  VAL431     -0.2718
     90  CB        20.1460   47.3290   13.7930 C.3   431  VAL431      0.0266
     91  CG1       20.8260   46.0250   14.1630 C.3   431  VAL431      0.0020
     92  CG2       19.3110   47.8140   14.9680 C.3   431  VAL431      0.0020
     93  N         21.3590   47.1650   11.2630 N.am  432  TYR432     -0.1976
     94  CA        21.9730   46.7800    9.9820 C.3   432  TYR432      0.1639
     95  C         21.6480   47.7550    8.8510 C.2   432  TYR432      0.2290
     96  O         22.2660   47.6990    7.7840 O.2   432  TYR432     -0.2864
     97  CB        21.5960   45.3440    9.5820 C.3   432  TYR432      0.0560
     98  CG        20.4150   44.7720   10.3360 C.ar  432  TYR432     -0.0198
     99  CD1       19.1010   45.1030    9.9820 C.ar  432  TYR432     -0.0009
    100  CD2       20.6120   43.9000   11.4080 C.ar  432  TYR432     -0.0009
    101  CE1       18.0200   44.5780   10.6750 C.ar  432  TYR432      0.0417
    102  CE2       19.5380   43.3760   12.1100 C.ar  432  TYR432      0.0417
    103  CZ        18.2460   43.7130   11.7400 C.ar  432  TYR432      0.1957
    104  OH        17.1810   43.1840   12.4340 O.3   432  TYR432     -0.2866
    105  N         11.1850   35.9920   18.3480 N.3   534  LEU534     -0.1245
    106  CA        11.2200   36.6690   17.0490 C.3   534  LEU534      0.1561
    107  C         10.9250   35.7210   15.8710 C.2   534  LEU534      0.2260
    108  O         10.6030   36.1790   14.7690 O.2   534  LEU534     -0.2867
    109  CB        12.5690   37.3670   16.8530 C.3   534  LEU534      0.0270
    110  CG        12.9670   38.4700   17.8470 C.3   534  LEU534      0.0019
    111  CD1       14.3790   38.9450   17.5470 C.3   534  LEU534      0.0001
    112  CD2       12.0000   39.6480   17.8220 C.3   534  LEU534      0.0001
@<TRIPOS>BOND
     1    77    76    2
     2    76    75    1
     3    74    75    1
     4    75    78    1
     5    78    79    1
     6    79    80   ar
     7    79    81   ar
     8    80    82   ar
     9    81    83   ar
    10    82    84   ar
    11    83    84   ar
    12    63    65   ar
    13    63    61   ar
    14    65    64   ar
    15    84    85    1
    16    61    60   ar
    17    64    62   ar
    18    96    95    2
    19    55    56    1
    20    60    62   ar
    21    60    59    1
    22    29    30    1
    23    95    94    1
    24    49    48    2
    25    56    59    1
    26    56    57    1
    27    48    47    1
    28    97    94    1
    29    97    98    1
    30    30    33    1
    31    30    31    1
    32    94    93    1
    33    99    98   ar
    34    99   101   ar
    35    33    34    1
    36    66    57   am
    37    66    67    1
    38    31    32    2
    39    98   100   ar
    40    57    58    2
    41    50    47    1
    42    50    51    1
    43   101   103   ar
    44    47    46    1
    45    68    67    1
    46    68    69    2
    47    67    70    1
    48    73    71    1
    49    93    88   am
    50   100   102   ar
    51    70    71    1
    52    34    36   ar
    53    34    35   ar
    54   103   102   ar
    55   103   104    1
    56    52    51    1
    57    52    53    1
    58    89    88    2
    59    88    87    1
    60    71    72    1
    61    37    38    1
    62    54    53    1
    63    86    87    1
    64    87    90    1
    65    38    39    1
    66    38    41    1
    67    90    91    1
    68    90    92    1
    69    42    41    1
    70    42    43    1
    71    39    40    2
    72   108   107    2
    73    43    45   ar
    74    43    44   ar
    75   107   106    1
    76    17    15   am
    77    16    15    2
    78    15    14    1
    79   109   106    1
    80   109   110    1
    81   106   105    1
    82    12    11    2
    83    14    13    1
    84   111   110    1
    85   112   110    1
    86    27    25   ar
    87    27    28   ar
    88    25    23   ar
    89    11    10    1
    90    11    18   am
    91    28    26   ar
    92    13    10    1
    93    10     9    1
    94    19    18    1
    95    19    20    1
    96    19    22    1
    97    21    20    2
    98    23    22    1
    99    23    24   ar
   100    26    24   ar
   101     7     6    1
   102     8     6    1
   103     6     5    1
   104     5     2    1
   105     2     1    1
   106     2     3    1
   107     3     4    2
