@<TRIPOS>MOLECULE
tmp/4cvkA03.pdb
 76 71 0 0 0
SMALL
GASTEIGER

@<TRIPOS>ATOM
      1  N         15.8690  -29.2250   -7.9630 N.3   112  LYS112     -0.1245
      2  CA        14.4430  -28.9860   -8.2160 C.3   112  LYS112      0.1561
      3  C         13.7660  -30.1490   -8.9020 C.2   112  LYS112      0.2260
      4  O         12.5960  -30.3970   -8.6530 O.2   112  LYS112     -0.2867
      5  CB        14.2220  -27.6910   -9.0020 C.3   112  LYS112      0.0271
      6  CG        14.6430  -27.7410  -10.4610 C.3   112  LYS112      0.0035
      7  CD        14.6880  -26.3210  -10.9870 C.3   112  LYS112      0.0206
      8  CE        14.8880  -26.3110  -12.5000 C.3   112  LYS112      0.1093
      9  NZ        16.2580  -26.7390  -12.9050 N.3   112  LYS112     -0.1314
     10  N         12.8740  -31.5970  -18.1900 N.3   139  ASN139     -0.1240
     11  CA        13.1570  -30.2540  -17.7440 C.3   139  ASN139      0.1653
     12  C         12.4420  -29.1830  -18.6190 C.2   139  ASN139      0.2266
     13  O         13.0150  -28.1150  -18.8640 O.2   139  ASN139     -0.2867
     14  CB        14.6710  -29.9860  -17.6530 C.3   139  ASN139      0.1155
     15  CG        15.4190  -30.9970  -16.7600 C.2   139  ASN139      0.2627
     16  OD1       16.2950  -31.7130  -17.2420 O.2   139  ASN139     -0.2716
     17  ND2       15.0840  -31.0490  -15.4670 N.am  139  ASN139     -0.0877
     18  N         10.7990  -26.4630  -18.6020 N.3   141  ASN141     -0.1225
     19  CA        10.7060  -25.6110  -17.4180 C.3   141  ASN141      0.1785
     20  C         11.0330  -24.1200  -17.6240 C.2   141  ASN141      0.2597
     21  O         11.0910  -23.3590  -16.6490 O.2   141  ASN141     -0.2718
     22  CB        11.5750  -26.2100  -16.2990 C.3   141  ASN141      0.1169
     23  CG        13.0650  -26.0890  -16.5740 C.2   141  ASN141      0.2627
     24  OD1       13.5180  -25.2490  -17.3870 O.2   141  ASN141     -0.2716
     25  ND2       13.8490  -26.9200  -15.8900 N.am  141  ASN141     -0.0877
     26  N         11.2450  -23.7000  -18.8720 N.am  142  ASN142     -0.1960
     27  CA        11.5890  -22.3020  -19.1700 C.3   142  ASN142      0.1819
     28  C         10.3820  -21.5200  -19.7000 C.2   142  ASN142      0.2621
     29  O          9.2410  -22.0000  -19.5680 O.2   142  ASN142     -0.2715
     30  CB        12.8300  -22.2040  -20.0980 C.3   142  ASN142      0.1195
     31  CG        12.5720  -22.6920  -21.5060 C.2   142  ASN142      0.2630
     32  OD1       11.4410  -22.9290  -21.9100 O.2   142  ASN142     -0.2716
     33  ND2       13.6370  -22.8330  -22.2720 N.am  142  ASN142     -0.0877
     34  N         10.6100  -20.3110  -20.2290 N.am  143  ASP143     -0.1971
     35  CA         9.5160  -19.4860  -20.7290 C.3   143  ASP143      0.1709
     36  C          8.6430  -20.1680  -21.8150 C.2   143  ASP143      0.2293
     37  O          7.5370  -19.7000  -22.0430 O.2   143  ASP143     -0.2864
     38  CB         9.9900  -18.0980  -21.2050 C.3   143  ASP143      0.1436
     39  CG        11.0860  -18.1670  -22.2950 C.2   143  ASP143      0.3671
     40  OD1       11.5220  -19.2630  -22.6590 O.co2 143  ASP143     -0.2456
     41  OD2       11.5800  -17.0990  -22.7190 O.co2 143  ASP143     -0.2456
     42  N         12.6190  -23.2560  -14.2660 N.3   165  GLY165     -0.1210
     43  CA        14.0380  -23.0190  -14.4960 C.3   165  GLY165      0.1956
     44  C         14.2450  -21.5950  -14.9810 C.2   165  GLY165      0.2612
     45  O         13.2830  -20.9630  -15.3740 O.2   165  GLY165     -0.2717
     46  N         15.4910  -21.1040  -14.9260 N.am  166  ALA166     -0.1965
     47  CA        15.8550  -19.7450  -15.3840 C.3   166  ALA166      0.1728
     48  C         17.3290  -19.6670  -15.7620 C.2   166  ALA166      0.2617
     49  O         18.1790  -20.3610  -15.1660 O.2   166  ALA166     -0.2715
     50  CB        15.5840  -18.7090  -14.3070 C.3   166  ALA166      0.0334
     51  N         17.6310  -18.8160  -16.7470 N.am  167  SER167     -0.1936
     52  CA        19.0230  -18.3910  -16.9850 C.3   167  SER167      0.2055
     53  C         19.1320  -16.8720  -16.9730 C.2   167  SER167      0.2642
     54  O         20.1870  -16.3170  -17.3150 O.2   167  SER167     -0.2714
     55  CB        19.5690  -18.9810  -18.2930 C.3   167  SER167      0.2130
     56  OG        18.7360  -18.6010  -19.3720 O.3   167  SER167     -0.2179
     57  N         18.0730  -16.1960  -16.5050 N.am  168  ARG168     -0.1977
     58  CA        18.0890  -14.7620  -16.4030 C.3   168  ARG168      0.1597
     59  C         17.0670  -14.2670  -15.4000 C.2   168  ARG168      0.2287
     60  O         16.0890  -14.9610  -15.0810 O.2   168  ARG168     -0.2864
     61  CB        17.8030  -14.1380  -17.7750 C.3   168  ARG168      0.0334
     62  CG        16.3990  -14.4490  -18.2900 C.3   168  ARG168      0.0492
     63  CD        16.0860  -13.8580  -19.6440 C.3   168  ARG168      0.2205
     64  NE        14.6920  -14.0840  -19.9930 N.pl3 168  ARG168     -0.0865
     65  CZ        14.2090  -15.1150  -20.6880 C.cat 168  ARG168      0.5346
     66  NH1       14.9940  -16.0400  -21.1930 N.pl3 168  ARG168      0.1354
     67  NH2       12.9070  -15.2040  -20.9050 N.pl3 168  ARG168      0.1354
     68  N         12.7370  -14.3540  -15.6260 N.3   171  GLU171     -0.1245
     69  CA        12.1540  -15.5250  -16.2910 C.3   171  GLU171      0.1567
     70  C         11.1500  -16.2750  -15.3830 C.2   171  GLU171      0.2260
     71  O          9.9780  -16.5000  -15.7560 O.2   171  GLU171     -0.2867
     72  CB        13.2520  -16.4590  -16.8000 C.3   171  GLU171      0.0388
     73  CG        12.7240  -17.6510  -17.6140 C.3   171  GLU171      0.1160
     74  CD        13.7850  -18.2980  -18.4840 C.2   171  GLU171      0.3649
     75  OE1       14.9810  -18.0660  -18.2230 O.co2 171  GLU171     -0.2457
     76  OE2       13.4290  -19.0140  -19.4520 O.co2 171  GLU171     -0.2457
@<TRIPOS>BOND
     1    41    39   ar
     2    40    39   ar
     3    39    38    1
     4    33    31   am
     5    37    36    2
     6    32    31    2
     7    36    35    1
     8    31    30    1
     9    38    35    1
    10    66    65    1
    11    67    65    1
    12    35    34    1
    13    65    64    2
    14    34    28   am
    15    30    27    1
    16    64    63    1
    17    28    29    2
    18    28    27    1
    19    63    62    1
    20    76    74   ar
    21    56    55    1
    22    27    26    1
    23    26    20   am
    24    13    12    2
    25    12    11    1
    26    18    19    1
    27    74    75   ar
    28    74    73    1
    29    55    52    1
    30    62    61    1
    31    10    11    1
    32    61    58    1
    33    11    14    1
    34    14    15    1
    35    20    19    1
    36    20    21    2
    37    73    72    1
    38    19    22    1
    39    24    23    2
    40    54    53    2
    41    16    15    2
    42    52    53    1
    43    52    51    1
    44    53    57   am
    45    72    69    1
    46    15    17   am
    47    51    48   am
    48    23    22    1
    49    23    25   am
    50    57    58    1
    51    58    59    1
    52    69    68    1
    53    69    70    1
    54    48    47    1
    55    48    49    2
    56    71    70    2
    57    59    60    2
    58    47    46    1
    59    47    50    1
    60    45    44    2
    61    44    46   am
    62    44    43    1
    63    43    42    1
    64     9     8    1
    65     8     7    1
    66     7     6    1
    67     6     5    1
    68     5     2    1
    69     3     4    2
    70     3     2    1
    71     2     1    1
