@<TRIPOS>MOLECULE
tmp/4cvlA00.pdb
 127 118 0 0 0
SMALL
GASTEIGER

@<TRIPOS>ATOM
      1  N         19.0890  -23.7220   -7.5830 N.3   103  SER103     -0.1202
      2  CA        20.2460  -24.0610   -8.4200 C.3   103  SER103      0.2020
      3  C         20.2530  -25.5590   -8.7590 C.2   103  SER103      0.2619
      4  O         20.4340  -25.9450   -9.9090 O.2   103  SER103     -0.2717
      5  CB        21.5680  -23.6590   -7.7400 C.3   103  SER103      0.2103
      6  OG        21.7840  -22.2680   -7.8340 O.3   103  SER103     -0.2182
      7  N         20.0350  -26.3930   -7.7570 N.am  104  SER104     -0.1937
      8  CA        20.0910  -27.8300   -7.9470 C.3   104  SER104      0.2055
      9  C         19.0450  -28.5550   -7.1070 C.2   104  SER104      0.2644
     10  O         18.7080  -28.1180   -5.9890 O.2   104  SER104     -0.2714
     11  CB        21.4650  -28.3150   -7.5410 C.3   104  SER104      0.2130
     12  OG        21.8320  -27.6930   -6.3170 O.3   104  SER104     -0.2179
     13  N         18.5570  -29.6710   -7.6400 N.am  105  GLY105     -0.1939
     14  CA        17.6660  -30.5440   -6.9010 C.3   105  GLY105      0.2014
     15  C         16.2170  -30.3670   -7.2780 C.2   105  GLY105      0.2639
     16  O         15.3740  -31.1740   -6.8810 O.2   105  GLY105     -0.2714
     17  N         15.9020  -29.3390   -8.0530 N.am  106  LYS106     -0.1963
     18  CA        14.5100  -29.1180   -8.3740 C.3   106  LYS106      0.1728
     19  C         13.8060  -30.3190   -9.0420 C.2   106  LYS106      0.2617
     20  O         12.6700  -30.6330   -8.6640 O.2   106  LYS106     -0.2715
     21  CB        14.3000  -27.7950   -9.1200 C.3   106  LYS106      0.0311
     22  CG        14.8440  -27.6550  -10.5240 C.3   106  LYS106      0.0038
     23  CD        14.8130  -26.1820  -10.9640 C.3   106  LYS106      0.0206
     24  CE        15.9180  -25.8920  -11.9570 C.3   106  LYS106      0.1093
     25  NZ        17.2630  -25.8600  -11.2920 N.3   106  LYS106     -0.1314
     26  N         14.4770  -31.0180   -9.9680 N.am  107  THR107     -0.1937
     27  CA        13.9070  -32.2540  -10.5670 C.3   107  THR107      0.2028
     28  C         13.7750  -33.3940   -9.5700 C.2   107  THR107      0.2642
     29  O         12.8010  -34.1470   -9.6150 O.2   107  THR107     -0.2714
     30  CB        14.7440  -32.7920  -11.7310 C.3   107  THR107      0.1808
     31  OG1       14.7890  -31.8110  -12.7660 O.3   107  THR107     -0.2208
     32  CG2       14.1620  -34.0730  -12.2810 C.3   107  THR107      0.0379
     33  N         14.7450  -33.5710   -8.6840 N.am  108  THR108     -0.1950
     34  CA        14.5740  -34.6300   -7.7000 C.3   108  THR108      0.1897
     35  C         13.4200  -34.3070   -6.7560 C.2   108  THR108      0.2313
     36  O         12.5760  -35.1660   -6.4600 O.2   108  THR108     -0.2863
     37  CB        15.7860  -34.8490   -6.8430 C.3   108  THR108      0.1794
     38  OG1       16.9590  -34.7810   -7.6470 O.3   108  THR108     -0.2208
     39  CG2       15.6670  -36.1930   -6.1800 C.3   108  THR108      0.0378
     40  N         12.8380  -31.7460  -18.4370 N.3   133  ASN133     -0.1240
     41  CA        13.2430  -30.4020  -18.0630 C.3   133  ASN133      0.1653
     42  C         12.5480  -29.3820  -18.9820 C.2   133  ASN133      0.2266
     43  O         13.2040  -28.6000  -19.6670 O.2   133  ASN133     -0.2867
     44  CB        14.7790  -30.2640  -18.1240 C.3   133  ASN133      0.1155
     45  CG        15.4560  -30.5510  -16.7940 C.2   133  ASN133      0.2627
     46  OD1       14.8970  -30.3150  -15.7240 O.2   133  ASN133     -0.2716
     47  ND2       16.6830  -31.0410  -16.8590 N.am  133  ASN133     -0.0877
     48  N         11.0440  -26.6460  -18.1070 N.3   135  ASN135     -0.1240
     49  CA        10.9130  -25.7760  -16.9400 C.3   135  ASN135      0.1653
     50  C         11.2490  -24.3020  -17.2150 C.2   135  ASN135      0.2266
     51  O         11.2830  -23.4730  -16.2890 O.2   135  ASN135     -0.2867
     52  CB        11.7960  -26.3180  -15.8200 C.3   135  ASN135      0.1155
     53  CG        13.2630  -26.1970  -16.1390 C.2   135  ASN135      0.2627
     54  OD1       13.6670  -25.3090  -16.8850 O.2   135  ASN135     -0.2716
     55  ND2       14.0740  -27.0830  -15.5710 N.am  135  ASN135     -0.0877
     56  N          8.1640  -27.7330  -12.2690 N.3   157  GLU157     -0.1245
     57  CA         9.5530  -27.2850  -12.2100 C.3   157  GLU157      0.1567
     58  C          9.7540  -25.9240  -12.9210 C.2   157  GLU157      0.2260
     59  O          9.3440  -25.7340  -14.0810 O.2   157  GLU157     -0.2867
     60  CB        10.4840  -28.3390  -12.8260 C.3   157  GLU157      0.0388
     61  CG        11.9520  -28.1720  -12.4420 C.3   157  GLU157      0.1160
     62  CD        12.8850  -29.2430  -13.0150 C.2   157  GLU157      0.3649
     63  OE1       12.5260  -30.4600  -13.0200 O.co2 157  GLU157     -0.2457
     64  OE2       14.0100  -28.8580  -13.4280 O.co2 157  GLU157     -0.2457
     65  N         12.8740  -23.4840  -13.8560 N.3   159  GLY159     -0.1225
     66  CA        14.2710  -23.0660  -13.9670 C.3   159  GLY159      0.1811
     67  C         14.4370  -21.6480  -14.4950 C.2   159  GLY159      0.2280
     68  O         13.4940  -21.0530  -14.9940 O.2   159  GLY159     -0.2866
     69  N         14.9740  -24.8990   -3.2620 N.3   181  THR181     -0.1203
     70  CA        15.9170  -25.9080   -2.8370 C.3   181  THR181      0.1994
     71  C         17.1610  -25.2430   -2.2520 C.2   181  THR181      0.2617
     72  O         17.5850  -25.5360   -1.1310 O.2   181  THR181     -0.2717
     73  CB        16.3330  -26.7720   -4.0460 C.3   181  THR181      0.1784
     74  OG1       16.7980  -25.9280   -5.1050 O.3   181  THR181     -0.2211
     75  CG2       15.1570  -27.5960   -4.5770 C.3   181  THR181      0.0376
     76  N         17.7350  -24.3350   -3.0360 N.am  182  ASN182     -0.1974
     77  CA        19.0080  -23.6970   -2.7230 C.3   182  ASN182      0.1688
     78  C         19.3210  -22.6630   -3.8020 C.2   182  ASN182      0.2292
     79  O         18.6780  -22.6690   -4.8480 O.2   182  ASN182     -0.2864
     80  CB        20.1360  -24.7440   -2.6420 C.3   182  ASN182      0.1181
     81  CG        20.2040  -25.6290   -3.8700 C.2   182  ASN182      0.2629
     82  OD1       20.2080  -25.1380   -4.9930 O.2   182  ASN182     -0.2716
     83  ND2       20.2430  -26.9370   -3.6610 N.am  182  ASN182     -0.0877
     84  N         22.9030  -34.5630    0.0520 N.3   272  HIS272     -0.1226
     85  CA        22.0480  -33.5630   -0.6170 C.3   272  HIS272      0.1752
     86  C         20.6010  -34.0510   -0.8960 C.2   272  HIS272      0.2596
     87  O         19.6480  -33.2770   -0.8380 O.2   272  HIS272     -0.2718
     88  CB        22.7240  -33.0130   -1.8980 C.3   272  HIS272      0.0759
     89  CG        23.0620  -34.0510   -2.9430 C.ar  272  HIS272      0.0818
     90  ND1       24.2880  -34.6860   -3.0020 N.ar  272  HIS272     -0.2268
     91  CD2       22.3540  -34.5190   -4.0000 C.ar  272  HIS272      0.1154
     92  CE1       24.3100  -35.5200   -4.0270 C.ar  272  HIS272      0.1986
     93  NE2       23.1510  -35.4360   -4.6520 N.ar  272  HIS272     -0.2212
     94  N         20.4200  -35.3320   -1.1680 N.am  273  ASN273     -0.1974
     95  CA        19.0860  -35.8190   -1.4210 C.3   273  ASN273      0.1688
     96  C         18.2570  -35.9620   -0.1340 C.2   273  ASN273      0.2292
     97  O         17.0320  -36.0860   -0.1820 O.2   273  ASN273     -0.2864
     98  CB        19.1420  -37.1080   -2.2320 C.3   273  ASN273      0.1181
     99  CG        19.5440  -36.8680   -3.6870 C.2   273  ASN273      0.2629
    100  OD1       19.2780  -35.8070   -4.2580 O.2   273  ASN273     -0.2716
    101  ND2       20.1640  -37.8680   -4.2980 N.am  273  ASN273     -0.0877
    102  N         18.2790  -33.4510    1.9640 N.3   275  ALA275     -0.1231
    103  CA        17.6830  -32.1030    1.9530 C.3   275  ALA275      0.1694
    104  C         16.4960  -32.1230    0.9860 C.2   275  ALA275      0.2592
    105  O         15.3840  -31.7720    1.3840 O.2   275  ALA275     -0.2718
    106  CB        18.6970  -31.0400    1.5820 C.3   275  ALA275      0.0304
    107  N         16.7150  -32.6180   -0.2390 N.am  276  ASN276     -0.1974
    108  CA        15.6480  -32.6960   -1.2320 C.3   276  ASN276      0.1688
    109  C         14.3930  -33.3640   -0.6660 C.2   276  ASN276      0.2292
    110  O         13.2880  -32.8450   -0.7890 O.2   276  ASN276     -0.2864
    111  CB        16.1210  -33.4330   -2.4820 C.3   276  ASN276      0.1181
    112  CG        17.0690  -32.6060   -3.3320 C.2   276  ASN276      0.2629
    113  OD1       17.0210  -31.3760   -3.3470 O.2   276  ASN276     -0.2716
    114  ND2       17.9270  -33.2870   -4.0620 N.am  276  ASN276     -0.0877
    115  N         30.9110  -34.7830  -11.7350 N.3   329  ALA329     -0.1245
    116  CA        29.9420  -35.0880  -10.6880 C.3   329  ALA329      0.1562
    117  C         30.1520  -36.5240  -10.1660 C.2   329  ALA329      0.2260
    118  O         30.3550  -36.7600   -8.9660 O.2   329  ALA329     -0.2867
    119  CB        28.5250  -34.8990  -11.2010 C.3   329  ALA329      0.0290
    120  N         30.7440  -38.0060   -6.5170 N.3   333  ILE333     -0.1245
    121  CA        29.9390  -39.0600   -5.8930 C.3   333  ILE333      0.1561
    122  C         30.8320  -40.1410   -5.2700 C.2   333  ILE333      0.2260
    123  O         30.7440  -40.4350   -4.0780 O.2   333  ILE333     -0.2867
    124  CB        29.0150  -39.7250   -6.9170 C.3   333  ILE333      0.0252
    125  CG1       27.8960  -38.7690   -7.3000 C.3   333  ILE333      0.0019
    126  CG2       28.4370  -41.0180   -6.3660 C.3   333  ILE333      0.0019
    127  CD1       27.5310  -38.8450   -8.7620 C.3   333  ILE333      0.0001
@<TRIPOS>BOND
     1    43    42    2
     2    42    41    1
     3    40    41    1
     4    44    41    1
     5    44    45    1
     6    48    49    1
     7    50    49    1
     8    50    51    2
     9    49    52    1
    10    54    53    2
    11    47    45   am
    12    45    46    2
    13    53    52    1
    14    53    55   am
    15    68    67    2
    16    67    66    1
    17    59    58    2
    18    66    65    1
    19    64    62   ar
    20    63    62   ar
    21    62    61    1
    22    58    57    1
    23    60    61    1
    24    60    57    1
    25    31    30    1
    26    32    30    1
    27    56    57    1
    28    24    25    1
    29    24    23    1
    30   115   116    1
    31    30    27    1
    32   119   116    1
    33    23    22    1
    34   116   117    1
    35    27    26    1
    36    27    28    1
    37    22    21    1
    38   117   118    2
    39    26    19   am
    40     4     3    2
    41    29    28    2
    42    28    33   am
    43    21    18    1
    44    19    20    2
    45    19    18    1
    46   127   125    1
    47     3     2    1
    48     3     7   am
    49    33    34    1
    50     2     5    1
    51     2     1    1
    52    18    17    1
    53    17    15   am
    54     8     7    1
    55     8    11    1
    56     8     9    1
    57     6     5    1
    58    34    37    1
    59    34    35    1
    60    38    37    1
    61    13     9   am
    62    13    14    1
    63    11    12    1
    64   125   124    1
    65    15    14    1
    66    15    16    2
    67     9    10    2
    68   124   126    1
    69   124   121    1
    70    37    39    1
    71    35    36    2
    72   120   121    1
    73   121   122    1
    74   122   123    2
    75    74    73    1
    76    82    81    2
    77    79    78    2
    78    93    92   ar
    79    93    91   ar
    80    75    73    1
    81   101    99   am
    82   100    99    2
    83   114   112   am
    84    73    70    1
    85    92    90   ar
    86    91    89   ar
    87    81    83   am
    88    81    80    1
    89    78    77    1
    90    99    98    1
    91   113   112    2
    92   112   111    1
    93    69    70    1
    94    76    77    1
    95    76    71   am
    96    90    89   ar
    97    89    88    1
    98    70    71    1
    99    77    80    1
   100   111   108    1
   101    71    72    2
   102    98    95    1
   103    88    85    1
   104    95    94    1
   105    95    96    1
   106   108   109    1
   107   108   107    1
   108    94    86   am
   109    86    87    2
   110    86    85    1
   111   110   109    2
   112    85    84    1
   113   107   104   am
   114    97    96    2
   115   104   105    2
   116   104   103    1
   117   106   103    1
   118   103   102    1
