@<TRIPOS>MOLECULE
tmp/4cvmA02.pdb
 137 127 0 0 0
SMALL
GASTEIGER

@<TRIPOS>ATOM
      1  N         19.1110  -23.5190   -8.0690 N.3   110  SER110     -0.1202
      2  CA        20.2380  -23.7300   -8.9730 C.3   110  SER110      0.2020
      3  C         20.3310  -25.1980   -9.2960 C.2   110  SER110      0.2619
      4  O         20.6350  -25.5510  -10.4280 O.2   110  SER110     -0.2717
      5  CB        21.5630  -23.2440   -8.3610 C.3   110  SER110      0.2103
      6  OG        21.5690  -21.8500   -8.2390 O.3   110  SER110     -0.2182
      7  N         20.1100  -26.0550   -8.3040 N.am  111  SER111     -0.1937
      8  CA        20.1480  -27.4740   -8.5560 C.3   111  SER111      0.2055
      9  C         19.0750  -28.1620   -7.7160 C.2   111  SER111      0.2644
     10  O         18.6360  -27.6330   -6.6800 O.2   111  SER111     -0.2714
     11  CB        21.5580  -28.0150   -8.1960 C.3   111  SER111      0.2130
     12  OG        21.7410  -27.8100   -6.8080 O.3   111  SER111     -0.2179
     13  N         18.6430  -29.3180   -8.1960 N.am  112  GLY112     -0.1939
     14  CA        17.6560  -30.1450   -7.5130 C.3   112  GLY112      0.2014
     15  C         16.2100  -29.8830   -7.9070 C.2   112  GLY112      0.2639
     16  O         15.3290  -30.5260   -7.3640 O.2   112  GLY112     -0.2714
     17  N         15.9790  -28.9950   -8.8790 N.am  113  LYS113     -0.1963
     18  CA        14.6330  -28.6780   -9.3650 C.3   113  LYS113      0.1728
     19  C         13.8890  -29.8900   -9.8810 C.2   113  LYS113      0.2617
     20  O         12.8100  -30.2180   -9.3900 O.2   113  LYS113     -0.2715
     21  CB        14.6750  -27.6200  -10.4740 C.3   113  LYS113      0.0311
     22  CG        15.1500  -26.2470  -10.0260 C.3   113  LYS113      0.0038
     23  CD        15.0430  -25.2350  -11.1620 C.3   113  LYS113      0.0206
     24  CE        15.9040  -25.5490  -12.4010 C.3   113  LYS113      0.1093
     25  NZ        17.3300  -25.6070  -11.9380 N.3   113  LYS113     -0.1314
     26  N         14.5180  -30.6080  -10.8220 N.am  114  THR114     -0.1937
     27  CA        13.9120  -31.7820  -11.4270 C.3   114  THR114      0.2028
     28  C         13.6850  -32.8610  -10.4040 C.2   114  THR114      0.2642
     29  O         12.6390  -33.5340  -10.3900 O.2   114  THR114     -0.2714
     30  CB        14.7240  -32.2240  -12.6700 C.3   114  THR114      0.1808
     31  OG1       14.5230  -31.2360  -13.6730 O.3   114  THR114     -0.2208
     32  CG2       14.1970  -33.5670  -13.2910 C.3   114  THR114      0.0379
     33  N         14.6580  -33.0390   -9.5300 N.am  115  THR115     -0.1950
     34  CA        14.5440  -34.1040   -8.5420 C.3   115  THR115      0.1897
     35  C         13.4380  -33.8220   -7.5210 C.2   115  THR115      0.2313
     36  O         12.6560  -34.7100   -7.1940 O.2   115  THR115     -0.2863
     37  CB        15.8880  -34.3320   -7.8560 C.3   115  THR115      0.1794
     38  OG1       16.8490  -34.5670   -8.8770 O.3   115  THR115     -0.2208
     39  CG2       15.8620  -35.5100   -6.8930 C.3   115  THR115      0.0378
     40  N         12.8870  -31.2110  -18.7990 N.3   140  ASN140     -0.1240
     41  CA        13.3150  -29.9810  -18.2760 C.3   140  ASN140      0.1653
     42  C         12.6670  -28.7560  -18.9220 C.2   140  ASN140      0.2266
     43  O         13.3070  -27.6970  -19.0440 O.2   140  ASN140     -0.2867
     44  CB        14.8030  -29.9390  -18.4650 C.3   140  ASN140      0.1155
     45  CG        15.4750  -29.3930  -17.2840 C.2   140  ASN140      0.2627
     46  OD1       15.1860  -29.8080  -16.1350 O.2   140  ASN140     -0.2716
     47  ND2       16.3670  -28.4470  -17.5160 N.am  140  ASN140     -0.0877
     48  N         11.2810  -25.8620  -18.6590 N.3   142  ASN142     -0.1240
     49  CA        11.1320  -24.9680  -17.5070 C.3   142  ASN142      0.1653
     50  C         11.4030  -23.4890  -17.7390 C.2   142  ASN142      0.2266
     51  O         11.4180  -22.7180  -16.7590 O.2   142  ASN142     -0.2867
     52  CB        11.9890  -25.4810  -16.3360 C.3   142  ASN142      0.1155
     53  CG        13.4860  -25.3210  -16.5680 C.2   142  ASN142      0.2627
     54  OD1       13.9120  -24.6010  -17.4430 O.2   142  ASN142     -0.2716
     55  ND2       14.2770  -25.9580  -15.7430 N.am  142  ASN142     -0.0877
     56  N          8.0510  -27.1310  -12.6810 N.3   164  GLU164     -0.1245
     57  CA         9.4330  -26.6690  -12.5640 C.3   164  GLU164      0.1567
     58  C          9.6280  -25.2790  -13.2060 C.2   164  GLU164      0.2260
     59  O          9.2320  -25.0450  -14.3470 O.2   164  GLU164     -0.2867
     60  CB        10.3350  -27.7520  -13.1850 C.3   164  GLU164      0.0388
     61  CG        11.7850  -27.5580  -12.9190 C.3   164  GLU164      0.1160
     62  CD        12.6700  -28.6520  -13.5420 C.2   164  GLU164      0.3649
     63  OE1       12.2790  -29.8610  -13.6970 O.co2 164  GLU164     -0.2457
     64  OE2       13.8130  -28.2740  -13.7800 O.co2 164  GLU164     -0.2457
     65  N         15.1640  -24.5370   -3.8080 N.3   188  THR188     -0.1203
     66  CA        16.0990  -25.5550   -3.2670 C.3   188  THR188      0.1994
     67  C         17.3690  -24.9600   -2.7130 C.2   188  THR188      0.2617
     68  O         17.8210  -25.3290   -1.6150 O.2   188  THR188     -0.2717
     69  CB        16.4860  -26.5870   -4.3410 C.3   188  THR188      0.1784
     70  OG1       17.0410  -25.8970   -5.4850 O.3   188  THR188     -0.2211
     71  CG2       15.2190  -27.3920   -4.7210 C.3   188  THR188      0.0376
     72  N         17.9300  -24.0290   -3.4810 N.am  189  ASN189     -0.1974
     73  CA        19.2360  -23.4410   -3.2230 C.3   189  ASN189      0.1688
     74  C         19.5760  -22.3660   -4.2700 C.2   189  ASN189      0.2292
     75  O         18.9240  -22.2500   -5.3200 O.2   189  ASN189     -0.2864
     76  CB        20.3510  -24.5040   -3.2550 C.3   189  ASN189      0.1181
     77  CG        20.3020  -25.3570   -4.5040 C.2   189  ASN189      0.2629
     78  OD1       20.2930  -24.8680   -5.6370 O.2   189  ASN189     -0.2716
     79  ND2       20.2340  -26.6370   -4.3000 N.am  189  ASN189     -0.0877
     80  N         25.0180  -23.5840   -6.3280 N.3   192  THR192     -0.1218
     81  CA        25.7450  -24.8810   -6.1810 C.3   192  THR192      0.1862
     82  C         26.8340  -25.1270   -7.2990 C.2   192  THR192      0.2287
     83  O         26.8280  -24.4870   -8.3380 O.2   192  THR192     -0.2866
     84  CB        24.7260  -26.0560   -6.1200 C.3   192  THR192      0.1770
     85  OG1       23.8320  -25.9070   -7.2010 O.3   192  THR192     -0.2211
     86  CG2       23.9030  -26.0150   -4.8190 C.3   192  THR192      0.0375
     87  N         27.2240  -25.4420  -11.9270 N.3   195  VAL195     -0.1245
     88  CA        25.9280  -25.0780  -12.5490 C.3   195  VAL195      0.1561
     89  C         26.0480  -24.0640  -13.6970 C.2   195  VAL195      0.2260
     90  O         26.8960  -23.1640  -13.6710 O.2   195  VAL195     -0.2867
     91  CB        24.8770  -24.6680  -11.4810 C.3   195  VAL195      0.0252
     92  CG1       23.7520  -23.8520  -12.0960 C.3   195  VAL195      0.0019
     93  CG2       24.2830  -25.9270  -10.8520 C.3   195  VAL195      0.0019
     94  N         22.9370  -34.5620   -1.0220 N.3   285  HIS285     -0.1226
     95  CA        22.0730  -33.5050   -1.5620 C.3   285  HIS285      0.1752
     96  C         20.6270  -34.0180   -1.8110 C.2   285  HIS285      0.2596
     97  O         19.6940  -33.2270   -1.8330 O.2   285  HIS285     -0.2718
     98  CB        22.6610  -32.9370   -2.8610 C.3   285  HIS285      0.0759
     99  CG        22.8370  -33.9440   -3.9550 C.ar  285  HIS285      0.0818
    100  ND1       23.9410  -34.7710   -4.0410 N.ar  285  HIS285     -0.2268
    101  CD2       22.0530  -34.2700   -5.0060 C.ar  285  HIS285      0.1154
    102  CE1       23.8320  -35.5540   -5.0950 C.ar  285  HIS285      0.1986
    103  NE2       22.6930  -35.2750   -5.7020 N.ar  285  HIS285     -0.2212
    104  N         20.4480  -35.3190   -2.0280 N.am  286  ASN286     -0.1974
    105  CA        19.1360  -35.8510   -2.3360 C.3   286  ASN286      0.1688
    106  C         18.2880  -35.9940   -1.0530 C.2   286  ASN286      0.2292
    107  O         17.0610  -35.9650   -1.1310 O.2   286  ASN286     -0.2864
    108  CB        19.2290  -37.1430   -3.1250 C.3   286  ASN286      0.1181
    109  CG        19.3430  -36.9000   -4.6020 C.2   286  ASN286      0.2629
    110  OD1       18.7200  -35.9670   -5.1270 O.2   286  ASN286     -0.2716
    111  ND2       20.1640  -37.7010   -5.2910 N.am  286  ASN286     -0.0877
    112  N         18.3850  -33.4980    1.2350 N.3   288  ALA288     -0.1231
    113  CA        17.8350  -32.1210    1.2500 C.3   288  ALA288      0.1694
    114  C         16.6430  -32.0010    0.2340 C.2   288  ALA288      0.2592
    115  O         15.6530  -31.3930    0.5540 O.2   288  ALA288     -0.2718
    116  CB        18.9210  -31.1110    0.9320 C.3   288  ALA288      0.0304
    117  N         16.7770  -32.5810   -0.9610 N.am  289  ASN289     -0.1974
    118  CA        15.7150  -32.6130   -1.9420 C.3   289  ASN289      0.1688
    119  C         14.4590  -33.3210   -1.3790 C.2   289  ASN289      0.2292
    120  O         13.3500  -32.8190   -1.5370 O.2   289  ASN289     -0.2864
    121  CB        16.1410  -33.2350   -3.2830 C.3   289  ASN289      0.1181
    122  CG        17.2060  -32.4080   -3.9910 C.2   289  ASN289      0.2629
    123  OD1       17.3130  -31.1950   -3.7700 O.2   289  ASN289     -0.2716
    124  ND2       17.9200  -33.0310   -4.8960 N.am  289  ASN289     -0.0877
    125  N         29.8740  -33.4870  -11.7780 N.3   346  ALA346     -0.1245
    126  CA        28.8900  -33.9100  -10.7840 C.3   346  ALA346      0.1562
    127  C         29.0370  -35.4120  -10.4580 C.2   346  ALA346      0.2260
    128  O         28.9010  -35.8060   -9.3000 O.2   346  ALA346     -0.2867
    129  CB        27.4690  -33.5830  -11.2170 C.3   346  ALA346      0.0290
    130  N         29.9890  -37.3460   -6.7620 N.3   350  ILE350     -0.1245
    131  CA        29.2370  -38.4590   -6.1860 C.3   350  ILE350      0.1561
    132  C         30.1580  -39.6380   -5.8320 C.2   350  ILE350      0.2260
    133  O         30.0220  -40.2410   -4.7540 O.2   350  ILE350     -0.2867
    134  CB        28.0850  -38.9480   -7.1190 C.3   350  ILE350      0.0252
    135  CG1       27.0000  -37.8710   -7.2380 C.3   350  ILE350      0.0019
    136  CG2       27.4670  -40.2450   -6.5960 C.3   350  ILE350      0.0019
    137  CD1       25.7900  -38.2980   -8.0600 C.3   350  ILE350      0.0001
@<TRIPOS>BOND
     1    43    42    2
     2    42    41    1
     3    40    41    1
     4    48    49    1
     5    44    41    1
     6    44    45    1
     7    50    49    1
     8    50    51    2
     9    47    45   am
    10    49    52    1
    11    54    53    2
    12    45    46    2
    13    53    52    1
    14    53    55   am
    15    59    58    2
    16    64    62   ar
    17    63    62   ar
    18    89    90    2
    19    89    88    1
    20    31    30    1
    21    62    61    1
    22    32    30    1
    23    58    57    1
    24    60    61    1
    25    60    57    1
    26    56    57    1
    27    30    27    1
    28    88    87    1
    29    88    91    1
    30    24    25    1
    31    24    23    1
    32    92    91    1
    33   125   126    1
    34    91    93    1
    35    27    26    1
    36    27    28    1
    37   129   126    1
    38    23    22    1
    39    26    19   am
    40   126   127    1
    41    21    22    1
    42    21    18    1
    43   127   128    2
    44     4     3    2
    45    28    29    2
    46    28    33   am
    47    19    20    2
    48    19    18    1
    49    33    34    1
    50    18    17    1
    51     3     2    1
    52     3     7   am
    53     2     5    1
    54     2     1    1
    55    17    15   am
    56    38    37    1
    57     8     7    1
    58     8    11    1
    59     8     9    1
    60    34    37    1
    61    34    35    1
    62     5     6    1
    63    83    82    2
    64    13     9   am
    65    13    14    1
    66    11    12    1
    67   137   135    1
    68    15    14    1
    69    15    16    2
    70    37    39    1
    71     9    10    2
    72    35    36    2
    73    82    81    1
    74   135   134    1
    75    85    84    1
    76   134   136    1
    77   134   131    1
    78   130   131    1
    79    80    81    1
    80   131   132    1
    81    81    84    1
    82    84    86    1
    83   132   133    2
    84   103   102   ar
    85   103   101   ar
    86    78    77    2
    87    70    69    1
    88    75    74    2
    89   111   109   am
    90   110   109    2
    91   102   100   ar
    92   101    99   ar
    93   124   122   am
    94    71    69    1
    95   109   108    1
    96    77    79   am
    97    77    76    1
    98    69    66    1
    99    74    73    1
   100   100    99   ar
   101   122   123    2
   102   122   121    1
   103    99    98    1
   104    65    66    1
   105    72    73    1
   106    72    67   am
   107   121   118    1
   108    66    67    1
   109    76    73    1
   110   108   105    1
   111    98    95    1
   112    67    68    2
   113   105   104    1
   114   105   106    1
   115   104    96   am
   116   118   119    1
   117   118   117    1
   118    97    96    2
   119    96    95    1
   120    95    94    1
   121   120   119    2
   122   107   106    2
   123   117   114   am
   124   114   115    2
   125   114   113    1
   126   116   113    1
   127   112   113    1
