@<TRIPOS>MOLECULE
tmp/4cvmA01.pdb
 97 91 0 0 0
SMALL
GASTEIGER

@<TRIPOS>ATOM
      1  N          4.7940  -26.2720  -30.7970 N.3    30  THR30      -0.1203
      2  CA         5.7540  -25.3140  -31.3430 C.3    30  THR30       0.1994
      3  C          6.6810  -25.9560  -32.3020 C.2    30  THR30       0.2617
      4  O          7.6680  -25.3350  -32.6680 O.2    30  THR30      -0.2717
      5  CB         6.5960  -24.6550  -30.2540 C.3    30  THR30       0.1784
      6  OG1        7.2300  -25.6770  -29.4980 O.3    30  THR30      -0.2211
      7  CG2        5.6740  -23.8320  -29.3400 C.3    30  THR30       0.0376
      8  N          6.3370  -27.1570  -32.7830 N.am   31  ASP31      -0.1973
      9  CA         7.2770  -27.9130  -33.6080 C.3    31  ASP31       0.1709
     10  C          6.5890  -28.7030  -34.7240 C.2    31  ASP31       0.2293
     11  O          5.8190  -29.6180  -34.4650 O.2    31  ASP31      -0.2864
     12  CB         8.1410  -28.8260  -32.7050 C.3    31  ASP31       0.1436
     13  CG         9.4040  -29.2910  -33.3870 C.2    31  ASP31       0.3671
     14  OD1        9.4150  -29.4460  -34.6470 O.co2  31  ASP31      -0.2456
     15  OD2       10.4030  -29.4520  -32.6720 O.co2  31  ASP31      -0.2456
     16  N          7.7190  -30.9230  -36.4930 N.3    33  ARG33      -0.1245
     17  CA         8.1140  -32.3350  -36.3670 C.3    33  ARG33       0.1563
     18  C          7.2910  -33.0940  -35.3500 C.2    33  ARG33       0.2260
     19  O          7.4020  -34.2910  -35.3180 O.2    33  ARG33      -0.2867
     20  CB         9.5900  -32.4580  -36.0070 C.3    33  ARG33       0.0307
     21  CG        10.4540  -31.8470  -37.0870 C.3    33  ARG33       0.0489
     22  CD        11.8760  -31.5470  -36.6440 C.3    33  ARG33       0.2205
     23  NE        11.9250  -30.5710  -35.5560 N.pl3  33  ARG33      -0.0865
     24  CZ        13.0030  -29.8880  -35.1820 C.cat  33  ARG33       0.5346
     25  NH1       14.1630  -30.0390  -35.8100 N.pl3  33  ARG33       0.1354
     26  NH2       12.9360  -29.0590  -34.1500 N.pl3  33  ARG33       0.1354
     27  N          7.7440  -19.9680  -33.8340 N.3    44  LEU44      -0.1231
     28  CA         8.8060  -19.2890  -33.1370 C.3    44  LEU44       0.1693
     29  C         10.0640  -19.1890  -33.9950 C.2    44  LEU44       0.2593
     30  O         10.3680  -20.0920  -34.7810 O.2    44  LEU44      -0.2718
     31  CB         9.1960  -20.0610  -31.8660 C.3    44  LEU44       0.0284
     32  CG         8.0460  -20.3800  -30.9040 C.3    44  LEU44       0.0019
     33  CD1        8.4980  -21.4340  -29.9160 C.3    44  LEU44       0.0001
     34  CD2        7.5840  -19.1360  -30.1680 C.3    44  LEU44       0.0001
     35  N         10.7930  -18.0930  -33.8110 N.am   45  SER45      -0.1938
     36  CA        12.1440  -17.9150  -34.3930 C.3    45  SER45       0.2055
     37  C         13.2290  -18.3120  -33.4230 C.2    45  SER45       0.2644
     38  O         13.1290  -18.0610  -32.2420 O.2    45  SER45      -0.2714
     39  CB        12.3560  -16.4560  -34.7900 C.3    45  SER45       0.2130
     40  OG        11.8640  -16.2740  -36.1050 O.3    45  SER45      -0.2179
     41  N         14.2620  -18.9610  -33.9200 N.am   46  GLY46      -0.1940
     42  CA        15.3620  -19.3520  -33.0980 C.3    46  GLY46       0.1998
     43  C         16.6800  -19.0910  -33.7880 C.2    46  GLY46       0.2480
     44  O         16.7300  -18.4660  -34.8680 O.2    46  GLY46      -0.2729
     45  N         17.7510  -19.5930  -33.1920 N.am   47  PRO47      -0.2726
     46  CA        19.0970  -19.4170  -33.7580 C.3    47  PRO47       0.1402
     47  C         19.3560  -20.2920  -35.0070 C.2    47  PRO47       0.2269
     48  O         20.1990  -19.9230  -35.8210 O.2    47  PRO47      -0.2865
     49  CB        20.0110  -19.8110  -32.6130 C.3    47  PRO47       0.0296
     50  CG        19.1630  -20.7060  -31.7000 C.3    47  PRO47       0.0237
     51  CD        17.7600  -20.2730  -31.8770 C.3    47  PRO47       0.0939
     52  N         16.4270  -22.2700  -36.8000 N.3    49  PHE49      -0.1241
     53  CA        15.2850  -22.3060  -37.7120 C.3    49  PHE49       0.1605
     54  C         14.2620  -21.2120  -37.4590 C.2    49  PHE49       0.2264
     55  O         14.2400  -20.5550  -36.4160 O.2    49  PHE49      -0.2867
     56  CB        14.5730  -23.6640  -37.5910 C.3    49  PHE49       0.0534
     57  CG        15.4700  -24.8740  -37.7810 C.ar   49  PHE49      -0.0203
     58  CD1       15.9020  -25.2540  -39.0420 C.ar   49  PHE49      -0.0042
     59  CD2       15.8320  -25.6550  -36.7000 C.ar   49  PHE49      -0.0042
     60  CE1       16.6960  -26.3910  -39.2150 C.ar   49  PHE49      -0.0003
     61  CE2       16.6170  -26.7820  -36.8480 C.ar   49  PHE49      -0.0003
     62  CZ        17.0660  -27.1480  -38.1080 C.ar   49  PHE49      -0.0000
     63  N          6.1410  -15.6740  -28.7260 N.3    86  ARG86      -0.1245
     64  CA         6.6130  -16.0840  -27.3860 C.3    86  ARG86       0.1563
     65  C          5.6750  -15.5430  -26.3330 C.2    86  ARG86       0.2260
     66  O          5.2050  -16.3050  -25.4970 O.2    86  ARG86      -0.2867
     67  CB         8.0270  -15.6520  -27.0680 C.3    86  ARG86       0.0307
     68  CG         9.0050  -16.1870  -28.0710 C.3    86  ARG86       0.0489
     69  CD        10.4340  -15.8030  -27.7740 C.3    86  ARG86       0.2205
     70  NE        11.3080  -16.6680  -28.5680 N.pl3  86  ARG86      -0.0865
     71  CZ        12.0620  -17.6630  -28.0880 C.cat  86  ARG86       0.5346
     72  NH1       12.1200  -17.9320  -26.7680 N.pl3  86  ARG86       0.1354
     73  NH2       12.7920  -18.3860  -28.9460 N.pl3  86  ARG86       0.1354
     74  N         11.4030  -28.8820  -19.2920 N.3   141  LEU141     -0.1245
     75  CA        10.6700  -27.8080  -19.9990 C.3   141  LEU141      0.1561
     76  C         10.2980  -26.6970  -19.0000 C.2   141  LEU141      0.2260
     77  O          9.1580  -26.6060  -18.5490 O.2   141  LEU141     -0.2867
     78  CB         9.4080  -28.3560  -20.6920 C.3   141  LEU141      0.0270
     79  CG         9.6590  -29.2880  -21.8930 C.3   141  LEU141      0.0019
     80  CD1        8.3580  -29.6870  -22.5690 C.3   141  LEU141      0.0001
     81  CD2       10.5920  -28.7350  -22.9400 C.3   141  LEU141      0.0001
     82  N         11.5630  -23.0710  -19.0000 N.3   143  ASN143     -0.1240
     83  CA        11.9640  -21.6900  -19.2790 C.3   143  ASN143      0.1653
     84  C         10.7580  -20.9020  -19.7550 C.2   143  ASN143      0.2266
     85  O          9.5950  -21.3370  -19.5880 O.2   143  ASN143     -0.2867
     86  CB        13.1970  -21.6210  -20.2430 C.3   143  ASN143      0.1155
     87  CG        12.8820  -22.0660  -21.6880 C.2   143  ASN143      0.2627
     88  OD1       11.7230  -22.2580  -22.0760 O.2   143  ASN143     -0.2716
     89  ND2       13.9240  -22.1970  -22.4930 N.am  143  ASN143     -0.0877
     90  N          9.4550  -20.6180  -22.5090 N.3   145  LEU145     -0.1245
     91  CA         8.5940  -21.4060  -23.4410 C.3   145  LEU145      0.1561
     92  C          8.0870  -22.6830  -22.7720 C.2   145  LEU145      0.2260
     93  O          6.8840  -23.0820  -22.9460 O.2   145  LEU145     -0.2867
     94  CB         9.3740  -21.8440  -24.7110 C.3   145  LEU145      0.0270
     95  CG        10.1370  -20.7540  -25.4940 C.3   145  LEU145      0.0019
     96  CD1       10.8850  -21.3070  -26.6880 C.3   145  LEU145      0.0001
     97  CD2        9.2030  -19.6360  -25.9070 C.3   145  LEU145      0.0001
@<TRIPOS>BOND
     1    60    58   ar
     2    60    62   ar
     3    58    57   ar
     4    62    61   ar
     5    57    56    1
     6    57    59   ar
     7    53    56    1
     8    53    54    1
     9    53    52    1
    10    54    55    2
    11    21    22    1
    12    21    20    1
    13    61    59   ar
    14    22    23    1
    15    16    17    1
    16    17    20    1
    17    17    18    1
    18    40    39    1
    19    48    47    2
    20    25    24    1
    21    23    24    2
    22    18    19    2
    23    24    26    1
    24    47    46    1
    25    44    43    2
    26    39    36    1
    27    30    29    2
    28    10    11    2
    29    10     9    1
    30    14    13   ar
    31    36    35    1
    32    36    37    1
    33    29    35   am
    34    29    28    1
    35    41    37   am
    36    41    42    1
    37    27    28    1
    38    43    45   am
    39    43    42    1
    40    46    45    1
    41    46    49    1
    42     9     8    1
    43     9    12    1
    44    37    38    2
    45    13    12    1
    46    13    15   ar
    47    45    51    1
    48    28    31    1
    49     8     3   am
    50     4     3    2
    51    49    50    1
    52     3     2    1
    53    51    50    1
    54    31    32    1
    55     2     1    1
    56     2     5    1
    57    32    34    1
    58    32    33    1
    59     5     6    1
    60     5     7    1
    61    73    71    1
    62    63    64    1
    63    70    71    2
    64    70    69    1
    65    71    72    1
    66    68    69    1
    67    68    67    1
    68    64    67    1
    69    64    65    1
    70    96    95    1
    71    65    66    2
    72    97    95    1
    73    95    94    1
    74    94    91    1
    75    91    92    1
    76    91    90    1
    77    93    92    2
    78    81    79    1
    79    80    79    1
    80    89    87   am
    81    88    87    2
    82    79    78    1
    83    87    86    1
    84    78    75    1
    85    86    83    1
    86    75    74    1
    87    75    76    1
    88    84    85    2
    89    84    83    1
    90    83    82    1
    91    76    77    2
