@<TRIPOS>MOLECULE
tmp/4cvmA00.pdb
 117 115 0 0 0
SMALL
GASTEIGER

@<TRIPOS>ATOM
      1  N          4.7940  -26.2720  -30.7970 N.3    30  THR30      -0.1203
      2  CA         5.7540  -25.3140  -31.3430 C.3    30  THR30       0.1994
      3  C          6.6810  -25.9560  -32.3020 C.2    30  THR30       0.2618
      4  O          7.6680  -25.3350  -32.6680 O.2    30  THR30      -0.2717
      5  CB         6.5960  -24.6550  -30.2540 C.3    30  THR30       0.1784
      6  OG1        7.2300  -25.6770  -29.4980 O.3    30  THR30      -0.2211
      7  CG2        5.6740  -23.8320  -29.3400 C.3    30  THR30       0.0376
      8  N          6.3370  -27.1570  -32.7830 N.am   31  ASP31      -0.1959
      9  CA         7.2770  -27.9130  -33.6080 C.3    31  ASP31       0.1840
     10  C          6.5890  -28.7030  -34.7240 C.2    31  ASP31       0.2623
     11  O          5.8190  -29.6180  -34.4650 O.2    31  ASP31      -0.2715
     12  CB         8.1410  -28.8260  -32.7050 C.3    31  ASP31       0.1450
     13  CG         9.4040  -29.2910  -33.3870 C.2    31  ASP31       0.3671
     14  OD1        9.4150  -29.4460  -34.6470 O.co2  31  ASP31      -0.2456
     15  OD2       10.4030  -29.4520  -32.6720 O.co2  31  ASP31      -0.2456
     16  N          6.8620  -28.3590  -35.9720 N.am   32  SER32      -0.1936
     17  CA         6.2620  -29.1010  -37.1020 C.3    32  SER32       0.2055
     18  C          6.6110  -30.5550  -37.1280 C.2    32  SER32       0.2642
     19  O          5.8500  -31.3440  -37.6960 O.2    32  SER32      -0.2714
     20  CB         6.6590  -28.5250  -38.4570 C.3    32  SER32       0.2130
     21  OG         8.0130  -28.7290  -38.6620 O.3    32  SER32      -0.2179
     22  N          7.7190  -30.9230  -36.4930 N.am   33  ARG33      -0.1977
     23  CA         8.1140  -32.3350  -36.3670 C.3    33  ARG33       0.1597
     24  C          7.2910  -33.0940  -35.3500 C.2    33  ARG33       0.2287
     25  O          7.4020  -34.2910  -35.3180 O.2    33  ARG33      -0.2864
     26  CB         9.5900  -32.4580  -36.0070 C.3    33  ARG33       0.0334
     27  CG        10.4540  -31.8470  -37.0870 C.3    33  ARG33       0.0492
     28  CD        11.8760  -31.5470  -36.6440 C.3    33  ARG33       0.2205
     29  NE        11.9250  -30.5710  -35.5560 N.pl3  33  ARG33      -0.0865
     30  CZ        13.0030  -29.8880  -35.1820 C.cat  33  ARG33       0.5346
     31  NH1       14.1630  -30.0390  -35.8100 N.pl3  33  ARG33       0.1354
     32  NH2       12.9360  -29.0590  -34.1500 N.pl3  33  ARG33       0.1354
     33  N         -0.4830  -24.7080  -34.3190 N.3    41  PHE41      -0.1241
     34  CA         0.9560  -24.5560  -34.4770 C.3    41  PHE41       0.1605
     35  C          1.3590  -23.1160  -34.0510 C.2    41  PHE41       0.2264
     36  O          0.6910  -22.1300  -34.3990 O.2    41  PHE41      -0.2867
     37  CB         1.3960  -24.7650  -35.9000 C.3    41  PHE41       0.0534
     38  CG         2.8520  -24.5720  -36.1220 C.ar   41  PHE41      -0.0203
     39  CD1        3.7760  -25.3750  -35.4910 C.ar   41  PHE41      -0.0042
     40  CD2        3.3080  -23.6500  -37.0580 C.ar   41  PHE41      -0.0042
     41  CE1        5.1350  -25.2280  -35.7530 C.ar   41  PHE41      -0.0003
     42  CE2        4.6540  -23.5450  -37.3510 C.ar   41  PHE41      -0.0003
     43  CZ         5.5730  -24.2980  -36.6790 C.ar   41  PHE41      -0.0000
     44  N          7.7440  -19.9680  -33.8340 N.3    44  LEU44      -0.1231
     45  CA         8.8060  -19.2890  -33.1370 C.3    44  LEU44       0.1693
     46  C         10.0640  -19.1890  -33.9950 C.2    44  LEU44       0.2593
     47  O         10.3680  -20.0920  -34.7810 O.2    44  LEU44      -0.2718
     48  CB         9.1960  -20.0610  -31.8660 C.3    44  LEU44       0.0284
     49  CG         8.0460  -20.3800  -30.9040 C.3    44  LEU44       0.0019
     50  CD1        8.4980  -21.4340  -29.9160 C.3    44  LEU44       0.0001
     51  CD2        7.5840  -19.1360  -30.1680 C.3    44  LEU44       0.0001
     52  N         10.7930  -18.0930  -33.8110 N.am   45  SER45      -0.1938
     53  CA        12.1440  -17.9150  -34.3930 C.3    45  SER45       0.2055
     54  C         13.2290  -18.3120  -33.4230 C.2    45  SER45       0.2644
     55  O         13.1290  -18.0610  -32.2420 O.2    45  SER45      -0.2714
     56  CB        12.3560  -16.4560  -34.7900 C.3    45  SER45       0.2130
     57  OG        11.8640  -16.2740  -36.1050 O.3    45  SER45      -0.2179
     58  N         14.2620  -18.9610  -33.9200 N.am   46  GLY46      -0.1940
     59  CA        15.3620  -19.3520  -33.0980 C.3    46  GLY46       0.1999
     60  C         16.6800  -19.0910  -33.7880 C.2    46  GLY46       0.2481
     61  O         16.7300  -18.4660  -34.8680 O.2    46  GLY46      -0.2729
     62  N         17.7510  -19.5930  -33.1920 N.am   47  PRO47      -0.2715
     63  CA        19.0970  -19.4170  -33.7580 C.3    47  PRO47       0.1536
     64  C         19.3560  -20.2920  -35.0070 C.2    47  PRO47       0.2598
     65  O         20.1990  -19.9230  -35.8210 O.2    47  PRO47      -0.2715
     66  CB        20.0110  -19.8110  -32.6130 C.3    47  PRO47       0.0310
     67  CG        19.1630  -20.7060  -31.7000 C.3    47  PRO47       0.0237
     68  CD        17.7600  -20.2730  -31.8770 C.3    47  PRO47       0.0939
     69  N         18.6360  -21.4080  -35.1550 N.am   48  ARG48      -0.1964
     70  CA        18.8330  -22.3570  -36.2600 C.3    48  ARG48       0.1729
     71  C         17.6800  -22.3660  -37.2610 C.2    48  ARG48       0.2616
     72  O         17.9100  -22.4270  -38.4700 O.2    48  ARG48      -0.2715
     73  CB        19.1110  -23.7560  -35.7050 C.3    48  ARG48       0.0348
     74  CG        20.3950  -23.9160  -34.8810 C.3    48  ARG48       0.0492
     75  CD        21.6880  -23.4780  -35.5670 C.3    48  ARG48       0.2205
     76  NE        21.8350  -24.0540  -36.8970 N.pl3  48  ARG48      -0.0865
     77  CZ        21.9300  -25.3640  -37.1630 C.cat  48  ARG48       0.5346
     78  NH1       22.0430  -26.2860  -36.2220 N.pl3  48  ARG48       0.1354
     79  NH2       22.0000  -25.7530  -38.4320 N.pl3  48  ARG48       0.1354
     80  N         16.4270  -22.2700  -36.8000 N.am   49  PHE49      -0.1974
     81  CA        15.2850  -22.3060  -37.7120 C.3    49  PHE49       0.1639
     82  C         14.2620  -21.2120  -37.4590 C.2    49  PHE49       0.2290
     83  O         14.2400  -20.5550  -36.4160 O.2    49  PHE49      -0.2864
     84  CB        14.5730  -23.6640  -37.5910 C.3    49  PHE49       0.0560
     85  CG        15.4700  -24.8740  -37.7810 C.ar   49  PHE49      -0.0200
     86  CD1       15.9020  -25.2540  -39.0420 C.ar   49  PHE49      -0.0042
     87  CD2       15.8320  -25.6550  -36.7000 C.ar   49  PHE49      -0.0042
     88  CE1       16.6960  -26.3910  -39.2150 C.ar   49  PHE49      -0.0003
     89  CE2       16.6170  -26.7820  -36.8480 C.ar   49  PHE49      -0.0003
     90  CZ        17.0660  -27.1480  -38.1080 C.ar   49  PHE49      -0.0000
     91  N         10.1120  -21.0800  -37.3800 N.3    51  GLY51      -0.1225
     92  CA         8.8300  -21.7790  -37.4890 C.3    51  GLY51       0.1811
     93  C          7.8970  -21.3570  -38.6270 C.2    51  GLY51       0.2280
     94  O          7.0820  -22.1740  -39.1510 O.2    51  GLY51      -0.2866
     95  N          7.3150  -23.3940  -41.9720 N.3    54  TYR54      -0.1241
     96  CA         6.7810  -24.7810  -41.9480 C.3    54  TYR54       0.1605
     97  C          5.2550  -24.8650  -42.0480 C.2    54  TYR54       0.2264
     98  O          4.6540  -25.8620  -41.6220 O.2    54  TYR54      -0.2867
     99  CB         7.2880  -25.5530  -40.7090 C.3    54  TYR54       0.0534
    100  CG         8.7780  -25.6110  -40.7300 C.ar   54  TYR54      -0.0201
    101  CD1        9.4570  -26.5660  -41.5060 C.ar   54  TYR54      -0.0009
    102  CD2        9.5350  -24.6780  -40.0440 C.ar   54  TYR54      -0.0009
    103  CE1       10.8390  -26.5710  -41.5630 C.ar   54  TYR54       0.0417
    104  CE2       10.9120  -24.6930  -40.0900 C.ar   54  TYR54       0.0417
    105  CZ        11.5620  -25.6320  -40.8540 C.ar   54  TYR54       0.1957
    106  OH        12.9520  -25.6130  -40.9180 O.3    54  TYR54      -0.2866
    107  N          6.1410  -15.6740  -28.7260 N.3    86  ARG86      -0.1245
    108  CA         6.6130  -16.0840  -27.3860 C.3    86  ARG86       0.1563
    109  C          5.6750  -15.5430  -26.3330 C.2    86  ARG86       0.2260
    110  O          5.2050  -16.3050  -25.4970 O.2    86  ARG86      -0.2867
    111  CB         8.0270  -15.6520  -27.0680 C.3    86  ARG86       0.0307
    112  CG         9.0050  -16.1870  -28.0710 C.3    86  ARG86       0.0489
    113  CD        10.4340  -15.8030  -27.7740 C.3    86  ARG86       0.2205
    114  NE        11.3080  -16.6680  -28.5680 N.pl3  86  ARG86      -0.0865
    115  CZ        12.0620  -17.6630  -28.0880 C.cat  86  ARG86       0.5346
    116  NH1       12.1200  -17.9320  -26.7680 N.pl3  86  ARG86       0.1354
    117  NH2       12.7920  -18.3860  -28.9460 N.pl3  86  ARG86       0.1354
@<TRIPOS>BOND
     1    97    96    1
     2    97    98    2
     3    95    96    1
     4    96    99    1
     5   103   101   ar
     6   103   105   ar
     7   101   100   ar
     8   106   105    1
     9   105   104   ar
    10   100    99    1
    11   100   102   ar
    12   104   102   ar
    13    88    86   ar
    14    88    90   ar
    15    94    93    2
    16    86    85   ar
    17    21    20    1
    18    93    92    1
    19    72    71    2
    20    20    17    1
    21    79    77    1
    22    90    89   ar
    23    85    84    1
    24    85    87   ar
    25    81    84    1
    26    81    82    1
    27    81    80    1
    28    19    18    2
    29    92    91    1
    30    82    83    2
    31    42    40   ar
    32    42    43   ar
    33    71    80   am
    34    71    70    1
    35    77    76    2
    36    77    78    1
    37    18    17    1
    38    18    22   am
    39    17    16    1
    40    27    28    1
    41    27    26    1
    42    40    38   ar
    43    76    75    1
    44    89    87   ar
    45    43    41   ar
    46    28    29    1
    47    22    23    1
    48    23    26    1
    49    23    24    1
    50    70    73    1
    51    70    69    1
    52    38    37    1
    53    38    39   ar
    54    57    56    1
    55    16    10   am
    56    37    34    1
    57    65    64    2
    58    31    30    1
    59    41    39   ar
    60    73    74    1
    61    75    74    1
    62    29    30    2
    63    24    25    2
    64    30    32    1
    65    69    64   am
    66    64    63    1
    67    61    60    2
    68    56    53    1
    69    47    46    2
    70    10    11    2
    71    10     9    1
    72    14    13   ar
    73    34    33    1
    74    34    35    1
    75    36    35    2
    76    53    52    1
    77    53    54    1
    78    46    52   am
    79    46    45    1
    80    58    54   am
    81    58    59    1
    82    44    45    1
    83    60    62   am
    84    60    59    1
    85    63    62    1
    86    63    66    1
    87     9     8    1
    88     9    12    1
    89    54    55    2
    90    13    12    1
    91    13    15   ar
    92    62    68    1
    93    45    48    1
    94     8     3   am
    95     4     3    2
    96    66    67    1
    97     3     2    1
    98    68    67    1
    99    48    49    1
   100     2     1    1
   101     2     5    1
   102    49    51    1
   103    49    50    1
   104     5     6    1
   105     5     7    1
   106   117   115    1
   107   107   108    1
   108   114   115    2
   109   114   113    1
   110   115   116    1
   111   112   113    1
   112   112   111    1
   113   108   111    1
   114   108   109    1
   115   109   110    2
