@<TRIPOS>MOLECULE
tmp/4cvnD00.pdb
 113 109 0 0 0
SMALL
GASTEIGER

@<TRIPOS>ATOM
      1  N         18.4140   49.9800   16.0080 N.3     9  PRO9       -0.2102
      2  CA        18.3510   48.7250   16.7620 C.3     9  PRO9        0.1504
      3  C         18.4320   47.5570   15.8020 C.2     9  PRO9        0.2576
      4  O         17.7380   47.5750   14.7760 O.2     9  PRO9       -0.2718
      5  CB        16.9530   48.7680   17.3780 C.3     9  PRO9        0.0282
      6  CG        16.7140   50.2420   17.5980 C.3     9  PRO9        0.0208
      7  CD        17.4180   50.9600   16.4810 C.3     9  PRO9        0.0893
      8  N         19.2980   46.5920   16.1050 N.am   10  GLY10      -0.1943
      9  CA        19.4540   45.4110   15.2740 C.3    10  GLY10       0.2014
     10  C         20.5890   45.5180   14.2700 C.2    10  GLY10       0.2639
     11  O         20.8820   44.5590   13.5610 O.2    10  GLY10      -0.2714
     12  N         21.2430   46.6740   14.2160 N.am   11  VAL11      -0.1963
     13  CA        22.2770   46.9120   13.2070 C.3    11  VAL11       0.1727
     14  C         23.6070   46.1970   13.5050 C.2    11  VAL11       0.2617
     15  O         24.4380   46.0230   12.6060 O.2    11  VAL11      -0.2715
     16  CB        22.5240   48.4240   13.0130 C.3    11  VAL11       0.0290
     17  CG1       23.2990   48.9870   14.1940 C.3    11  VAL11       0.0023
     18  CG2       23.2390   48.6980   11.6970 C.3    11  VAL11       0.0023
     19  N         23.7790   45.7200   14.7380 N.am   12  GLY12      -0.1940
     20  CA        25.0310   45.1070   15.1360 C.3    12  GLY12       0.2014
     21  C         25.9320   45.9220   16.0440 C.2    12  GLY12       0.2639
     22  O         27.1150   45.6090   16.1630 O.2    12  GLY12      -0.2714
     23  N         25.3780   46.9630   16.6680 N.am   13  LYS13      -0.1963
     24  CA        26.1300   47.8520   17.5610 C.3    13  LYS13       0.1728
     25  C         26.9170   47.0670   18.6060 C.2    13  LYS13       0.2617
     26  O         28.1170   47.2790   18.7780 O.2    13  LYS13      -0.2715
     27  CB        25.1990   48.8580   18.2600 C.3    13  LYS13       0.0311
     28  CG        24.5950   49.9440   17.3540 C.3    13  LYS13       0.0038
     29  CD        23.7210   50.9220   18.1530 C.3    13  LYS13       0.0206
     30  CE        22.5510   50.2150   18.8270 C.3    13  LYS13       0.1093
     31  NZ        21.6250   49.5490   17.8650 N.3    13  LYS13      -0.1314
     32  N         26.2430   46.1610   19.3030 N.am   14  THR14      -0.1937
     33  CA        26.8870   45.4190   20.3830 C.3    14  THR14       0.2028
     34  C         27.9800   44.4710   19.8880 C.2    14  THR14       0.2643
     35  O         29.0960   44.4740   20.4260 O.2    14  THR14      -0.2714
     36  CB        25.8480   44.6670   21.2250 C.3    14  THR14       0.1808
     37  OG1       25.0060   45.6260   21.8800 O.3    14  THR14      -0.2208
     38  CG2       26.5330   43.7870   22.2830 C.3    14  THR14       0.0379
     39  N         27.6650   43.6800   18.8610 N.am   15  THR15      -0.1936
     40  CA        28.6290   42.7590   18.2550 C.3    15  THR15       0.2028
     41  C         29.9090   43.5020   17.8540 C.2    15  THR15       0.2642
     42  O         31.0250   43.1690   18.3070 O.2    15  THR15      -0.2714
     43  CB        28.0360   42.0860   16.9830 C.3    15  THR15       0.1808
     44  OG1       26.8080   41.4120   17.2980 O.3    15  THR15      -0.2208
     45  CG2       29.0240   41.0860   16.3810 C.3    15  THR15       0.0379
     46  N         29.7340   44.5340   17.0320 N.am   16  ILE16      -0.1977
     47  CA        30.8670   45.2900   16.5120 C.3    16  ILE16       0.1596
     48  C         31.6240   46.0160   17.6170 C.2    16  ILE16       0.2287
     49  O         32.8530   46.0340   17.6130 O.2    16  ILE16      -0.2864
     50  CB        30.4460   46.3000   15.4150 C.3    16  ILE16       0.0276
     51  CG1       29.7510   45.5720   14.2580 C.3    16  ILE16       0.0022
     52  CG2       31.6500   47.0680   14.8990 C.3    16  ILE16       0.0022
     53  CD1       30.6150   44.5190   13.5720 C.3    16  ILE16       0.0001
     54  N         16.3270   40.7140   11.6690 N.3    82  ARG82      -0.1245
     55  CA        16.8680   40.6460   13.0340 C.3    82  ARG82       0.1563
     56  C         15.8500   41.0560   14.1020 C.2    82  ARG82       0.2260
     57  O         15.7890   40.4580   15.1870 O.2    82  ARG82      -0.2867
     58  CB        18.1430   41.4760   13.1470 C.3    82  ARG82       0.0307
     59  CG        19.3070   40.8860   12.3540 C.3    82  ARG82       0.0489
     60  CD        20.4870   41.8350   12.2710 C.3    82  ARG82       0.2205
     61  NE        21.6430   41.2140   11.6260 N.pl3  82  ARG82      -0.0865
     62  CZ        22.7710   41.8510   11.3220 C.cat  82  ARG82       0.5346
     63  NH1       22.8950   43.1440   11.5920 N.pl3  82  ARG82       0.1354
     64  NH2       23.7700   41.1940   10.7400 N.pl3  82  ARG82       0.1354
     65  N         14.1680   39.0270   17.2230 N.3    86  ARG86      -0.1245
     66  CA        14.0620   39.4870   18.6230 C.3    86  ARG86       0.1563
     67  C         12.6510   39.4100   19.1750 C.2    86  ARG86       0.2260
     68  O         12.4530   39.5270   20.3760 O.2    86  ARG86      -0.2867
     69  CB        14.5450   40.9360   18.7700 C.3    86  ARG86       0.0307
     70  CG        16.0320   41.1220   18.7580 C.3    86  ARG86       0.0489
     71  CD        16.4080   42.5420   19.1650 C.3    86  ARG86       0.2205
     72  NE        17.8350   42.7590   18.9630 N.pl3  86  ARG86      -0.0865
     73  CZ        18.4130   43.9520   18.9320 C.cat  86  ARG86       0.5346
     74  NH1       17.6810   45.0460   19.0650 N.pl3  86  ARG86       0.1354
     75  NH2       19.7170   44.0430   18.7370 N.pl3  86  ARG86       0.1354
     76  N         27.5870   47.6840    6.9770 N.3   121  THR121     -0.1218
     77  CA        27.9120   46.3540    7.4790 C.3   121  THR121      0.1862
     78  C         27.4630   45.2560    6.5210 C.2   121  THR121      0.2287
     79  O         27.8400   44.0950    6.6880 O.2   121  THR121     -0.2866
     80  CB        27.2480   46.0830    8.8580 C.3   121  THR121      0.1770
     81  OG1       25.8210   46.1390    8.7190 O.3   121  THR121     -0.2211
     82  CG2       27.6850   47.1080    9.8930 C.3   121  THR121      0.0375
     83  N         29.1130   41.7350    5.2660 N.3   124  LYS124     -0.1231
     84  CA        30.4040   41.6920    5.9250 C.3   124  LYS124      0.1693
     85  C         30.3080   40.9440    7.2300 C.2   124  LYS124      0.2593
     86  O         29.2780   40.9700    7.9110 O.2   124  LYS124     -0.2718
     87  CB        30.9750   43.0930    6.1860 C.3   124  LYS124      0.0285
     88  CG        31.7430   43.7260    5.0340 C.3   124  LYS124      0.0035
     89  CD        30.8850   44.1510    3.8730 C.3   124  LYS124      0.0206
     90  CE        31.7250   44.7410    2.7440 C.3   124  LYS124      0.1093
     91  NZ        30.9260   45.0110    1.5110 N.3   124  LYS124     -0.1314
     92  N         31.4020   40.2770    7.5660 N.am  125  THR125     -0.1940
     93  CA        31.5510   39.6250    8.8460 C.3   125  THR125      0.2013
     94  C         31.9570   40.7040    9.8380 C.2   125  THR125      0.2484
     95  O         32.4620   41.7550    9.4310 O.2   125  THR125     -0.2729
     96  CB        32.6560   38.5610    8.7740 C.3   125  THR125      0.1807
     97  OG1       33.9310   39.2050    8.6200 O.3   125  THR125     -0.2208
     98  CG2       32.4140   37.6380    7.5920 C.3   125  THR125      0.0379
     99  N         31.7230   40.4670   11.1380 N.am  126  PRO126     -0.2726
    100  CA        32.1360   41.4170   12.1780 C.3   126  PRO126      0.1402
    101  C         33.6230   41.7470   12.0920 C.2   126  PRO126      0.2269
    102  O         34.0270   42.8860   12.3340 O.2   126  PRO126     -0.2865
    103  CB        31.8310   40.6580   13.4720 C.3   126  PRO126      0.0296
    104  CG        30.6670   39.8050   13.1110 C.3   126  PRO126      0.0237
    105  CD        30.9180   39.3640   11.6930 C.3   126  PRO126      0.0939
    106  N         34.3770   44.2040    9.2500 N.3   129  ILE129     -0.1245
    107  CA        33.8540   45.5050    9.6790 C.3   129  ILE129      0.1561
    108  C         34.7710   46.2110   10.6800 C.2   129  ILE129      0.2260
    109  O         35.0740   47.4040   10.5330 O.2   129  ILE129     -0.2867
    110  CB        32.4430   45.3560   10.2970 C.3   129  ILE129      0.0252
    111  CG1       31.4260   44.9470    9.2240 C.3   129  ILE129      0.0019
    112  CG2       32.0030   46.6470   10.9790 C.3   129  ILE129      0.0019
    113  CD1       30.1790   44.3480    9.7890 C.3   129  ILE129      0.0001
@<TRIPOS>BOND
     1    91    90    1
     2    90    89    1
     3    89    88    1
     4    88    87    1
     5    83    84    1
     6    84    87    1
     7    84    85    1
     8    78    79    2
     9    78    77    1
    10    76    77    1
    11    85    92   am
    12    85    86    2
    13    77    80    1
    14    92    93    1
    15    98    96    1
    16    97    96    1
    17    81    80    1
    18    96    93    1
    19    93    94    1
    20    80    82    1
    21   111   113    1
    22   111   110    1
    23   106   107    1
    24    95    94    2
    25   107   110    1
    26   107   108    1
    27    94    99   am
    28   110   112    1
    29   109   108    2
    30    64    62    1
    31    99   105    1
    32    99   100    1
    33    62    63    1
    34    62    61    2
    35    61    60    1
    36    54    55    1
    37   105   104    1
    38    18    16    1
    39   101   100    1
    40   101   102    2
    41   100   103    1
    42    60    59    1
    43    59    58    1
    44    15    14    2
    45    16    13    1
    46    16    17    1
    47    55    58    1
    48    55    56    1
    49   104   103    1
    50    13    14    1
    51    13    12    1
    52    14    19   am
    53    11    10    2
    54    53    51    1
    55    56    57    2
    56    12    10   am
    57    51    50    1
    58    10     9    1
    59    19    20    1
    60     4     3    2
    61    52    50    1
    62    20    21    1
    63     9     8    1
    64    50    47    1
    65     3     8   am
    66     3     2    1
    67     1     7    1
    68     1     2    1
    69    21    22    2
    70    21    23   am
    71    45    43    1
    72     7     6    1
    73    47    46    1
    74    47    48    1
    75    23    24    1
    76     2     5    1
    77    43    44    1
    78    43    40    1
    79    46    41   am
    80    65    66    1
    81    28    29    1
    82    28    27    1
    83     5     6    1
    84    24    27    1
    85    24    25    1
    86    49    48    2
    87    41    40    1
    88    41    42    2
    89    31    30    1
    90    29    30    1
    91    40    39    1
    92    25    26    2
    93    25    32   am
    94    66    69    1
    95    66    67    1
    96    75    73    1
    97    70    69    1
    98    70    71    1
    99    39    34   am
   100    73    72    2
   101    73    74    1
   102    72    71    1
   103    67    68    2
   104    32    33    1
   105    34    33    1
   106    34    35    2
   107    33    36    1
   108    36    37    1
   109    36    38    1
