@<TRIPOS>MOLECULE
tmp/4cvqB00.pdb
 133 125 0 0 0
SMALL
GASTEIGER

@<TRIPOS>ATOM
      1  N         15.2600   16.3120   26.9130 N.3   102  GLY102     -0.1210
      2  CA        15.8610   17.5780   26.5500 C.3   102  GLY102      0.1956
      3  C         15.4440   17.9690   25.1470 C.2   102  GLY102      0.2612
      4  O         14.9690   17.1330   24.3730 O.2   102  GLY102     -0.2717
      5  N         15.6170   19.2450   24.8230 N.am  103  VAL103     -0.1965
      6  CA        15.2990   19.7630   23.4990 C.3   103  VAL103      0.1727
      7  C         16.1720   19.0830   22.4420 C.2   103  VAL103      0.2616
      8  O         15.7430   18.8730   21.3040 O.2   103  VAL103     -0.2715
      9  CB        15.4880   21.3000   23.4490 C.3   103  VAL103      0.0290
     10  CG1       15.4980   21.8160   22.0180 C.3   103  VAL103      0.0023
     11  CG2       14.4070   21.9940   24.2680 C.3   103  VAL103      0.0023
     12  N         17.3870   18.7150   22.8450 N.am  104  SER104     -0.1950
     13  CA        18.3690   18.1100   21.9480 C.3   104  SER104      0.1924
     14  C         17.8290   16.9010   21.1910 C.2   104  SER104      0.2314
     15  O         18.0450   16.7680   19.9860 O.2   104  SER104     -0.2863
     16  CB        19.6180   17.6990   22.7310 C.3   104  SER104      0.2116
     17  OG        20.2410   18.8240   23.3240 O.3   104  SER104     -0.2180
     18  N         15.0760   18.0370   18.5980 N.3   107  ILE107     -0.1245
     19  CA        15.6550   18.6970   17.4340 C.3   107  ILE107      0.1561
     20  C         16.0550   17.6530   16.3980 C.2   107  ILE107      0.2260
     21  O         15.7400   17.7830   15.2160 O.2   107  ILE107     -0.2867
     22  CB        16.8800   19.5510   17.8130 C.3   107  ILE107      0.0252
     23  CG1       16.4420   20.7840   18.6090 C.3   107  ILE107      0.0019
     24  CG2       17.6450   19.9770   16.5690 C.3   107  ILE107      0.0019
     25  CD1       17.5820   21.7020   18.9860 C.3   107  ILE107      0.0001
     26  N         23.5240   27.3320   16.6660 N.3   128  TYR128     -0.1241
     27  CA        23.7300   26.3670   17.7310 C.3   128  TYR128      0.1605
     28  C         24.0830   25.0610   17.0260 C.2   128  TYR128      0.2264
     29  O         23.2800   24.5400   16.2540 O.2   128  TYR128     -0.2867
     30  CB        22.4970   26.2180   18.6200 C.3   128  TYR128      0.0534
     31  CG        22.6810   25.1900   19.7090 C.ar  128  TYR128     -0.0201
     32  CD1       23.6020   25.3920   20.7290 C.ar  128  TYR128     -0.0009
     33  CD2       21.9460   24.0130   19.7120 C.ar  128  TYR128     -0.0009
     34  CE1       23.7840   24.4510   21.7230 C.ar  128  TYR128      0.0417
     35  CE2       22.1190   23.0690   20.7040 C.ar  128  TYR128      0.0417
     36  CZ        23.0390   23.2930   21.7050 C.ar  128  TYR128      0.1957
     37  OH        23.2150   22.3540   22.6930 O.3   128  TYR128     -0.2866
     38  N         16.6160   30.6760   16.0900 N.3   174  ILE174     -0.1245
     39  CA        17.0400   30.5270   17.4760 C.3   174  ILE174      0.1561
     40  C         16.9140   31.8720   18.1810 C.2   174  ILE174      0.2260
     41  O         17.7640   32.7480   18.0250 O.2   174  ILE174     -0.2867
     42  CB        18.4830   30.0040   17.5780 C.3   174  ILE174      0.0252
     43  CG1       18.6460   28.7370   16.7350 C.3   174  ILE174      0.0019
     44  CG2       18.8490   29.7330   19.0290 C.3   174  ILE174      0.0019
     45  CD1       20.0740   28.2710   16.6030 C.3   174  ILE174      0.0001
     46  N         21.5550   31.7630   20.7510 N.3   178  ASN178     -0.1240
     47  CA        22.8270   31.1540   21.1010 C.3   178  ASN178      0.1653
     48  C         23.6060   31.0730   19.7890 C.2   178  ASN178      0.2266
     49  O         23.1160   30.4840   18.8270 O.2   178  ASN178     -0.2867
     50  CB        22.5960   29.7700   21.7310 C.3   178  ASN178      0.1155
     51  CG        23.8740   29.0960   22.2140 C.2   178  ASN178      0.2627
     52  OD1       24.9820   29.5220   21.9060 O.2   178  ASN178     -0.2716
     53  ND2       23.7110   28.0210   22.9760 N.am  178  ASN178     -0.0877
     54  N         13.6530   27.6140   17.9950 N.3   206  ASP206     -0.1239
     55  CA        14.3330   27.2370   19.2270 C.3   206  ASP206      0.1674
     56  C         14.2590   28.4030   20.2120 C.2   206  ASP206      0.2266
     57  O         15.0510   29.3420   20.1330 O.2   206  ASP206     -0.2867
     58  CB        15.7880   26.8550   18.9410 C.3   206  ASP206      0.1410
     59  CG        16.4330   26.0880   20.0830 C.2   206  ASP206      0.3668
     60  OD1       16.0150   26.2680   21.2460 O.co2 206  ASP206     -0.2456
     61  OD2       17.3670   25.3040   19.8130 O.co2 206  ASP206     -0.2456
     62  N         14.4390   28.2850   23.6950 N.3   208  ILE208     -0.1231
     63  CA        14.7780   27.7450   25.0070 C.3   208  ILE208      0.1692
     64  C         15.2410   28.8350   25.9900 C.2   208  ILE208      0.2592
     65  O         15.2300   28.6240   27.2020 O.2   208  ILE208     -0.2718
     66  CB        15.8630   26.6420   24.8790 C.3   208  ILE208      0.0266
     67  CG1       15.9460   25.7940   26.1520 C.3   208  ILE208      0.0019
     68  CG2       17.2100   27.2390   24.5140 C.3   208  ILE208      0.0020
     69  CD1       16.7040   24.4960   25.9670 C.3   208  ILE208      0.0001
     70  N         15.6190   30.0030   25.4740 N.am  209  TYR209     -0.1976
     71  CA        16.0640   31.1070   26.3300 C.3   209  TYR209      0.1639
     72  C         15.0270   32.2180   26.4500 C.2   209  TYR209      0.2290
     73  O         15.3600   33.3350   26.8450 O.2   209  TYR209     -0.2864
     74  CB        17.3720   31.7090   25.8060 C.3   209  TYR209      0.0560
     75  CG        18.5390   30.7560   25.8300 C.ar  209  TYR209     -0.0198
     76  CD1       19.1430   30.3950   27.0270 C.ar  209  TYR209     -0.0009
     77  CD2       19.0400   30.2190   24.6540 C.ar  209  TYR209     -0.0009
     78  CE1       20.2090   29.5200   27.0500 C.ar  209  TYR209      0.0417
     79  CE2       20.1030   29.3460   24.6670 C.ar  209  TYR209      0.0417
     80  CZ        20.6850   28.9990   25.8660 C.ar  209  TYR209      0.1957
     81  OH        21.7460   28.1230   25.8800 O.3   209  TYR209     -0.2866
     82  N         15.9810   23.1280   30.9410 N.3   238  SER238     -0.1202
     83  CA        17.4350   23.0970   31.1030 C.3   238  SER238      0.2020
     84  C         18.0550   24.4190   31.5550 C.2   238  SER238      0.2618
     85  O         18.7700   24.4630   32.5560 O.2   238  SER238     -0.2717
     86  CB        18.0960   22.6590   29.7940 C.3   238  SER238      0.2103
     87  OG        17.8420   21.2920   29.5240 O.3   238  SER238     -0.2182
     88  N         17.7800   25.4910   30.8210 N.am  239  LYS239     -0.1979
     89  CA        18.4440   26.7470   31.0590 C.3   239  LYS239      0.1596
     90  C         17.6580   27.5980   32.0020 C.2   239  LYS239      0.2287
     91  O         18.1780   27.9890   33.0790 O.2   239  LYS239     -0.2864
     92  CB        18.7060   27.4680   29.7590 C.3   239  LYS239      0.0298
     93  CG        19.1880   26.4930   28.7220 C.3   239  LYS239      0.0038
     94  CD        20.6800   26.3160   28.8190 C.3   239  LYS239      0.0206
     95  CE        21.1450   25.1790   27.9200 C.3   239  LYS239      0.1093
     96  NZ        20.6990   25.3960   26.5510 N.3   239  LYS239     -0.1314
     97  N         19.3630   21.2490   33.7640 N.3   244  ALA244     -0.1245
     98  CA        19.8760   20.6720   32.5280 C.3   244  ALA244      0.1562
     99  C         20.0480   19.1580   32.6230 C.2   244  ALA244      0.2260
    100  O         19.7960   18.4390   31.6590 O.2   244  ALA244     -0.2867
    101  CB        21.1950   21.3240   32.1610 C.3   244  ALA244      0.0290
    102  N         17.1570   16.6000   31.8750 N.3   247  ARG247     -0.1231
    103  CA        16.8210   16.4200   30.4610 C.3   247  ARG247      0.1694
    104  C         15.3150   16.4960   30.2150 C.2   247  ARG247      0.2591
    105  O         14.6610   15.4760   29.9840 O.2   247  ARG247     -0.2718
    106  CB        17.3620   15.0860   29.9330 C.3   247  ARG247      0.0321
    107  CG        18.7630   14.7280   30.4040 C.3   247  ARG247      0.0489
    108  CD        19.8110   15.7580   30.0150 C.3   247  ARG247      0.2205
    109  NE        19.9330   15.9230   28.5710 N.pl3 247  ARG247     -0.0865
    110  CZ        19.7350   17.0740   27.9370 C.cat 247  ARG247      0.5346
    111  NH1       19.4090   18.1600   28.6250 N.pl3 247  ARG247      0.1354
    112  NH2       19.8660   17.1400   26.6200 N.pl3 247  ARG247      0.1354
    113  N         14.7710   17.7070   30.2680 N.am  248  GLN248     -0.1979
    114  CA        13.3510   17.9250   30.0230 C.3   248  GLN248      0.1601
    115  C         13.1280   19.0450   29.0160 C.2   248  GLN248      0.2287
    116  O         13.4370   20.2060   29.2850 O.2   248  GLN248     -0.2864
    117  CB        12.6200   18.2470   31.3260 C.3   248  GLN248      0.0394
    118  CG        12.4670   17.0630   32.2550 C.3   248  GLN248      0.0908
    119  CD        11.5700   15.9860   31.6780 C.2   248  GLN248      0.2608
    120  OE1       10.5190   16.2770   31.1060 O.2   248  GLN248     -0.2717
    121  NE2       11.9820   14.7310   31.8250 N.am  248  GLN248     -0.0878
    122  N         25.2270   33.9720   26.7290 N.3   332  TYR332     -0.1241
    123  CA        26.4690   33.9780   25.9650 C.3   332  TYR332      0.1605
    124  C         26.8470   35.3390   25.4080 C.2   332  TYR332      0.2264
    125  O         26.0280   36.2540   25.3300 O.2   332  TYR332     -0.2867
    126  CB        26.3810   32.9840   24.8050 C.3   332  TYR332      0.0534
    127  CG        25.7530   31.6720   25.1850 C.ar  332  TYR332     -0.0201
    128  CD1       26.5200   30.6390   25.7030 C.ar  332  TYR332     -0.0009
    129  CD2       24.3900   31.4670   25.0320 C.ar  332  TYR332     -0.0009
    130  CE1       25.9460   29.4360   26.0560 C.ar  332  TYR332      0.0417
    131  CE2       23.8090   30.2730   25.3830 C.ar  332  TYR332      0.0417
    132  CZ        24.5890   29.2580   25.8930 C.ar  332  TYR332      0.1957
    133  OH        24.0100   28.0610   26.2430 O.3   332  TYR332     -0.2866
@<TRIPOS>BOND
     1    21    20    2
     2    38    39    1
     3    29    28    2
     4    20    19    1
     5    24    22    1
     6    45    43    1
     7    26    27    1
     8    43    42    1
     9    28    27    1
    10    19    22    1
    11    19    18    1
    12    39    42    1
    13    39    40    1
    14    42    44    1
    15    27    30    1
    16    22    23    1
    17    54    55    1
    18    41    40    2
    19    23    25    1
    20    30    31    1
    21    49    48    2
    22    58    55    1
    23    58    59    1
    24    55    56    1
    25    31    33   ar
    26    31    32   ar
    27    33    35   ar
    28    48    47    1
    29    61    59   ar
    30    15    14    2
    31    59    60   ar
    32    57    56    2
    33    35    36   ar
    34    32    34   ar
    35    46    47    1
    36    47    50    1
    37    14    13    1
    38     8     7    2
    39    36    34   ar
    40    36    37    1
    41    50    51    1
    42    52    51    2
    43    13    16    1
    44    13    12    1
    45    10     9    1
    46    51    53   am
    47     7    12   am
    48     7     6    1
    49    16    17    1
    50     9     6    1
    51     9    11    1
    52     6     5    1
    53    62    63    1
    54     4     3    2
    55    68    66    1
    56    77    79   ar
    57    77    75   ar
    58    79    80   ar
    59   126   127    1
    60   126   123    1
    61     5     3   am
    62    66    63    1
    63    66    67    1
    64    63    64    1
    65   129   127   ar
    66   129   131   ar
    67     3     2    1
    68   127   128   ar
    69   125   124    2
    70   131   132   ar
    71   124   123    1
    72    70    64   am
    73    70    71    1
    74   128   130   ar
    75    74    75    1
    76    74    71    1
    77    75    76   ar
    78    80    81    1
    79    80    78   ar
    80   132   130   ar
    81   132   133    1
    82   123   122    1
    83    69    67    1
    84    64    65    2
    85    71    72    1
    86    72    73    2
    87     2     1    1
    88    96    95    1
    89   112   110    1
    90    76    78   ar
    91    95    94    1
    92   110   109    2
    93   110   111    1
    94   109   108    1
    95    93    94    1
    96    93    92    1
    97   115   116    2
    98   115   114    1
    99    87    86    1
   100    92    89    1
   101    86    83    1
   102   106   107    1
   103   106   103    1
   104   105   104    2
   105   108   107    1
   106   114   113    1
   107   114   117    1
   108   104   113   am
   109   104   103    1
   110   103   102    1
   111    88    89    1
   112    88    84   am
   113    82    83    1
   114    89    90    1
   115    83    84    1
   116   120   119    2
   117   117   118    1
   118    84    85    2
   119   100    99    2
   120   119   121   am
   121   119   118    1
   122    90    91    2
   123   101    98    1
   124    98    99    1
   125    98    97    1
