@<TRIPOS>MOLECULE
tmp/4cw5B00.pdb
 173 162 0 0 0
SMALL
GASTEIGER

@<TRIPOS>ATOM
      1  N         57.1810   70.6080   16.0170 N.3    25  GLY25      -0.1210
      2  CA        56.9900   72.0420   15.9710 C.3    25  GLY25       0.1956
      3  C         58.1850   72.7750   15.4050 C.2    25  GLY25       0.2612
      4  O         59.3090   72.2870   15.4510 O.2    25  GLY25      -0.2717
      5  N         57.9280   73.9630   14.8710 N.am   26  SER26      -0.1952
      6  CA        58.9710   74.8140   14.3290 C.3    26  SER26       0.1924
      7  C         60.0060   75.1860   15.3850 C.2    26  SER26       0.2314
      8  O         59.6930   75.2810   16.5750 O.2    26  SER26      -0.2863
      9  CB        58.3510   76.0770   13.7350 C.3    26  SER26       0.2116
     10  OG        57.3760   75.7360   12.7650 O.3    26  SER26      -0.2180
     11  N         63.2390   78.0850   15.5550 N.3    27  TYR27      -0.1241
     12  CA        63.7560   79.2280   14.8060 C.3    27  TYR27       0.1605
     13  C         65.1720   79.0430   14.2650 C.2    27  TYR27       0.2264
     14  O         65.8980   78.1370   14.6740 O.2    27  TYR27      -0.2867
     15  CB        63.7100   80.4810   15.6910 C.3    27  TYR27       0.0534
     16  CG        64.4930   80.3620   16.9810 C.ar   27  TYR27      -0.0201
     17  CD1       65.8820   80.3070   16.9750 C.ar   27  TYR27      -0.0009
     18  CD2       63.8420   80.3010   18.2050 C.ar   27  TYR27      -0.0009
     19  CE1       66.5970   80.1960   18.1460 C.ar   27  TYR27       0.0417
     20  CE2       64.5510   80.1900   19.3850 C.ar   27  TYR27       0.0417
     21  CZ        65.9290   80.1390   19.3470 C.ar   27  TYR27       0.1957
     22  OH        66.6480   80.0260   20.5110 O.3    27  TYR27      -0.2866
     23  N         66.7810   75.5990   13.2630 N.3    30  ILE30      -0.1245
     24  CA        67.0140   74.5120   14.2070 C.3    30  ILE30       0.1561
     25  C         66.0570   73.3750   13.8560 C.2    30  ILE30       0.2260
     26  O         66.4330   72.2020   13.8890 O.2    30  ILE30      -0.2867
     27  CB        66.8240   74.9640   15.6680 C.3    30  ILE30       0.0252
     28  CG1       67.8670   76.0300   16.0200 C.3    30  ILE30       0.0019
     29  CG2       66.9550   73.7770   16.6170 C.3    30  ILE30       0.0019
     30  CD1       67.6480   76.7060   17.3660 C.3    30  ILE30       0.0001
     31  N         61.7960   81.2730   11.5470 N.3    49  GLY49      -0.1225
     32  CA        62.0350   82.3520   12.4900 C.3    49  GLY49       0.1811
     33  C         63.4400   82.9230   12.4230 C.2    49  GLY49       0.2280
     34  O         64.4270   82.2230   12.6590 O.2    49  GLY49      -0.2866
     35  N         56.9920   77.3640    9.1180 N.3    75  ASN75      -0.1240
     36  CA        56.5940   78.2740   10.1760 C.3    75  ASN75       0.1653
     37  C         56.2400   79.6360    9.5980 C.2    75  ASN75       0.2266
     38  O         56.9210   80.1310    8.7000 O.2    75  ASN75      -0.2867
     39  CB        57.7200   78.4250   11.2040 C.3    75  ASN75       0.1155
     40  CG        57.2540   79.0160   12.5390 C.2    75  ASN75       0.2627
     41  OD1       58.0620   79.5840   13.2730 O.2    75  ASN75      -0.2716
     42  ND2       55.9670   78.8750   12.8650 N.am   75  ASN75      -0.0877
     43  N         55.9120   82.9070   11.7120 N.3    77  LEU77      -0.1245
     44  CA        56.0190   83.4570   13.0550 C.3    77  LEU77       0.1561
     45  C         55.7010   84.9430   13.0440 C.2    77  LEU77       0.2260
     46  O         56.3730   85.7290   12.3780 O.2    77  LEU77      -0.2867
     47  CB        57.4210   83.2090   13.6150 C.3    77  LEU77       0.0270
     48  CG        57.6540   83.5400   15.0900 C.3    77  LEU77       0.0019
     49  CD1       56.7410   82.7270   15.9970 C.3    77  LEU77       0.0001
     50  CD2       59.1090   83.2920   15.4430 C.3    77  LEU77       0.0001
     51  N         52.0670   80.9080   14.3140 N.3   101  SER101     -0.1217
     52  CA        52.2810   81.0440   15.7520 C.3   101  SER101      0.1889
     53  C         52.5450   82.4850   16.1790 C.2   101  SER101      0.2288
     54  O         52.9300   83.3310   15.3680 O.2   101  SER101     -0.2866
     55  CB        53.4470   80.1560   16.1950 C.3   101  SER101      0.2089
     56  OG        54.5440   80.2800   15.3110 O.3   101  SER101     -0.2183
     57  N         48.9650   77.6550   16.0370 N.3   134  LYS134     -0.1245
     58  CA        49.4530   77.3300   17.3720 C.3   134  LYS134      0.1561
     59  C         49.1590   78.4890   18.3170 C.2   134  LYS134      0.2260
     60  O         49.6280   79.6060   18.1140 O.2   134  LYS134     -0.2867
     61  CB        50.9490   77.0110   17.3560 C.3   134  LYS134      0.0271
     62  CG        51.4380   76.4520   18.6860 C.3   134  LYS134      0.0035
     63  CD        52.7730   75.7410   18.5770 C.3   134  LYS134      0.0206
     64  CE        53.8820   76.6450   18.0790 C.3   134  LYS134      0.1093
     65  NZ        55.1500   75.8760   17.9150 N.3   134  LYS134     -0.1314
     66  N         48.9450   75.2980   22.7820 N.3   181  GLU181     -0.1245
     67  CA        50.2640   75.1660   23.3900 C.3   181  GLU181      0.1567
     68  C         50.1970   75.4690   24.8770 C.2   181  GLU181      0.2260
     69  O         49.9360   76.6000   25.2880 O.2   181  GLU181     -0.2867
     70  CB        51.2730   76.0880   22.7170 C.3   181  GLU181      0.0388
     71  CG        52.7010   75.7890   23.1320 C.3   181  GLU181      0.1160
     72  CD        53.7140   76.5490   22.3140 C.2   181  GLU181      0.3649
     73  OE1       53.3590   77.6180   21.7730 O.co2 181  GLU181     -0.2457
     74  OE2       54.8660   76.0780   22.2140 O.co2 181  GLU181     -0.2457
     75  N         52.5440   75.1670   27.6920 N.3   183  ASP183     -0.1239
     76  CA        53.8140   75.0600   28.4090 C.3   183  ASP183      0.1674
     77  C         53.8600   76.0510   29.5680 C.2   183  ASP183      0.2266
     78  O         53.1520   75.8900   30.5620 O.2   183  ASP183     -0.2867
     79  CB        54.9960   75.2950   27.4640 C.3   183  ASP183      0.1410
     80  CG        56.0820   74.2350   27.6070 C.2   183  ASP183      0.3668
     81  OD1       56.2700   73.7080   28.7250 O.co2 183  ASP183     -0.2456
     82  OD2       56.7510   73.9290   26.5960 O.co2 183  ASP183     -0.2456
     83  N         50.2500   70.6670   22.4010 N.3   207  ALA207     -0.1231
     84  CA        51.7010   70.6900   22.4370 C.3   207  ALA207      0.1694
     85  C         52.1530   71.4060   23.6990 C.2   207  ALA207      0.2593
     86  O         51.4270   72.2320   24.2480 O.2   207  ALA207     -0.2718
     87  CB        52.2590   71.3660   21.1990 C.3   207  ALA207      0.0304
     88  N         53.3500   71.0690   24.1630 N.am  208  GLY208     -0.1942
     89  CA        53.8990   71.6460   25.3750 C.3   208  GLY208      0.2014
     90  C         53.9530   70.6100   26.4780 C.2   208  GLY208      0.2639
     91  O         52.9200   70.0870   26.8980 O.2   208  GLY208     -0.2714
     92  N         55.1610   70.3050   26.9410 N.am  209  GLY209     -0.1939
     93  CA        55.3450   69.3890   28.0530 C.3   209  GLY209      0.2014
     94  C         55.3220   67.9170   27.6890 C.2   209  GLY209      0.2638
     95  O         55.3500   67.0660   28.5760 O.2   209  GLY209     -0.2714
     96  N         55.2610   67.6110   26.3950 N.am  210  ILE210     -0.1977
     97  CA        55.1400   66.2270   25.9480 C.3   210  ILE210      0.1596
     98  C         56.4900   65.6660   25.5070 C.2   210  ILE210      0.2287
     99  O         57.0400   66.0690   24.4810 O.2   210  ILE210     -0.2864
    100  CB        54.1290   66.0980   24.7900 C.3   210  ILE210      0.0276
    101  CG1       52.7710   66.6650   25.2170 C.3   210  ILE210      0.0022
    102  CG2       53.9920   64.6400   24.3710 C.3   210  ILE210      0.0022
    103  CD1       51.7410   66.7450   24.1100 C.3   210  ILE210      0.0001
    104  N         51.8260   67.6990   19.3080 N.3   228  GLY228     -0.1210
    105  CA        53.0680   68.2630   18.8230 C.3   228  GLY228      0.1956
    106  C         54.1590   68.2260   19.8740 C.2   228  GLY228      0.2613
    107  O         53.8900   68.3600   21.0660 O.2   228  GLY228     -0.2717
    108  N         55.3920   68.0440   19.4150 N.am  229  THR229     -0.1938
    109  CA        56.5700   68.0550   20.2730 C.3   229  THR229      0.2028
    110  C         57.5640   69.0960   19.7860 C.2   229  THR229      0.2643
    111  O         57.5340   69.5010   18.6220 O.2   229  THR229     -0.2714
    112  CB        57.2530   66.6800   20.3050 C.3   229  THR229      0.1808
    113  OG1       57.5330   66.2560   18.9640 O.3   229  THR229     -0.2208
    114  CG2       56.3560   65.6550   20.9660 C.3   229  THR229      0.0379
    115  N         58.4450   69.5250   20.6820 N.am  230  GLY230     -0.1939
    116  CA        59.4590   70.5080   20.3530 C.3   230  GLY230      0.2014
    117  C         60.7960   70.2050   21.0000 C.2   230  GLY230      0.2640
    118  O         61.7630   69.8820   20.3100 O.2   230  GLY230     -0.2714
    119  N         60.8480   70.3100   22.3260 N.am  231  SER231     -0.1935
    120  CA        62.1040   70.2040   23.0620 C.3   231  SER231      0.2055
    121  C         62.8880   68.9390   22.7270 C.2   231  SER231      0.2642
    122  O         64.1010   68.9930   22.5160 O.2   231  SER231     -0.2714
    123  CB        61.8400   70.2550   24.5690 C.3   231  SER231      0.2130
    124  OG        61.5640   71.5770   24.9960 O.3   231  SER231     -0.2179
    125  N         62.2000   67.8030   22.6650 N.am  232  ILE232     -0.1977
    126  CA        62.8790   66.5350   22.4280 C.3   232  ILE232      0.1596
    127  C         63.5290   66.5010   21.0450 C.2   232  ILE232      0.2287
    128  O         64.4860   65.7600   20.8280 O.2   232  ILE232     -0.2864
    129  CB        61.9210   65.3290   22.5710 C.3   232  ILE232      0.0276
    130  CG1       60.8480   65.3430   21.4770 C.3   232  ILE232      0.0022
    131  CG2       61.3000   65.3170   23.9630 C.3   232  ILE232      0.0022
    132  CD1       59.9390   64.1410   21.5130 C.3   232  ILE232      0.0001
    133  N         65.0460   69.0360   19.4270 N.3   234  GLN234     -0.1245
    134  CA        66.2710   69.8200   19.3500 C.3   234  GLN234      0.1566
    135  C         67.4810   68.9410   19.6410 C.2   234  GLN234      0.2260
    136  O         68.5850   69.2120   19.1700 O.2   234  GLN234     -0.2867
    137  CB        66.2340   70.9860   20.3300 C.3   234  GLN234      0.0367
    138  CG        67.3600   71.9790   20.1280 C.3   234  GLN234      0.0905
    139  CD        67.2520   73.1670   21.0520 C.2   234  GLN234      0.2608
    140  OE1       66.7510   73.0540   22.1720 O.2   234  GLN234     -0.2717
    141  NE2       67.7170   74.3200   20.5890 N.am  234  GLN234     -0.0878
    142  N         66.9240   77.3590   24.3410 N.3   371  HIS371     -0.1226
    143  CA        65.5210   77.2250   24.7010 C.3   371  HIS371      0.1752
    144  C         65.1900   75.7500   24.8480 C.2   371  HIS371      0.2596
    145  O         65.5980   74.9220   24.0330 O.2   371  HIS371     -0.2718
    146  CB        64.6180   77.8870   23.6610 C.3   371  HIS371      0.0759
    147  CG        64.7640   79.3760   23.6010 C.ar  371  HIS371      0.0818
    148  ND1       65.7840   79.9970   22.9120 N.ar  371  HIS371     -0.2268
    149  CD2       64.0310   80.3670   24.1590 C.ar  371  HIS371      0.1154
    150  CE1       65.6660   81.3060   23.0390 C.ar  371  HIS371      0.1986
    151  NE2       64.6090   81.5570   23.7910 N.ar  371  HIS371     -0.2212
    152  N         64.4500   75.4300   25.9020 N.am  372  CYS372     -0.1956
    153  CA        64.2050   74.0470   26.2750 C.3   372  CYS372      0.1843
    154  C         63.2270   73.9870   27.4380 C.2   372  CYS372      0.2626
    155  O         63.2500   74.8470   28.3200 O.2   372  CYS372     -0.2714
    156  CB        65.5160   73.3520   26.6500 C.3   372  CYS372      0.0997
    157  SG        65.3610   71.5830   26.9590 S.3   372  CYS372     -0.0797
    158  N         62.3590   72.9800   27.4190 N.am  373  GLY373     -0.1940
    159  CA        61.4150   72.7560   28.4980 C.3   373  GLY373      0.1998
    160  C         61.6840   71.4360   29.1970 C.2   373  GLY373      0.2481
    161  O         62.5190   70.6530   28.7490 O.2   373  GLY373     -0.2729
    162  N         60.9740   71.1800   30.3050 N.am  374  PRO374     -0.2715
    163  CA        61.1490   69.9450   31.0780 C.3   374  PRO374      0.1536
    164  C         60.8290   68.6760   30.2890 C.2   374  PRO374      0.2598
    165  O         61.2390   67.5910   30.7070 O.2   374  PRO374     -0.2715
    166  CB        60.1630   70.1130   32.2440 C.3   374  PRO374      0.0310
    167  CG        59.2520   71.2270   31.8440 C.3   374  PRO374      0.0237
    168  CD        60.0710   72.1220   30.9840 C.3   374  PRO374      0.0939
    169  N         60.0890   68.8100   29.1900 N.am  375  ALA375     -0.1978
    170  CA        59.7630   67.6710   28.3360 C.3   375  ALA375      0.1597
    171  C         61.0150   66.8820   27.9670 C.2   375  ALA375      0.2287
    172  O         61.0040   65.6520   27.9750 O.2   375  ALA375     -0.2864
    173  CB        59.0400   68.1390   27.0760 C.3   375  ALA375      0.0319
@<TRIPOS>BOND
     1    38    37    2
     2    35    36    1
     3    37    36    1
     4    36    39    1
     5    39    40    1
     6    31    32    1
     7    43    44    1
     8    46    45    2
     9    33    32    1
    10    33    34    2
    11    40    42   am
    12    40    41    2
    13    10     9    1
    14    45    44    1
    15    44    47    1
    16    23    24    1
    17    47    48    1
    18     9     6    1
    19    25    26    2
    20    25    24    1
    21    24    27    1
    22    13    14    2
    23    13    12    1
    24    51    52    1
    25     6     5    1
    26     6     7    1
    27    12    11    1
    28    12    15    1
    29     5     3   am
    30    48    50    1
    31    48    49    1
    32    56    55    1
    33    54    53    2
    34     7     8    2
    35     3     4    2
    36     3     2    1
    37    27    28    1
    38    27    29    1
    39    15    16    1
    40    52    53    1
    41    52    55    1
    42     2     1    1
    43    28    30    1
    44    57    58    1
    45    17    16   ar
    46    17    19   ar
    47    16    18   ar
    48    61    58    1
    49    61    62    1
    50    58    59    1
    51    65    64    1
    52    64    63    1
    53    60    59    2
    54    19    21   ar
    55    18    20   ar
    56    63    62    1
    57   111   110    2
    58   105   104    1
    59   105   106    1
    60   113   112    1
    61   136   135    2
    62    21    20   ar
    63    21    22    1
    64   134   133    1
    65   134   135    1
    66   134   137    1
    67   108   106   am
    68   108   109    1
    69   110   109    1
    70   110   115   am
    71   106   107    2
    72   138   137    1
    73   138   139    1
    74   109   112    1
    75   112   114    1
    76   118   117    2
    77   116   115    1
    78   116   117    1
    79   141   139   am
    80   128   127    2
    81   117   119   am
    82   127   126    1
    83   139   140    2
    84    87    84    1
    85   130   132    1
    86   130   129    1
    87    73    72   ar
    88    74    72   ar
    89    72    71    1
    90   119   120    1
    91    83    84    1
    92   126   129    1
    93   126   125    1
    94    84    85    1
    95   122   121    2
    96   129   131    1
    97   125   121   am
    98    70    71    1
    99    70    67    1
   100   121   120    1
   101    66    67    1
   102   148   150   ar
   103   148   147   ar
   104   150   151   ar
   105   120   123    1
   106    67    68    1
   107   147   146    1
   108   147   149   ar
   109   146   143    1
   110    85    88   am
   111    85    86    2
   112   151   149   ar
   113   145   144    2
   114   103   101    1
   115    88    89    1
   116   142   143    1
   117   102   100    1
   118    99    98    2
   119   123   124    1
   120   143   144    1
   121   100   101    1
   122   100    97    1
   123   144   152   am
   124    68    69    2
   125    89    90    1
   126    98    97    1
   127   152   153    1
   128    97    96    1
   129   153   156    1
   130   153   154    1
   131    96    94   am
   132    90    91    2
   133    90    92   am
   134    82    80   ar
   135   156   157    1
   136    92    93    1
   137   173   170    1
   138   158   154   am
   139   158   159    1
   140   154   155    2
   141    79    80    1
   142    79    76    1
   143    80    81   ar
   144    94    93    1
   145    94    95    2
   146    75    76    1
   147   171   172    2
   148   171   170    1
   149   170   169    1
   150    76    77    1
   151   159   160    1
   152   161   160    2
   153   169   164   am
   154   160   162   am
   155    77    78    2
   156   164   165    2
   157   164   163    1
   158   162   168    1
   159   162   163    1
   160   168   167    1
   161   163   166    1
   162   167   166    1
