@<TRIPOS>MOLECULE
tmp/4cw7A00.pdb
 163 157 0 0 0
SMALL
GASTEIGER

@<TRIPOS>ATOM
      1  N        -36.7160    6.5520   24.4210 N.3    11  PRO11      -0.2102
      2  CA       -36.1920    6.5200   23.0530 C.3    11  PRO11       0.1504
      3  C        -34.6690    6.4270   23.0310 C.2    11  PRO11       0.2576
      4  O        -34.0060    7.2050   23.7180 O.2    11  PRO11      -0.2718
      5  CB       -36.6600    7.8630   22.4750 C.3    11  PRO11       0.0282
      6  CG       -37.9580    8.1380   23.1840 C.3    11  PRO11       0.0208
      7  CD       -37.8070    7.5350   24.5750 C.3    11  PRO11       0.0893
      8  N        -34.1310    5.4950   22.2470 N.am   12  GLY12      -0.1943
      9  CA       -32.6930    5.3030   22.1680 C.3    12  GLY12       0.2014
     10  C        -32.1760    4.1780   23.0530 C.2    12  GLY12       0.2639
     11  O        -31.0120    3.7960   22.9530 O.2    12  GLY12      -0.2714
     12  N        -33.0340    3.6440   23.9200 N.am   13  VAL13      -0.1963
     13  CA       -32.6090    2.6380   24.8920 C.3    13  VAL13       0.1727
     14  C        -32.3780    1.2550   24.2650 C.2    13  VAL13       0.2617
     15  O        -31.7490    0.3910   24.8730 O.2    13  VAL13      -0.2715
     16  CB       -33.6430    2.4940   26.0300 C.3    13  VAL13       0.0290
     17  CG1      -34.8220    1.6470   25.5720 C.3    13  VAL13       0.0023
     18  CG2      -32.9990    1.8960   27.2700 C.3    13  VAL13       0.0023
     19  N        -32.8400    1.0640   23.0320 N.am   14  GLY14      -0.1940
     20  CA       -32.7260   -0.2300   22.3810 C.3    14  GLY14       0.2014
     21  C        -33.9860   -1.0710   22.2510 C.2    14  GLY14       0.2639
     22  O        -33.8870   -2.2790   22.0190 O.2    14  GLY14      -0.2714
     23  N        -35.1580   -0.4550   22.4120 N.am   15  LYS15      -0.1963
     24  CA       -36.4340   -1.1680   22.2670 C.3    15  LYS15       0.1728
     25  C        -36.5090   -2.0180   20.9900 C.2    15  LYS15       0.2617
     26  O        -36.8530   -3.1870   21.0480 O.2    15  LYS15      -0.2715
     27  CB       -37.6090   -0.1820   22.2770 C.3    15  LYS15       0.0311
     28  CG       -37.9050    0.4600   23.6160 C.3    15  LYS15       0.0038
     29  CD       -39.1150    1.3770   23.5210 C.3    15  LYS15       0.0206
     30  CE       -38.8730    2.5130   22.5500 C.3    15  LYS15       0.1093
     31  NZ       -37.6460    3.2820   22.8880 N.3    15  LYS15      -0.1314
     32  N        -36.1820   -1.4340   19.8440 N.am   16  THR16      -0.1937
     33  CA       -36.3510   -2.1190   18.5610 C.3    16  THR16       0.2028
     34  C        -35.3540   -3.2650   18.3750 C.2    16  THR16       0.2643
     35  O        -35.7200   -4.3730   17.9360 O.2    16  THR16      -0.2714
     36  CB       -36.2340   -1.1180   17.3950 C.3    16  THR16       0.1808
     37  OG1      -37.3460   -0.2100   17.4470 O.3    16  THR16      -0.2208
     38  CG2      -36.2490   -1.8360   16.0530 C.3    16  THR16       0.0379
     39  N        -34.0920   -2.9840   18.6850 N.am   17  THR17      -0.1936
     40  CA       -33.0360   -3.9960   18.6550 C.3    17  THR17       0.2028
     41  C        -33.4230   -5.2270   19.4950 C.2    17  THR17       0.2642
     42  O        -33.4730   -6.3760   19.0030 O.2    17  THR17      -0.2714
     43  CB       -31.7130   -3.4150   19.1900 C.3    17  THR17       0.1808
     44  OG1      -31.4160   -2.1770   18.5250 O.3    17  THR17      -0.2208
     45  CG2      -30.5690   -4.4050   19.0220 C.3    17  THR17       0.0379
     46  N        -33.7370   -4.9560   20.7620 N.am   18  ILE18      -0.1977
     47  CA       -34.0530   -5.9970   21.7310 C.3    18  ILE18       0.1596
     48  C        -35.3410   -6.7270   21.3670 C.2    18  ILE18       0.2287
     49  O        -35.4040   -7.9450   21.4720 O.2    18  ILE18      -0.2864
     50  CB       -34.1630   -5.4190   23.1560 C.3    18  ILE18       0.0276
     51  CG1      -32.8400   -4.7640   23.5520 C.3    18  ILE18       0.0022
     52  CG2      -34.5390   -6.5070   24.1660 C.3    18  ILE18       0.0022
     53  CD1      -31.6370   -5.6510   23.3440 C.3    18  ILE18       0.0001
     54  N        -43.9930   -3.6710   15.3160 N.3    32  ASN32      -0.1240
     55  CA       -43.7140   -2.2890   15.7070 C.3    32  ASN32       0.1653
     56  C        -45.0130   -1.5000   15.8760 C.2    32  ASN32       0.2266
     57  O        -45.8020   -1.3880   14.9360 O.2    32  ASN32      -0.2867
     58  CB       -42.7990   -1.6060   14.6830 C.3    32  ASN32       0.1155
     59  CG       -42.4800   -0.1650   15.0540 C.2    32  ASN32       0.2627
     60  OD1      -43.2390    0.7550   14.7370 O.2    32  ASN32      -0.2716
     61  ND2      -41.3620    0.0360   15.7480 N.am   32  ASN32      -0.0877
     62  N        -45.9000    1.6480   16.1600 N.3    34  ARG34      -0.1245
     63  CA       -46.1100    2.7730   15.2580 C.3    34  ARG34       0.1563
     64  C        -46.6170    2.2860   13.9040 C.2    34  ARG34       0.2260
     65  O        -47.6580    2.7350   13.4000 O.2    34  ARG34      -0.2867
     66  CB       -44.8050    3.5360   15.0730 C.3    34  ARG34       0.0307
     67  CG       -44.8990    4.7900   14.2430 C.3    34  ARG34       0.0489
     68  CD       -43.5110    5.3350   14.0480 C.3    34  ARG34       0.2205
     69  NE       -42.6750    4.3140   13.4170 N.pl3  34  ARG34      -0.0865
     70  CZ       -41.3480    4.3510   13.3610 C.cat  34  ARG34       0.5346
     71  NH1      -40.6870    5.3660   13.9040 N.pl3  34  ARG34       0.1354
     72  NH2      -40.6800    3.3710   12.7620 N.pl3  34  ARG34       0.1354
     73  N        -42.5610    2.8500   22.4910 N.3    75  HIS75      -0.1241
     74  CA       -42.4800    3.5080   23.7850 C.3    75  HIS75       0.1621
     75  C        -43.8720    3.8140   24.3400 C.2    75  HIS75       0.2264
     76  O        -44.0100    4.3170   25.4500 O.2    75  HIS75      -0.2867
     77  CB       -41.6160    4.7630   23.6770 C.3    75  HIS75       0.0745
     78  CG       -42.3090    5.9340   23.0560 C.ar   75  HIS75       0.0817
     79  ND1      -42.3440    6.1420   21.6950 N.ar   75  HIS75      -0.2268
     80  CD2      -42.9620    6.9810   23.6140 C.ar   75  HIS75       0.1154
     81  CE1      -43.0100    7.2540   21.4380 C.ar   75  HIS75       0.1986
     82  NE2      -43.3940    7.7840   22.5860 N.ar   75  HIS75      -0.2212
     83  N        -26.5190    8.3730   22.1430 N.3    98  ARG98      -0.1245
     84  CA       -27.2870    7.7810   21.0520 C.3    98  ARG98       0.1563
     85  C        -28.2510    8.7640   20.4020 C.2    98  ARG98       0.2260
     86  O        -28.4550    8.7270   19.1910 O.2    98  ARG98      -0.2867
     87  CB       -28.0460    6.5580   21.5450 C.3    98  ARG98       0.0307
     88  CG       -27.1470    5.3720   21.8470 C.3    98  ARG98       0.0489
     89  CD       -27.9780    4.1850   22.2820 C.3    98  ARG98       0.2205
     90  NE       -27.1360    3.0740   22.7070 N.pl3  98  ARG98      -0.0865
     91  CZ       -27.5630    2.0320   23.4110 C.cat  98  ARG98       0.5346
     92  NH1      -28.8330    1.9550   23.7900 N.pl3  98  ARG98       0.1354
     93  NH2      -26.7050    1.0800   23.7500 N.pl3  98  ARG98       0.1354
     94  N        -26.0710   11.2180   18.2950 N.3   101  GLU101     -0.1231
     95  CA       -25.6430   10.6880   17.0000 C.3   101  GLU101      0.1699
     96  C        -26.8110   10.6500   16.0010 C.2   101  GLU101      0.2592
     97  O        -26.5970   10.6320   14.7920 O.2   101  GLU101     -0.2718
     98  CB       -25.0130    9.2980   17.1440 C.3   101  GLU101      0.0402
     99  CG       -25.9740    8.2000   17.5290 C.3   101  GLU101      0.1161
    100  CD       -25.2750    6.8980   17.8840 C.2   101  GLU101      0.3649
    101  OE1      -24.0550    6.7830   17.6310 O.co2 101  GLU101     -0.2457
    102  OE2      -25.9510    5.9830   18.4040 O.co2 101  GLU101     -0.2457
    103  N        -28.0390   10.6110   16.5120 N.am  102  ARG102     -0.1980
    104  CA       -29.2360   10.7040   15.6730 C.3   102  ARG102      0.1597
    105  C        -29.4330   12.1260   15.1420 C.2   102  ARG102      0.2287
    106  O        -30.1790   12.3440   14.1890 O.2   102  ARG102     -0.2864
    107  CB       -30.4750   10.2770   16.4610 C.3   102  ARG102      0.0334
    108  CG       -30.6980    8.7750   16.5660 C.3   102  ARG102      0.0492
    109  CD       -32.0310    8.4680   17.2330 C.3   102  ARG102      0.2205
    110  NE       -32.1990    7.0370   17.4750 N.pl3 102  ARG102     -0.0865
    111  CZ       -33.2270    6.4960   18.1220 C.cat 102  ARG102      0.5346
    112  NH1      -34.1710    7.2650   18.6440 N.pl3 102  ARG102      0.1354
    113  NH2      -33.2860    5.1820   18.2850 N.pl3 102  ARG102      0.1354
    114  N        -30.4480   14.8310   17.1540 N.3   104  TYR104     -0.1241
    115  CA       -31.4940   15.5650   17.8650 C.3   104  TYR104      0.1605
    116  C        -31.0060   16.9120   18.4050 C.2   104  TYR104      0.2264
    117  O        -29.8070   17.1240   18.5960 O.2   104  TYR104     -0.2867
    118  CB       -32.0430   14.7320   19.0300 C.3   104  TYR104      0.0534
    119  CG       -32.8830   13.5460   18.6190 C.ar  104  TYR104     -0.0201
    120  CD1      -33.0940   13.2440   17.2770 C.ar  104  TYR104     -0.0009
    121  CD2      -33.4780   12.7340   19.5750 C.ar  104  TYR104     -0.0009
    122  CE1      -33.8610   12.1610   16.9020 C.ar  104  TYR104      0.0417
    123  CE2      -34.2510   11.6450   19.2070 C.ar  104  TYR104      0.0417
    124  CZ       -34.4310   11.3620   17.8690 C.ar  104  TYR104      0.1957
    125  OH       -35.2030   10.2840   17.4970 O.3   104  TYR104     -0.2866
    126  N        -29.8070   -2.3250   30.5880 N.3   137  THR137     -0.1218
    127  CA       -29.0910   -2.6950   29.3700 C.3   137  THR137      0.1862
    128  C        -27.6410   -2.2310   29.3670 C.2   137  THR137      0.2287
    129  O        -26.8750   -2.5860   28.4700 O.2   137  THR137     -0.2866
    130  CB       -29.7780   -2.1230   28.1160 C.3   137  THR137      0.1770
    131  OG1      -29.7750   -0.6900   28.1890 O.3   137  THR137     -0.2211
    132  CG2      -31.2180   -2.6100   28.0180 C.3   137  THR137      0.0375
    133  N        -24.3020   -4.2430   28.3560 N.3   140  LYS140     -0.1231
    134  CA       -24.7320   -5.5820   27.9740 C.3   140  LYS140      0.1693
    135  C        -24.9730   -5.6220   26.4710 C.2   140  LYS140      0.2593
    136  O        -25.3900   -4.6250   25.8790 O.2   140  LYS140     -0.2718
    137  CB       -26.0080   -5.9830   28.7280 C.3   140  LYS140      0.0285
    138  CG       -25.8490   -6.1060   30.2430 C.3   140  LYS140      0.0035
    139  CD       -27.1760   -6.4630   30.9220 C.3   140  LYS140      0.0206
    140  CE       -27.0370   -6.4590   32.4460 C.3   140  LYS140      0.1093
    141  NZ       -28.3400   -6.5980   33.1650 N.3   140  LYS140     -0.1314
    142  N        -24.7560   -6.7890   25.8720 N.am  141  THR141     -0.1940
    143  CA       -25.0630   -7.0020   24.4670 C.3   141  THR141      0.2013
    144  C        -26.5330   -7.3450   24.3260 C.2   141  THR141      0.2484
    145  O        -27.1740   -7.7330   25.3080 O.2   141  THR141     -0.2729
    146  CB       -24.2330   -8.1460   23.8460 C.3   141  THR141      0.1807
    147  OG1      -24.6130   -9.3930   24.4480 O.3   141  THR141     -0.2208
    148  CG2      -22.7370   -7.9030   24.0370 C.3   141  THR141      0.0379
    149  N        -27.0910   -7.1410   23.1220 N.am  142  PRO142     -0.2726
    150  CA       -28.4770   -7.5450   22.8620 C.3   142  PRO142      0.1402
    151  C        -28.7130   -9.0230   23.1720 C.2   142  PRO142      0.2269
    152  O        -29.7960   -9.3900   23.6500 O.2   142  PRO142     -0.2865
    153  CB       -28.6410   -7.2680   21.3660 C.3   142  PRO142      0.0296
    154  CG       -27.7020   -6.1360   21.1050 C.3   142  PRO142      0.0237
    155  CD       -26.5170   -6.3780   21.9950 C.3   142  PRO142      0.0939
    156  N        -28.9650   -9.3740   26.9850 N.3   145  ILE145     -0.1245
    157  CA       -30.2140   -8.7650   27.4410 C.3   145  ILE145      0.1561
    158  C        -31.3910   -9.6880   27.1580 C.2   145  ILE145      0.2260
    159  O        -32.2220   -9.9380   28.0330 O.2   145  ILE145     -0.2867
    160  CB       -30.4540   -7.4000   26.7640 C.3   145  ILE145      0.0252
    161  CG1      -29.3680   -6.4010   27.1750 C.3   145  ILE145      0.0019
    162  CG2      -31.8270   -6.8570   27.1160 C.3   145  ILE145      0.0019
    163  CD1      -29.3300   -5.1600   26.3070 C.3   145  ILE145      0.0001
@<TRIPOS>BOND
     1    72    70    1
     2    70    69    2
     3    70    71    1
     4    65    64    2
     5    69    68    1
     6    64    63    1
     7    68    67    1
     8   106   105    2
     9    67    66    1
    10    58    59    1
    11    58    55    1
    12    60    59    2
    13    97    96    2
    14    57    56    2
    15    59    61   am
    16    66    63    1
    17   105   104    1
    18    63    62    1
    19    54    55    1
    20   104   107    1
    21   104   103    1
    22    55    56    1
    23    96   103   am
    24    96    95    1
    25    38    36    1
    26   107   108    1
    27   108   109    1
    28   122   120   ar
    29   122   124   ar
    30    95    98    1
    31    95    94    1
    32    98    99    1
    33   114   115    1
    34   109   110    1
    35   120   119   ar
    36    36    37    1
    37    36    33    1
    38   110   111    2
    39   125   124    1
    40    99   100    1
    41   101   100   ar
    42   115   116    1
    43   115   118    1
    44   124   123   ar
    45   100   102   ar
    46    35    34    2
    47   111   113    1
    48   111   112    1
    49    34    33    1
    50    34    39   am
    51   116   117    2
    52    44    43    1
    53    33    32    1
    54   119   118    1
    55   119   121   ar
    56    40    39    1
    57    40    43    1
    58    40    41    1
    59    42    41    2
    60    45    43    1
    61    86    85    2
    62   123   121   ar
    63    41    46   am
    64    32    25   am
    65    85    84    1
    66    46    47    1
    67    25    26    2
    68    25    24    1
    69    84    87    1
    70    84    83    1
    71   154   153    1
    72   154   155    1
    73   153   150    1
    74    48    49    2
    75    48    47    1
    76    81    79   ar
    77    81    82   ar
    78    87    88    1
    79    79    78   ar
    80    47    50    1
    81    88    89    1
    82   155   149    1
    83    22    21    2
    84     9     8    1
    85     9    10    1
    86     8     3   am
    87    21    20    1
    88    21    23   am
    89    24    27    1
    90    24    23    1
    91    27    28    1
    92    89    90    1
    93    20    19    1
    94     5     2    1
    95     5     6    1
    96    73    74    1
    97    30    31    1
    98    30    29    1
    99    82    80   ar
   100    90    91    2
   101   150   149    1
   102   150   151    1
   103    11    10    2
   104     3     2    1
   105     3     4    2
   106    19    14   am
   107    10    12   am
   108     2     1    1
   109    78    80   ar
   110    78    77    1
   111   149   144   am
   112    50    51    1
   113    50    52    1
   114   151   152    2
   115     6     7    1
   116    53    51    1
   117    91    93    1
   118    91    92    1
   119    29    28    1
   120    77    74    1
   121    74    75    1
   122   146   148    1
   123   146   147    1
   124   146   143    1
   125    12    13    1
   126    14    15    2
   127    14    13    1
   128   144   143    1
   129   144   145    2
   130    75    76    2
   131     1     7    1
   132   143   142    1
   133    13    16    1
   134    17    16    1
   135   142   135   am
   136   136   135    2
   137    16    18    1
   138   163   161    1
   139   135   134    1
   140   160   162    1
   141   160   161    1
   142   160   157    1
   143   156   157    1
   144   158   157    1
   145   158   159    2
   146   134   133    1
   147   134   137    1
   148   132   130    1
   149   130   131    1
   150   130   127    1
   151   129   128    2
   152   137   138    1
   153   128   127    1
   154   127   126    1
   155   138   139    1
   156   139   140    1
   157   140   141    1
