@<TRIPOS>MOLECULE
tmp/4cwaA00.pdb
 193 186 0 0 0
SMALL
GASTEIGER

@<TRIPOS>ATOM
      1  N          8.9480  -15.3200   -7.9610 N.3    11  TRP11      -0.1241
      2  CA         7.4830  -15.5890   -7.9700 C.3    11  TRP11       0.1605
      3  C          6.7860  -14.2680   -8.4460 C.2    11  TRP11       0.2264
      4  O          6.1180  -13.5640   -7.7010 O.2    11  TRP11      -0.2867
      5  CB         6.9340  -16.1480   -6.6300 C.3    11  TRP11       0.0550
      6  CG         7.5050  -15.5710   -5.3530 C.ar   11  TRP11       0.0003
      7  CD1        7.0450  -14.5080   -4.6460 C.ar   11  TRP11       0.0946
      8  CD2        8.6390  -16.0660   -4.6370 C.ar   11  TRP11       0.0152
      9  NE1        7.8600  -14.2710   -3.5480 N.ar   11  TRP11      -0.2442
     10  CE2        8.8220  -15.2450   -3.5120 C.ar   11  TRP11       0.0810
     11  CE3        9.5050  -17.1400   -4.8390 C.ar   11  TRP11       0.0012
     12  CZ2        9.8810  -15.4390   -2.5930 C.ar   11  TRP11       0.0191
     13  CZ3       10.5530  -17.3600   -3.9280 C.ar   11  TRP11       0.0001
     14  CH2       10.7390  -16.5110   -2.8230 C.ar   11  TRP11       0.0015
     15  N         11.4840  -15.0800   10.5910 N.3    46  LEU46      -0.1245
     16  CA        12.8090  -14.7390   10.1170 C.3    46  LEU46       0.1561
     17  C         12.7480  -14.5200    8.6260 C.2    46  LEU46       0.2260
     18  O         12.2550  -15.3960    7.8510 O.2    46  LEU46      -0.2867
     19  CB        13.8150  -15.9080   10.4170 C.3    46  LEU46       0.0270
     20  CG        15.2120  -15.7650    9.7370 C.3    46  LEU46       0.0019
     21  CD1       15.9610  -14.5940   10.3620 C.3    46  LEU46       0.0001
     22  CD2       16.0560  -17.0220    9.8510 C.3    46  LEU46       0.0001
     23  N         15.2430  -13.1240    5.2880 N.3    48  LEU48      -0.1245
     24  CA        16.5450  -12.9710    4.7270 C.3    48  LEU48       0.1561
     25  C         16.3920  -12.4570    3.3060 C.2    48  LEU48       0.2260
     26  O         15.7200  -13.0870    2.4910 O.2    48  LEU48      -0.2867
     27  CB        17.2710  -14.3330    4.7310 C.3    48  LEU48       0.0270
     28  CG        17.5850  -14.9430    6.1040 C.3    48  LEU48       0.0019
     29  CD1       18.4440  -16.1950    5.9030 C.3    48  LEU48       0.0001
     30  CD2       18.3320  -13.9260    6.9460 C.3    48  LEU48       0.0001
     31  N         12.8380  -12.4040    1.9420 N.3    51  VAL51      -0.1231
     32  CA        12.1370  -13.6410    1.7030 C.3    51  VAL51       0.1692
     33  C         11.9970  -14.3370    3.0600 C.2    51  VAL51       0.2592
     34  O         12.9530  -14.3950    3.8570 O.2    51  VAL51      -0.2718
     35  CB        12.9520  -14.5420    0.7550 C.3    51  VAL51       0.0266
     36  CG1       12.3380  -15.9460    0.6980 C.3    51  VAL51       0.0020
     37  CG2       13.0510  -13.9630   -0.6560 C.3    51  VAL51       0.0020
     38  N         10.8210  -14.8860    3.3390 N.am   52  ILE52      -0.1966
     39  CA        10.5720  -15.5750    4.6020 C.3    52  ILE52       0.1727
     40  C         11.3430  -16.8640    4.6210 C.2    52  ILE52       0.2616
     41  O         11.2040  -17.6790    3.7090 O.2    52  ILE52      -0.2715
     42  CB         9.0680  -15.9120    4.8030 C.3    52  ILE52       0.0290
     43  CG1        8.2090  -14.6110    4.8850 C.3    52  ILE52       0.0022
     44  CG2        8.8740  -16.7710    6.0620 C.3    52  ILE52       0.0023
     45  CD1        6.6940  -14.7830    4.7490 C.3    52  ILE52       0.0001
     46  N         12.0680  -17.0920    5.7010 N.am   53  GLN53      -0.1963
     47  CA        12.8580  -18.3100    5.8880 C.3    53  GLN53       0.1733
     48  C         12.2260  -19.3240    6.8250 C.2    53  GLN53       0.2616
     49  O         12.3900  -20.5100    6.6230 O.2    53  GLN53      -0.2715
     50  CB        14.2510  -17.9440    6.4150 C.3    53  GLN53       0.0408
     51  CG        14.9510  -17.0500    5.4030 C.3    53  GLN53       0.0908
     52  CD        15.2600  -17.7620    4.1020 C.2    53  GLN53       0.2608
     53  OE1       14.8930  -17.2950    2.9600 O.2    53  GLN53      -0.2717
     54  NE2       15.9310  -18.9080    4.2500 N.am   53  GLN53      -0.0878
     55  N         11.5200  -18.8350    7.8280 N.am   54  LEU54      -0.1977
     56  CA        10.6930  -19.6300    8.6870 C.3    54  LEU54       0.1596
     57  C          9.7430  -18.7570    9.5430 C.2    54  LEU54       0.2287
     58  O          9.9380  -17.5530    9.7430 O.2    54  LEU54      -0.2864
     59  CB        11.5670  -20.5420    9.6010 C.3    54  LEU54       0.0297
     60  CG        12.4510  -19.8630   10.6880 C.3    54  LEU54       0.0022
     61  CD1       11.5810  -19.4290   11.8400 C.3    54  LEU54       0.0001
     62  CD2       13.4540  -20.8900   11.2070 C.3    54  LEU54       0.0001
     63  N          8.3820  -28.2990    7.4710 N.3    62  TYR62      -0.1227
     64  CA         9.5580  -28.3810    6.6630 C.3    62  TYR62       0.1736
     65  C         10.7160  -29.0670    7.3930 C.2    62  TYR62       0.2595
     66  O         11.3680  -29.8880    6.8100 O.2    62  TYR62      -0.2718
     67  CB         9.9970  -26.9940    6.2640 C.3    62  TYR62       0.0548
     68  CG        11.2870  -26.8810    5.4930 C.ar   62  TYR62      -0.0200
     69  CD1       11.3690  -27.2660    4.1700 C.ar   62  TYR62      -0.0009
     70  CD2       12.4050  -26.2900    6.0760 C.ar   62  TYR62      -0.0009
     71  CE1       12.5450  -27.1000    3.4350 C.ar   62  TYR62       0.0417
     72  CE2       13.5890  -26.1550    5.3790 C.ar   62  TYR62       0.0417
     73  CZ        13.6860  -26.5640    4.0780 C.ar   62  TYR62       0.1957
     74  OH        14.8650  -26.3910    3.3920 O.3    62  TYR62      -0.2866
     75  N         10.9320  -28.7690    8.6550 N.am   63  HIS63      -0.1975
     76  CA        12.0450  -29.3960    9.3520 C.3    63  HIS63       0.1656
     77  C         11.8390  -30.9110    9.6330 C.2    63  HIS63       0.2291
     78  O         12.7630  -31.7120    9.4420 O.2    63  HIS63      -0.2864
     79  CB        12.4430  -28.6220   10.6330 C.3    63  HIS63       0.0771
     80  CG        12.9450  -27.2180   10.3480 C.ar   63  HIS63       0.0820
     81  ND1       12.4520  -26.0870   10.9820 N.ar   63  HIS63      -0.2267
     82  CD2       13.8460  -26.7730    9.4590 C.ar   63  HIS63       0.1154
     83  CE1       13.0080  -25.0120   10.4670 C.ar   63  HIS63       0.1986
     84  NE2       13.8740  -25.3930    9.5510 N.ar   63  HIS63      -0.2212
     85  N         23.6390  -25.1210    5.1200 N.3    84  GLY84      -0.1210
     86  CA        22.7140  -23.9760    5.3130 C.3    84  GLY84       0.1956
     87  C         22.0130  -24.2810    6.6200 C.2    84  GLY84       0.2612
     88  O         22.5910  -24.9350    7.5360 O.2    84  GLY84      -0.2717
     89  N         20.7700  -23.8710    6.7670 N.am   85  GLY85      -0.1942
     90  CA        20.0640  -24.2800    7.9630 C.3    85  GLY85       0.2014
     91  C         20.5160  -23.6600    9.2890 C.2    85  GLY85       0.2639
     92  O         20.3470  -24.2780   10.3720 O.2    85  GLY85      -0.2714
     93  N         21.0490  -22.4190    9.2240 N.am   86  GLY86      -0.1939
     94  CA        21.6550  -21.7740   10.4100 C.3    86  GLY86       0.2014
     95  C         20.6680  -21.6050   11.5320 C.2    86  GLY86       0.2638
     96  O         21.0340  -21.5210   12.7310 O.2    86  GLY86      -0.2714
     97  N         19.3720  -21.6080   11.1910 N.am   87  ASP87      -0.1971
     98  CA        18.3540  -21.4670   12.2070 C.3    87  ASP87       0.1709
     99  C         18.3570  -22.5840   13.2150 C.2    87  ASP87       0.2293
    100  O         17.9080  -22.4220   14.4020 O.2    87  ASP87      -0.2864
    101  CB        16.9390  -21.4060   11.5870 C.3    87  ASP87       0.1436
    102  CG        16.6540  -22.6160   10.6600 C.2    87  ASP87       0.3671
    103  OD1       17.0080  -22.5560    9.4810 O.co2  87  ASP87      -0.2456
    104  OD2       16.1810  -23.5920   11.1950 O.co2  87  ASP87      -0.2456
    105  N         27.2700  -23.2820    7.5170 N.3   107  GLU107     -0.1245
    106  CA        26.4210  -22.1050    7.2470 C.3   107  GLU107      0.1567
    107  C         27.3380  -20.9380    7.0620 C.2   107  GLU107      0.2260
    108  O         28.1760  -20.6680    7.9600 O.2   107  GLU107     -0.2867
    109  CB        25.5220  -21.8600    8.4590 C.3   107  GLU107      0.0388
    110  CG        24.8850  -20.4730    8.5750 C.3   107  GLU107      0.1160
    111  CD        23.9350  -20.1050    7.4150 C.2   107  GLU107      0.3649
    112  OE1       22.8930  -20.8030    7.2250 O.co2 107  GLU107     -0.2457
    113  OE2       24.2200  -19.1220    6.7050 O.co2 107  GLU107     -0.2457
    114  N         22.9470  -15.4300   11.1360 N.3   112  VAL112     -0.1245
    115  CA        21.7260  -16.2660   11.1000 C.3   112  VAL112      0.1561
    116  C         21.6730  -17.1600   12.2950 C.2   112  VAL112      0.2260
    117  O         20.6730  -17.1830   13.0160 O.2   112  VAL112     -0.2867
    118  CB        21.6610  -17.0570    9.8030 C.3   112  VAL112      0.0252
    119  CG1       20.5840  -18.1130    9.8440 C.3   112  VAL112      0.0019
    120  CG2       21.4310  -16.1170    8.6510 C.3   112  VAL112      0.0019
    121  N         19.5740  -27.5700    3.4760 N.3   156  ASP156     -0.1225
    122  CA        18.5520  -26.6270    3.8740 C.3   156  ASP156      0.1805
    123  C         19.0100  -25.2460    3.3730 C.2   156  ASP156      0.2598
    124  O         19.3910  -24.3660    4.1430 O.2   156  ASP156     -0.2718
    125  CB        18.3150  -26.6820    5.3660 C.3   156  ASP156      0.1424
    126  CG        17.2590  -25.7550    5.8160 C.2   156  ASP156      0.3668
    127  OD1       16.5270  -25.1740    4.9600 O.co2 156  ASP156     -0.2456
    128  OD2       17.1260  -25.6120    7.0480 O.co2 156  ASP156     -0.2456
    129  N         18.9490  -25.0640    2.0540 N.am  157  SER157     -0.1938
    130  CA        19.3630  -23.8380    1.4040 C.3   157  SER157      0.2055
    131  C         18.2260  -22.8670    1.2640 C.2   157  SER157      0.2644
    132  O         17.0590  -23.2480    1.1990 O.2   157  SER157     -0.2714
    133  CB        19.7700  -24.1210   -0.0130 C.3   157  SER157      0.2130
    134  OG        18.6040  -24.6410   -0.7000 O.3   157  SER157     -0.2179
    135  N         18.5720  -21.5850    1.2160 N.am  158  SER158     -0.1935
    136  CA        17.6680  -20.5610    0.7310 C.3   158  SER158      0.2055
    137  C         17.4290  -20.7890   -0.7890 C.2   158  SER158      0.2643
    138  O         17.8230  -21.8350   -1.3760 O.2   158  SER158     -0.2714
    139  CB        18.2820  -19.1770    1.0510 C.3   158  SER158      0.2130
    140  OG        18.1160  -18.9290    2.4540 O.3   158  SER158     -0.2179
    141  N         16.8020  -19.7940   -1.4010 N.am  159  ASP159     -0.1971
    142  CA        16.5930  -19.7420   -2.8540 C.3   159  ASP159      0.1709
    143  C         17.8470  -19.4040   -3.6530 C.2   159  ASP159      0.2293
    144  O         18.8090  -18.8450   -3.1010 O.2   159  ASP159     -0.2864
    145  CB        15.4800  -18.7150   -3.2270 C.3   159  ASP159      0.1436
    146  CG        14.1880  -18.9550   -2.4580 C.2   159  ASP159      0.3671
    147  OD1       13.5510  -20.0600   -2.5320 O.co2 159  ASP159     -0.2456
    148  OD2       13.8500  -18.0300   -1.7360 O.co2 159  ASP159     -0.2456
    149  N         16.3950  -28.8790   -0.4160 N.3   189  GLN189     -0.1245
    150  CA        15.2920  -27.9900   -0.7470 C.3   189  GLN189      0.1566
    151  C         15.2500  -27.7830   -2.2560 C.2   189  GLN189      0.2260
    152  O         16.2890  -27.5470   -2.9360 O.2   189  GLN189     -0.2867
    153  CB        15.3880  -26.6700   -0.0060 C.3   189  GLN189      0.0367
    154  CG        14.1720  -25.7470   -0.1540 C.3   189  GLN189      0.0905
    155  CD        14.4110  -24.6510   -1.1680 C.2   189  GLN189      0.2608
    156  OE1       14.0070  -24.7250   -2.3490 O.2   189  GLN189     -0.2717
    157  NE2       15.0690  -23.6410   -0.7420 N.am  189  GLN189     -0.0878
    158  N         12.1160  -26.2880   -4.0420 N.3   191  GLU191     -0.1245
    159  CA        11.3080  -25.2590   -4.6780 C.3   191  GLU191      0.1567
    160  C          9.8230  -25.7220   -4.8710 C.2   191  GLU191      0.2260
    161  O          9.4710  -26.7770   -4.3450 O.2   191  GLU191     -0.2867
    162  CB        12.0130  -24.7680   -5.9340 C.3   191  GLU191      0.0388
    163  CG        13.1590  -23.7440   -5.6540 C.3   191  GLU191      0.1160
    164  CD        12.9380  -22.6170   -4.5290 C.2   191  GLU191      0.3649
    165  OE1       11.7770  -22.2870   -4.0280 O.co2 191  GLU191     -0.2457
    166  OE2       13.9990  -21.9900   -4.1740 O.co2 191  GLU191     -0.2457
    167  N          5.7720  -20.6370    2.7860 N.3   224  TYR224     -0.1228
    168  CA         6.5910  -20.5890    1.6160 C.3   224  TYR224      0.1721
    169  C          5.7120  -20.3100    0.4320 C.2   224  TYR224      0.2437
    170  O          4.5230  -20.5990    0.4530 O.2   224  TYR224     -0.2733
    171  CB         7.3660  -21.8700    1.4050 C.3   224  TYR224      0.0547
    172  CG         8.4320  -22.0760    2.4380 C.ar  224  TYR224     -0.0200
    173  CD1        9.1120  -20.9860    3.0400 C.ar  224  TYR224     -0.0009
    174  CD2        8.7500  -23.3170    2.8450 C.ar  224  TYR224     -0.0009
    175  CE1       10.0900  -21.2100    3.9940 C.ar  224  TYR224      0.0417
    176  CE2        9.7310  -23.5360    3.7920 C.ar  224  TYR224      0.0417
    177  CZ        10.4090  -22.5170    4.3650 C.ar  224  TYR224      0.1957
    178  OH        11.3950  -22.8220    5.3450 O.3   224  TYR224     -0.2866
    179  N          6.2980  -19.7460   -0.6110 N.am  225  PRO225     -0.2729
    180  CA         5.5290  -19.3560   -1.7980 C.3   225  PRO225      0.1401
    181  C          4.7270  -20.5130   -2.4380 C.2   225  PRO225      0.2269
    182  O          5.2410  -21.6340   -2.6640 O.2   225  PRO225     -0.2865
    183  CB         6.6120  -18.8270   -2.7190 C.3   225  PRO225      0.0296
    184  CG         7.6540  -18.3280   -1.7730 C.3   225  PRO225      0.0237
    185  CD         7.7170  -19.4140   -0.7590 C.3   225  PRO225      0.0939
    186  N          6.6140  -26.7210   -0.6640 N.3   229  ILE229     -0.1245
    187  CA         8.0080  -26.7470   -1.0860 C.3   229  ILE229      0.1561
    188  C          8.4560  -28.1680   -1.1910 C.2   229  ILE229      0.2260
    189  O          7.9640  -28.9960   -0.4740 O.2   229  ILE229     -0.2867
    190  CB         8.8820  -25.9710   -0.0920 C.3   229  ILE229      0.0252
    191  CG1       10.1950  -25.7110   -0.7310 C.3   229  ILE229      0.0019
    192  CG2        9.0240  -26.6860    1.2770 C.3   229  ILE229      0.0019
    193  CD1       10.8100  -24.4630   -0.2360 C.3   229  ILE229      0.0001
@<TRIPOS>BOND
     1     3     2    1
     2     3     4    2
     3     2     1    1
     4     2     5    1
     5     5     6    1
     6   162   163    1
     7   162   159    1
     8   163   164    1
     9     6     7   ar
    10     6     8   ar
    11   160   159    1
    12   160   161    2
    13    11     8   ar
    14    11    13   ar
    15   159   158    1
    16     7     9   ar
    17     8    10   ar
    18   164   166   ar
    19   164   165   ar
    20    13    14   ar
    21   143   144    2
    22   143   142    1
    23     9    10   ar
    24    10    12   ar
    25   145   142    1
    26   145   146    1
    27   152   151    2
    28   142   141    1
    29    14    12   ar
    30   183   180    1
    31   183   184    1
    32   182   181    2
    33   147   146   ar
    34   146   148   ar
    35   181   180    1
    36   156   155    2
    37   151   150    1
    38   180   179    1
    39   184   185    1
    40   141   137   am
    41   138   137    2
    42   188   187    1
    43   188   189    2
    44   155   157   am
    45   155   154    1
    46   187   186    1
    47   187   190    1
    48   137   136    1
    49   185   179    1
    50   150   149    1
    51   150   153    1
    52   191   193    1
    53   191   190    1
    54   134   133    1
    55    37    35    1
    56   179   169   am
    57   154   153    1
    58   190   192    1
    59   133   130    1
    60   169   170    2
    61   169   168    1
    62    36    35    1
    63   136   139    1
    64   136   135    1
    65    35    32    1
    66   139   140    1
    67   132   131    2
    68   135   131   am
    69   131   130    1
    70   130   129    1
    71   171   168    1
    72   171   172    1
    73   168   167    1
    74    32    31    1
    75    32    33    1
    76   129   123   am
    77   172   174   ar
    78   172   173   ar
    79    26    25    2
    80   174   176   ar
    81    53    52    2
    82   173   175   ar
    83    33    38   am
    84    33    34    2
    85    25    24    1
    86    38    39    1
    87   123   122    1
    88   123   124    2
    89    74    73    1
    90    71    73   ar
    91    71    69   ar
    92   121   122    1
    93    41    40    2
    94   176   177   ar
    95   122   125    1
    96   175   177   ar
    97    73    72   ar
    98    52    54   am
    99    52    51    1
   100    69    68   ar
   101   177   178    1
   102    39    40    1
   103    39    42    1
   104    40    46   am
   105    24    27    1
   106    24    23    1
   107    27    28    1
   108    45    43    1
   109    42    43    1
   110    42    44    1
   111   127   126   ar
   112    85    86    1
   113    86    87    1
   114   125   126    1
   115    72    70   ar
   116    51    50    1
   117    68    70   ar
   118    68    67    1
   119    46    47    1
   120   126   128   ar
   121    47    50    1
   122    47    48    1
   123    29    28    1
   124    28    30    1
   125    67    64    1
   126    87    89   am
   127    87    88    2
   128    49    48    2
   129    64    65    1
   130    64    63    1
   131   113   111   ar
   132    89    90    1
   133    66    65    2
   134    48    55   am
   135   107   106    1
   136   107   108    2
   137   112   111   ar
   138   106   105    1
   139   106   109    1
   140    65    75   am
   141   111   110    1
   142    55    56    1
   143    18    17    2
   144    90    91    1
   145   109   110    1
   146    17    16    1
   147   120   118    1
   148    75    76    1
   149    56    57    1
   150    56    59    1
   151    93    91   am
   152    93    94    1
   153    91    92    2
   154    76    77    1
   155    76    79    1
   156    78    77    2
   157    82    84   ar
   158    82    80   ar
   159   103   102   ar
   160    57    58    2
   161    84    83   ar
   162    59    60    1
   163    20    22    1
   164    20    21    1
   165    20    19    1
   166   118   119    1
   167   118   115    1
   168    16    19    1
   169    16    15    1
   170    80    79    1
   171    80    81   ar
   172    94    95    1
   173    83    81   ar
   174   102   104   ar
   175   102   101    1
   176    60    62    1
   177    60    61    1
   178   115   114    1
   179   115   116    1
   180    97    95   am
   181    97    98    1
   182    95    96    2
   183   101    98    1
   184    98    99    1
   185   116   117    2
   186    99   100    2
