@<TRIPOS>MOLECULE
tmp/4cwbA01.pdb
 148 141 0 0 0
SMALL
GASTEIGER

@<TRIPOS>ATOM
      1  N         37.6260   -4.9470  -16.3500 N.3    10  GLY10      -0.1225
      2  CA        38.5600   -4.4100  -17.3320 C.3    10  GLY10       0.1811
      3  C         37.8230   -3.6490  -18.4020 C.2    10  GLY10       0.2280
      4  O         36.6880   -3.9720  -18.7210 O.2    10  GLY10      -0.2866
      5  N         47.1920   -0.7190  -17.7190 N.3    44  THR44      -0.1203
      6  CA        47.9140   -1.9190  -18.0180 C.3    44  THR44       0.1994
      7  C         48.0540   -2.0810  -19.5330 C.2    44  THR44       0.2617
      8  O         47.1130   -1.8530  -20.2920 O.2    44  THR44      -0.2717
      9  CB        47.1920   -3.1500  -17.3880 C.3    44  THR44       0.1784
     10  OG1       45.8980   -3.3040  -17.9450 O.3    44  THR44      -0.2211
     11  CG2       46.9580   -2.9360  -15.8800 C.3    44  THR44       0.0376
     12  N         49.2400   -2.4410  -19.9800 N.am   45  ALA45      -0.1979
     13  CA        49.4620   -2.7310  -21.3910 C.3    45  ALA45       0.1597
     14  C         48.6510   -3.9940  -21.7770 C.2    45  ALA45       0.2287
     15  O         48.5180   -4.9040  -20.9640 O.2    45  ALA45      -0.2864
     16  CB        50.9470   -2.9560  -21.6470 C.3    45  ALA45       0.0319
     17  N         47.5180   -7.5330  -22.8410 N.3    47  VAL47      -0.1231
     18  CA        48.1240   -8.8460  -22.8340 C.3    47  VAL47       0.1692
     19  C         47.4440   -9.7380  -23.8540 C.2    47  VAL47       0.2593
     20  O         46.2210   -9.7850  -23.9540 O.2    47  VAL47      -0.2718
     21  CB        48.0390   -9.4690  -21.4510 C.3    47  VAL47       0.0266
     22  CG1       48.7620  -10.8010  -21.4380 C.3    47  VAL47       0.0020
     23  CG2       48.6670   -8.5580  -20.3980 C.3    47  VAL47       0.0020
     24  N         48.2700  -10.4740  -24.5910 N.am   48  GLY48      -0.1942
     25  CA        47.8070  -11.3620  -25.6660 C.3    48  GLY48       0.2014
     26  C         48.0000  -10.7070  -27.0080 C.2    48  GLY48       0.2638
     27  O         49.1270  -10.5580  -27.4740 O.2    48  GLY48      -0.2714
     28  N         46.9040  -10.2740  -27.6160 N.am   49  TYR49      -0.1973
     29  CA        46.9410   -9.4670  -28.8410 C.3    49  TYR49       0.1639
     30  C         47.2860   -8.0330  -28.4390 C.2    49  TYR49       0.2290
     31  O         46.6110   -7.4580  -27.6020 O.2    49  TYR49      -0.2864
     32  CB        45.5730   -9.5180  -29.5110 C.3    49  TYR49       0.0560
     33  CG        45.3730   -8.6530  -30.7380 C.ar   49  TYR49      -0.0198
     34  CD1       46.0650   -8.8960  -31.9140 C.ar   49  TYR49      -0.0009
     35  CD2       44.4580   -7.6130  -30.7100 C.ar   49  TYR49      -0.0009
     36  CE1       45.8550   -8.0990  -33.0310 C.ar   49  TYR49       0.0417
     37  CE2       44.2350   -6.8280  -31.8170 C.ar   49  TYR49       0.0417
     38  CZ        44.9360   -7.0760  -32.9670 C.ar   49  TYR49       0.1957
     39  OH        44.6910   -6.2550  -34.0600 O.3    49  TYR49      -0.2866
     40  N         45.8890   -3.3130  -29.7160 N.3    52  GLN52      -0.1245
     41  CA        44.6230   -2.8720  -29.1790 C.3    52  GLN52       0.1566
     42  C         44.9140   -1.9520  -28.0000 C.2    52  GLN52       0.2260
     43  O         46.0520   -1.8750  -27.5490 O.2    52  GLN52      -0.2867
     44  CB        43.7690   -4.0670  -28.7640 C.3    52  GLN52       0.0367
     45  CG        44.2870   -4.8060  -27.5490 C.3    52  GLN52       0.0905
     46  CD        43.3300   -5.8850  -27.1150 C.2    52  GLN52       0.2608
     47  OE1       42.1380   -5.6550  -26.9290 O.2    52  GLN52      -0.2717
     48  NE2       43.8620   -7.0870  -26.9310 N.am   52  GLN52      -0.0878
     49  N         44.5280   -1.0600  -21.2040 N.3    55  PHE55      -0.1241
     50  CA        43.3970   -1.3510  -20.3450 C.3    55  PHE55       0.1605
     51  C         43.4420   -0.5490  -19.0530 C.2    55  PHE55       0.2264
     52  O         44.5130   -0.2130  -18.5930 O.2    55  PHE55      -0.2867
     53  CB        43.4270   -2.8290  -19.9320 C.3    55  PHE55       0.0534
     54  CG        42.9140   -3.7660  -20.9830 C.ar   55  PHE55      -0.0203
     55  CD1       43.7260   -4.1390  -22.0380 C.ar   55  PHE55      -0.0042
     56  CD2       41.6400   -4.2820  -20.9060 C.ar   55  PHE55      -0.0042
     57  CE1       43.2620   -5.0060  -23.0080 C.ar   55  PHE55      -0.0003
     58  CE2       41.1530   -5.1330  -21.8950 C.ar   55  PHE55      -0.0003
     59  CZ        41.9810   -5.5050  -22.9390 C.ar   55  PHE55      -0.0000
     60  N         42.1520   -1.6780  -15.3390 N.3    57  ASN57      -0.1240
     61  CA        41.7270   -2.8740  -14.5950 C.3    57  ASN57       0.1653
     62  C         41.5670   -2.5500  -13.1150 C.2    57  ASN57       0.2266
     63  O         42.2950   -1.7210  -12.5620 O.2    57  ASN57      -0.2867
     64  CB        42.7790   -3.9710  -14.7250 C.3    57  ASN57       0.1155
     65  CG        42.7490   -4.6730  -16.0670 C.2    57  ASN57       0.2627
     66  OD1       43.7010   -4.5880  -16.8490 O.2    57  ASN57      -0.2716
     67  ND2       41.6870   -5.4160  -16.3080 N.am   57  ASN57      -0.0877
     68  N         37.3220  -13.0770  -27.9440 N.3    89  ARG89      -0.1231
     69  CA        37.8590  -13.1950  -26.6050 C.3    89  ARG89       0.1694
     70  C         39.2120  -12.5480  -26.4750 C.2    89  ARG89       0.2592
     71  O         39.6010  -12.1340  -25.3960 O.2    89  ARG89      -0.2718
     72  CB        38.0160  -14.6700  -26.2230 C.3    89  ARG89       0.0321
     73  CG        36.7320  -15.4410  -26.0140 C.3    89  ARG89       0.0489
     74  CD        37.1000  -16.8850  -25.6760 C.3    89  ARG89       0.2205
     75  NE        38.0010  -16.9800  -24.5130 N.pl3  89  ARG89      -0.0865
     76  CZ        37.6610  -17.4880  -23.3260 C.cat  89  ARG89       0.5346
     77  NH1       36.4420  -17.9680  -23.1100 N.pl3  89  ARG89       0.1354
     78  NH2       38.5500  -17.5170  -22.3430 N.pl3  89  ARG89       0.1354
     79  N         39.9410  -12.4650  -27.5820 N.am   90  TRP90      -0.1962
     80  CA        41.2850  -11.9120  -27.5740 C.3    90  TRP90       0.1771
     81  C         41.3170  -10.3920  -27.7440 C.2    90  TRP90       0.2620
     82  O         42.3590   -9.7670  -27.5390 O.2    90  TRP90      -0.2715
     83  CB        42.1480  -12.5790  -28.6580 C.3    90  TRP90       0.0590
     84  CG        41.5260  -12.5950  -30.0130 C.ar   90  TRP90       0.0006
     85  CD1       40.8720  -13.6330  -30.5930 C.ar   90  TRP90       0.0946
     86  CD2       41.4890  -11.5200  -30.9560 C.ar   90  TRP90       0.0152
     87  NE1       40.4360  -13.2850  -31.8420 N.ar   90  TRP90      -0.2442
     88  CE2       40.8030  -11.9900  -32.0930 C.ar   90  TRP90       0.0810
     89  CE3       41.9820  -10.2090  -30.9550 C.ar   90  TRP90       0.0012
     90  CZ2       40.5940  -11.1920  -33.2180 C.ar   90  TRP90       0.0191
     91  CZ3       41.7700   -9.4160  -32.0720 C.ar   90  TRP90       0.0001
     92  CH2       41.0710   -9.9050  -33.1750 C.ar   90  TRP90       0.0015
     93  N         40.1910   -9.8370  -28.1520 N.am   91  GLY91      -0.1954
     94  CA        40.1200   -8.4650  -28.6260 C.3    91  GLY91       0.1869
     95  C         39.5410   -7.4740  -27.6430 C.2    91  GLY91       0.2309
     96  O         39.1920   -7.7970  -26.4960 O.2    91  GLY91      -0.2863
     97  N         37.2890   -4.5940  -25.6240 N.3    93  ARG93      -0.1245
     98  CA        35.9620   -4.6060  -25.0350 C.3    93  ARG93       0.1563
     99  C         35.7260   -3.3730  -24.1710 C.2    93  ARG93       0.2260
    100  O         36.6180   -2.8970  -23.4720 O.2    93  ARG93      -0.2867
    101  CB        35.6720   -5.9010  -24.2320 C.3    93  ARG93       0.0307
    102  CG        36.3850   -6.0650  -22.8840 C.3    93  ARG93       0.0489
    103  CD        37.8850   -6.3140  -22.9510 C.3    93  ARG93       0.2205
    104  NE        38.2170   -7.4220  -23.8340 N.pl3  93  ARG93      -0.0865
    105  CZ        38.2540   -8.7020  -23.4730 C.cat  93  ARG93       0.5346
    106  NH1       38.0630   -9.0650  -22.1990 N.pl3  93  ARG93       0.1354
    107  NH2       38.4890   -9.6270  -24.3890 N.pl3  93  ARG93       0.1354
    108  N         34.7030   -5.9170  -19.3290 N.3    96  ASP96      -0.1239
    109  CA        34.8530   -7.3290  -19.0010 C.3    96  ASP96       0.1674
    110  C         34.6480   -7.4550  -17.4930 C.2    96  ASP96       0.2266
    111  O         35.2670   -6.7330  -16.7200 O.2    96  ASP96      -0.2867
    112  CB        36.2620   -7.7910  -19.3720 C.3    96  ASP96       0.1410
    113  CG        36.4920   -9.2640  -19.1080 C.2    96  ASP96       0.3668
    114  OD1       35.5840  -10.0460  -19.3860 O.co2  96  ASP96      -0.2456
    115  OD2       37.6280   -9.6100  -18.6940 O.co2  96  ASP96      -0.2456
    116  N         43.2860  -18.2520  -14.8960 N.3   118  ARG118     -0.1245
    117  CA        44.4110  -17.4940  -15.3900 C.3   118  ARG118      0.1563
    118  C         44.8310  -16.3890  -14.4370 C.2   118  ARG118      0.2260
    119  O         45.8060  -15.7030  -14.6920 O.2   118  ARG118     -0.2867
    120  CB        44.0830  -16.9410  -16.7800 C.3   118  ARG118      0.0307
    121  CG        44.1020  -18.0370  -17.8360 C.3   118  ARG118      0.0489
    122  CD        43.3150  -17.6780  -19.0840 C.3   118  ARG118      0.2205
    123  NE        41.8870  -17.9000  -18.9570 N.pl3 118  ARG118     -0.0865
    124  CZ        41.3320  -19.1200  -18.9570 C.cat 118  ARG118      0.5346
    125  NH1       42.0860  -20.2120  -19.0430 N.pl3 118  ARG118      0.1354
    126  NH2       40.0230  -19.2550  -18.8420 N.pl3 118  ARG118      0.1354
    127  N         48.5320  -13.2700  -13.9180 N.3   122  ARG122     -0.1245
    128  CA        48.1840  -11.9420  -14.4530 C.3   122  ARG122      0.1563
    129  C         48.3760  -10.8660  -13.4150 C.2   122  ARG122      0.2260
    130  O         47.6070  -10.7680  -12.4610 O.2   122  ARG122     -0.2867
    131  CB        46.7470  -11.8980  -14.9280 C.3   122  ARG122      0.0307
    132  CG        46.4640  -12.7960  -16.1120 C.3   122  ARG122      0.0489
    133  CD        44.9840  -12.9260  -16.3420 C.3   122  ARG122      0.2205
    134  NE        44.6790  -13.5500  -17.6310 N.pl3 122  ARG122     -0.0865
    135  CZ        43.4620  -13.6540  -18.1500 C.cat 122  ARG122      0.5346
    136  NH1       42.3800  -13.1770  -17.5070 N.pl3 122  ARG122      0.1354
    137  NH2       43.3020  -14.2780  -19.3020 N.pl3 122  ARG122      0.1354
    138  N         47.7430   -7.8070  -13.9010 N.3   124  PHE124     -0.1241
    139  CA        46.5990   -6.8930  -14.0290 C.3   124  PHE124      0.1605
    140  C         45.3970   -7.3370  -13.1660 C.2   124  PHE124      0.2264
    141  O         44.4630   -6.5710  -12.9330 O.2   124  PHE124     -0.2867
    142  CB        46.2170   -6.6200  -15.4900 C.3   124  PHE124      0.0534
    143  CG        45.5620   -7.7670  -16.2370 C.ar  124  PHE124     -0.0203
    144  CD1       44.2260   -8.0530  -16.0420 C.ar  124  PHE124     -0.0042
    145  CD2       46.2630   -8.4760  -17.2190 C.ar  124  PHE124     -0.0042
    146  CE1       43.5850   -9.0370  -16.7850 C.ar  124  PHE124     -0.0003
    147  CE2       45.6230   -9.4630  -17.9670 C.ar  124  PHE124     -0.0003
    148  CZ        44.2900   -9.7390  -17.7430 C.ar  124  PHE124     -0.0000
@<TRIPOS>BOND
     1    39    38    1
     2    90    92   ar
     3    90    88   ar
     4    92    91   ar
     5    36    38   ar
     6    36    34   ar
     7    38    37   ar
     8    88    87   ar
     9    88    86   ar
    10    91    89   ar
    11    34    33   ar
    12    87    85   ar
    13    37    35   ar
    14    86    89   ar
    15    86    84   ar
    16    33    35   ar
    17    33    32    1
    18    85    84   ar
    19    84    83    1
    20    40    41    1
    21    32    29    1
    22    41    44    1
    23    41    42    1
    24    29    30    1
    25    29    28    1
    26    44    45    1
    27    83    80    1
    28    94    93    1
    29    94    95    1
    30    30    31    2
    31    93    81   am
    32    42    43    2
    33    68    69    1
    34    81    80    1
    35    81    82    2
    36    95    96    2
    37    28    26   am
    38    79    80    1
    39    79    70   am
    40    45    46    1
    41    27    26    2
    42    46    48   am
    43    46    47    2
    44    26    25    1
    45    69    70    1
    46    69    72    1
    47    70    71    2
    48    72    73    1
    49    73    74    1
    50    74    75    1
    51    25    24    1
    52    97    98    1
    53    98   101    1
    54    98    99    1
    55    24    19   am
    56    75    76    2
    57   107   105    1
    58   101   102    1
    59    99   100    2
    60    20    19    2
    61    19    18    1
    62   104   105    2
    63   104   103    1
    64   105   106    1
    65    76    77    1
    66    76    78    1
    67    57    59   ar
    68    57    55   ar
    69   103   102    1
    70    59    58   ar
    71    17    18    1
    72    18    21    1
    73    55    54   ar
    74    58    56   ar
    75    14    13    1
    76    14    15    2
    77    16    13    1
    78    21    22    1
    79    21    23    1
    80    13    12    1
    81    49    50    1
    82    54    56   ar
    83    54    53    1
    84    50    53    1
    85    50    51    1
    86     8     7    2
    87    12     7   am
    88     7     6    1
    89   114   113   ar
    90   112   113    1
    91   112   109    1
    92   108   109    1
    93   137   135    1
    94   113   115   ar
    95   122   123    1
    96   122   121    1
    97    51    52    2
    98   125   124    1
    99   109   110    1
   100   124   123    2
   101   124   126    1
   102     4     3    2
   103     3     2    1
   104   135   134    2
   105   135   136    1
   106     6     5    1
   107     6     9    1
   108   147   148   ar
   109   147   145   ar
   110    10     9    1
   111   121   120    1
   112   148   146   ar
   113   134   133    1
   114   110   111    2
   115     9    11    1
   116     2     1    1
   117   145   143   ar
   118    66    65    2
   119   146   144   ar
   120   120   117    1
   121   133   132    1
   122    67    65   am
   123   143   144   ar
   124   143   142    1
   125   132   131    1
   126    65    64    1
   127   142   139    1
   128   117   116    1
   129   117   118    1
   130    60    61    1
   131   131   128    1
   132    64    61    1
   133   119   118    2
   134    61    62    1
   135   128   127    1
   136   128   129    1
   137   139   138    1
   138   139   140    1
   139   129   130    2
   140   140   141    2
   141    62    63    2
