@<TRIPOS>MOLECULE
tmp/4cwdA00.pdb
 135 132 0 0 0
SMALL
GASTEIGER

@<TRIPOS>ATOM
      1  N        -37.5100   -8.7490  -43.1650 N.3   178  TYR178     -0.1241
      2  CA       -36.8630   -9.2710  -44.3640 C.3   178  TYR178      0.1605
      3  C        -35.4550   -9.8160  -44.0770 C.2   178  TYR178      0.2264
      4  O        -34.7660  -10.2710  -44.9940 O.2   178  TYR178     -0.2867
      5  CB       -36.8120   -8.1880  -45.4470 C.3   178  TYR178      0.0534
      6  CG       -38.1780   -7.9100  -46.0410 C.ar  178  TYR178     -0.0201
      7  CD1      -38.6820   -8.7030  -47.0610 C.ar  178  TYR178     -0.0009
      8  CD2      -38.9700   -6.8730  -45.5620 C.ar  178  TYR178     -0.0009
      9  CE1      -39.9300   -8.4630  -47.6010 C.ar  178  TYR178      0.0417
     10  CE2      -40.2170   -6.6310  -46.0910 C.ar  178  TYR178      0.0417
     11  CZ       -40.6900   -7.4250  -47.1120 C.ar  178  TYR178      0.1957
     12  OH       -41.9380   -7.1930  -47.6500 O.3   178  TYR178     -0.2866
     13  N        -30.6110   -8.9720  -46.8610 N.3   182  TRP182     -0.1241
     14  CA       -31.6080   -9.4750  -47.7920 C.3   182  TRP182      0.1605
     15  C        -31.1080   -9.3580  -49.2220 C.2   182  TRP182      0.2264
     16  O        -30.2810   -8.5020  -49.5350 O.2   182  TRP182     -0.2867
     17  CB       -32.9380   -8.7330  -47.6160 C.3   182  TRP182      0.0550
     18  CG       -32.7940   -7.3440  -47.0560 C.ar  182  TRP182      0.0003
     19  CD1      -32.8440   -6.9800  -45.7340 C.ar  182  TRP182      0.0946
     20  CD2      -32.5790   -6.1400  -47.7940 C.ar  182  TRP182      0.0152
     21  NE1      -32.6720   -5.6210  -45.6100 N.ar  182  TRP182     -0.2442
     22  CE2      -32.5010   -5.0820  -46.8580 C.ar  182  TRP182      0.0810
     23  CE3      -32.4420   -5.8480  -49.1560 C.ar  182  TRP182      0.0012
     24  CZ2      -32.2940   -3.7630  -47.2400 C.ar  182  TRP182      0.0191
     25  CZ3      -32.2390   -4.5390  -49.5330 C.ar  182  TRP182      0.0001
     26  CH2      -32.1650   -3.5090  -48.5770 C.ar  182  TRP182      0.0015
     27  N        -31.6750   -8.7500  -53.0870 N.3   184  VAL184     -0.1245
     28  CA       -32.5010   -8.0900  -54.0790 C.3   184  VAL184      0.1561
     29  C        -32.2570   -8.7820  -55.4040 C.2   184  VAL184      0.2260
     30  O        -31.2370   -8.5620  -56.0530 O.2   184  VAL184     -0.2867
     31  CB       -32.1870   -6.5890  -54.1740 C.3   184  VAL184      0.0252
     32  CG1      -33.1350   -5.9010  -55.1510 C.3   184  VAL184      0.0019
     33  CG2      -32.2820   -5.9490  -52.7830 C.3   184  VAL184      0.0019
     34  N        -42.4490   -8.9750  -52.3970 N.3   192  ASN192     -0.1240
     35  CA       -42.1510   -7.5500  -52.4380 C.3   192  ASN192      0.1653
     36  C        -41.7850   -7.1550  -53.8620 C.2   192  ASN192      0.2266
     37  O        -41.0810   -7.9050  -54.5370 O.2   192  ASN192     -0.2867
     38  CB       -41.0100   -7.2210  -51.4750 C.3   192  ASN192      0.1155
     39  CG       -40.9090   -5.7390  -51.1650 C.2   192  ASN192      0.2627
     40  OD1      -40.4490   -4.9510  -51.9880 O.2   192  ASN192     -0.2716
     41  ND2      -41.3150   -5.3580  -49.9580 N.am  192  ASN192     -0.0877
     42  N        -39.6930   -5.2230  -54.8790 N.3   194  ALA194     -0.1231
     43  CA       -38.2430   -5.1160  -54.9950 C.3   194  ALA194      0.1694
     44  C        -37.6430   -6.4150  -55.5350 C.2   194  ALA194      0.2592
     45  O        -36.6100   -6.4060  -56.2100 O.2   194  ALA194     -0.2718
     46  CB       -37.6240   -4.7690  -53.6450 C.3   194  ALA194      0.0304
     47  N        -38.2970   -7.5300  -55.2380 N.am  195  TYR195     -0.1976
     48  CA       -37.7850   -8.8350  -55.6120 C.3   195  TYR195      0.1639
     49  C        -38.3890   -9.2640  -56.9600 C.2   195  TYR195      0.2290
     50  O        -38.7510  -10.4210  -57.1510 O.2   195  TYR195     -0.2864
     51  CB       -38.0850   -9.8550  -54.5080 C.3   195  TYR195      0.0560
     52  CG       -37.4750   -9.5180  -53.1470 C.ar  195  TYR195     -0.0198
     53  CD1      -36.3510   -8.7070  -53.0390 C.ar  195  TYR195     -0.0009
     54  CD2      -38.0280  -10.0180  -51.9730 C.ar  195  TYR195     -0.0009
     55  CE1      -35.7970   -8.3980  -51.7990 C.ar  195  TYR195      0.0417
     56  CE2      -37.4810   -9.7110  -50.7250 C.ar  195  TYR195      0.0417
     57  CZ       -36.3640   -8.9120  -50.6450 C.ar  195  TYR195      0.1957
     58  OH       -35.8210   -8.6080  -49.4080 O.3   195  TYR195     -0.2866
     59  N        -38.5940    6.0930  -54.0520 N.3   203  HIS203     -0.1241
     60  CA       -39.1980    5.6690  -52.7990 C.3   203  HIS203      0.1621
     61  C        -38.1640    5.6870  -51.6880 C.2   203  HIS203      0.2264
     62  O        -36.9610    5.6840  -51.9450 O.2   203  HIS203     -0.2867
     63  CB       -39.7960    4.2650  -52.9270 C.3   203  HIS203      0.0745
     64  CG       -38.7810    3.1860  -53.1530 C.ar  203  HIS203      0.0817
     65  ND1      -38.2040    2.9480  -54.3820 N.ar  203  HIS203     -0.2268
     66  CD2      -38.2420    2.2810  -52.3020 C.ar  203  HIS203      0.1154
     67  CE1      -37.3470    1.9460  -54.2740 C.ar  203  HIS203      0.1986
     68  NE2      -37.3630    1.5170  -53.0240 N.ar  203  HIS203     -0.2212
     69  N        -37.2620    3.2580  -48.2960 N.3   205  ASP205     -0.1225
     70  CA       -37.5540    1.9000  -47.8410 C.3   205  ASP205      0.1805
     71  C        -38.3070    1.8600  -46.5310 C.2   205  ASP205      0.2598
     72  O        -37.9960    2.5970  -45.6020 O.2   205  ASP205     -0.2718
     73  CB       -36.2700    1.0930  -47.6840 C.3   205  ASP205      0.1424
     74  CG       -35.9100    0.3620  -48.9420 C.2   205  ASP205      0.3668
     75  OD1      -36.4110    0.8150  -49.9740 O.co2 205  ASP205     -0.2456
     76  OD2      -35.1740   -0.6440  -48.8920 O.co2 205  ASP205     -0.2456
     77  N        -39.2790    0.9520  -46.4900 N.am  206  TYR206     -0.1963
     78  CA       -39.9730    0.5280  -45.2740 C.3   206  TYR206      0.1756
     79  C        -40.7670    1.6160  -44.5400 C.2   206  TYR206      0.2461
     80  O        -40.7230    1.7040  -43.3070 O.2   206  TYR206     -0.2730
     81  CB       -38.9520   -0.1220  -44.3180 C.3   206  TYR206      0.0574
     82  CG       -39.2750   -1.5590  -43.9490 C.ar  206  TYR206     -0.0198
     83  CD1      -40.5900   -1.9830  -43.7880 C.ar  206  TYR206     -0.0009
     84  CD2      -38.2600   -2.4930  -43.7740 C.ar  206  TYR206     -0.0009
     85  CE1      -40.8830   -3.2880  -43.4350 C.ar  206  TYR206      0.0417
     86  CE2      -38.5400   -3.7990  -43.4210 C.ar  206  TYR206      0.0417
     87  CZ       -39.8490   -4.1900  -43.2510 C.ar  206  TYR206      0.1957
     88  OH       -40.1220   -5.4850  -42.9030 O.3   206  TYR206     -0.2866
     89  N        -41.5450    2.4180  -45.2830 N.am  207  PRO207     -0.2716
     90  CA       -42.4690    3.3010  -44.5680 C.3   207  PRO207      0.1536
     91  C        -43.5790    2.5240  -43.8610 C.2   207  PRO207      0.2598
     92  O        -44.3140    3.1120  -43.0750 O.2   207  PRO207     -0.2715
     93  CB       -43.0460    4.1800  -45.6770 C.3   207  PRO207      0.0310
     94  CG       -42.9050    3.3450  -46.9260 C.3   207  PRO207      0.0237
     95  CD       -41.5880    2.6440  -46.7390 C.3   207  PRO207      0.0939
     96  N        -43.7040    1.2250  -44.1380 N.am  208  ALA208     -0.1978
     97  CA       -44.6830    0.3850  -43.4320 C.3   208  ALA208      0.1597
     98  C        -44.3210    0.2530  -41.9510 C.2   208  ALA208      0.2287
     99  O        -45.1240   -0.2140  -41.1570 O.2   208  ALA208     -0.2864
    100  CB       -44.7760   -0.9830  -44.0750 C.3   208  ALA208      0.0319
    101  N        -47.7870   -3.9520  -45.1830 N.3   262  ASP262     -0.1239
    102  CA       -46.9090   -5.0070  -45.7030 C.3   262  ASP262      0.1674
    103  C        -47.2850   -6.3250  -45.0470 C.2   262  ASP262      0.2266
    104  O        -47.1490   -6.4880  -43.8350 O.2   262  ASP262     -0.2867
    105  CB       -45.4350   -4.6740  -45.4490 C.3   262  ASP262      0.1410
    106  CG       -44.4700   -5.4870  -46.3230 C.2   262  ASP262      0.3668
    107  OD1      -44.8750   -6.0010  -47.3940 O.co2 262  ASP262     -0.2456
    108  OD2      -43.2790   -5.5830  -45.9460 O.co2 262  ASP262     -0.2456
    109  N        -43.2930    5.0570  -50.1480 N.3   293  ASN293     -0.1240
    110  CA       -43.0830    3.9670  -51.0850 C.3   293  ASN293      0.1653
    111  C        -44.4230    3.6520  -51.7360 C.2   293  ASN293      0.2266
    112  O        -45.3540    3.2290  -51.0510 O.2   293  ASN293     -0.2867
    113  CB       -42.5130    2.7450  -50.3700 C.3   293  ASN293      0.1155
    114  CG       -42.0860    1.6440  -51.3340 C.2   293  ASN293      0.2627
    115  OD1      -42.6170    1.5240  -52.4340 O.2   293  ASN293     -0.2716
    116  ND2      -41.1210    0.8330  -50.9150 N.am  293  ASN293     -0.0877
    117  N        -46.1210    0.1140  -51.1910 N.3   296  THR296     -0.1218
    118  CA       -46.6580   -0.3130  -49.8990 C.3   296  THR296      0.1862
    119  C        -47.6850    0.6690  -49.3280 C.2   296  THR296      0.2287
    120  O        -48.3260    0.3860  -48.3130 O.2   296  THR296     -0.2866
    121  CB       -45.5220   -0.5150  -48.8750 C.3   296  THR296      0.1770
    122  OG1      -44.8160    0.7130  -48.6910 O.3   296  THR296     -0.2211
    123  CG2      -44.5490   -1.5840  -49.3750 C.3   296  THR296      0.0375
    124  N        -29.9080   -2.6580  -43.2970 N.3   367  TYR367     -0.1241
    125  CA       -30.3000   -1.3840  -42.7180 C.3   367  TYR367      0.1605
    126  C        -29.5050   -1.1130  -41.4490 C.2   367  TYR367      0.2264
    127  O        -29.0080   -2.0460  -40.8060 O.2   367  TYR367     -0.2867
    128  CB       -31.7920   -1.3730  -42.3740 C.3   367  TYR367      0.0534
    129  CG       -32.7310   -1.5370  -43.5570 C.ar  367  TYR367     -0.0201
    130  CD1      -32.7130   -0.6460  -44.6140 C.ar  367  TYR367     -0.0009
    131  CD2      -33.6580   -2.5680  -43.5830 C.ar  367  TYR367     -0.0009
    132  CE1      -33.5780   -0.7920  -45.6830 C.ar  367  TYR367      0.0417
    133  CE2      -34.5180   -2.7240  -44.6370 C.ar  367  TYR367      0.0417
    134  CZ       -34.4800   -1.8350  -45.6830 C.ar  367  TYR367      0.1957
    135  OH       -35.3420   -1.9820  -46.7420 O.3   367  TYR367     -0.2866
@<TRIPOS>BOND
     1    50    49    2
     2    49    48    1
     3    45    44    2
     4    30    29    2
     5    48    47    1
     6    48    51    1
     7    44    47   am
     8    44    43    1
     9    29    28    1
    10    32    31    1
    11    43    42    1
    12    43    46    1
    13    37    36    2
    14    51    52    1
    15    65    67   ar
    16    65    64   ar
    17    67    68   ar
    18    31    28    1
    19    31    33    1
    20    28    27    1
    21    59    60    1
    22    36    35    1
    23    64    63    1
    24    64    66   ar
    25    52    53   ar
    26    52    54   ar
    27    53    55   ar
    28    68    66   ar
    29    63    60    1
    30    60    61    1
    31    35    34    1
    32    35    38    1
    33   115   114    2
    34    40    39    2
    35    54    56   ar
    36    62    61    2
    37    55    57   ar
    38   111   110    1
    39   111   112    2
    40    38    39    1
    41   114   116   am
    42   114   113    1
    43   117   118    1
    44    39    41   am
    45   110   113    1
    46   110   109    1
    47    56    57   ar
    48    57    58    1
    49    75    74   ar
    50   118   119    1
    51   118   121    1
    52    16    15    2
    53    25    23   ar
    54    25    26   ar
    55   123   121    1
    56   119   120    2
    57    15    14    1
    58    23    20   ar
    59    74    76   ar
    60    74    73    1
    61   121   122    1
    62    26    24   ar
    63    69    70    1
    64    70    73    1
    65    70    71    1
    66    20    18   ar
    67    20    22   ar
    68    14    17    1
    69    14    13    1
    70    12    11    1
    71    17    18    1
    72     9    11   ar
    73     9     7   ar
    74   107   106   ar
    75    24    22   ar
    76    11    10   ar
    77     7     6   ar
    78    18    19   ar
    79    94    95    1
    80    94    93    1
    81    22    21   ar
    82   135   134    1
    83    95    89    1
    84    71    77   am
    85    71    72    2
    86    77    78    1
    87   106   108   ar
    88   106   105    1
    89    10     8   ar
    90     6     8   ar
    91     6     5    1
    92    19    21   ar
    93   102   105    1
    94   102   101    1
    95   102   103    1
    96   132   134   ar
    97   132   130   ar
    98   134   133   ar
    99    93    90    1
   100     5     2    1
   101    89    90    1
   102    89    79   am
   103    78    79    1
   104    78    81    1
   105   103   104    2
   106     4     3    2
   107   133   131   ar
   108   130   129   ar
   109    90    91    1
   110    79    80    2
   111     2     3    1
   112     2     1    1
   113    81    82    1
   114    96    91   am
   115    96    97    1
   116   100    97    1
   117    82    83   ar
   118    82    84   ar
   119    91    92    2
   120    83    85   ar
   121    84    86   ar
   122   131   129   ar
   123   129   128    1
   124    85    87   ar
   125    97    98    1
   126    86    87   ar
   127   124   125    1
   128    87    88    1
   129   125   128    1
   130   125   126    1
   131    98    99    2
   132   126   127    2
