@<TRIPOS>MOLECULE
tmp/4cwfA00.pdb
 129 122 0 0 0
SMALL
GASTEIGER

@<TRIPOS>ATOM
      1  N         15.8840   18.7320   26.0960 N.3     7  PHE7       -0.1241
      2  CA        15.6310   17.3770   25.5870 C.3     7  PHE7        0.1605
      3  C         16.9470   16.5980   25.6400 C.2     7  PHE7        0.2264
      4  O         18.0320   17.1850   25.5000 O.2     7  PHE7       -0.2867
      5  CB        15.1970   17.4060   24.1140 C.3     7  PHE7        0.0534
      6  CG        13.8210   17.9670   23.8790 C.ar    7  PHE7       -0.0203
      7  CD1       12.6850   17.1980   24.1480 C.ar    7  PHE7       -0.0042
      8  CD2       13.6550   19.2500   23.3860 C.ar    7  PHE7       -0.0042
      9  CE1       11.3990   17.7150   23.9220 C.ar    7  PHE7       -0.0003
     10  CE2       12.3870   19.7710   23.1590 C.ar    7  PHE7       -0.0003
     11  CZ        11.2630   19.0110   23.4320 C.ar    7  PHE7       -0.0000
     12  N         -1.8440    8.0580   19.2730 N.3    36  ASN36      -0.1240
     13  CA        -1.4400    8.2660   20.6760 C.3    36  ASN36       0.1653
     14  C         -2.6500    8.3860   21.5930 C.2    36  ASN36       0.2266
     15  O         -2.6520    7.8220   22.6770 O.2    36  ASN36      -0.2867
     16  CB        -0.5620    9.5200   20.8450 C.3    36  ASN36       0.1155
     17  CG         0.8270    9.3620   20.2570 C.2    36  ASN36       0.2627
     18  OD1        1.2680    8.2420   19.9190 O.2    36  ASN36      -0.2716
     19  ND2        1.5490   10.4940   20.1460 N.am   36  ASN36      -0.0877
     20  N         -3.7150    5.9090   24.6760 N.3    40  ALA40      -0.1245
     21  CA        -3.9720    6.4670   26.0060 C.3    40  ALA40       0.1562
     22  C         -5.3640    6.0530   26.5090 C.2    40  ALA40       0.2260
     23  O         -5.5550    5.7700   27.6880 O.2    40  ALA40      -0.2867
     24  CB        -3.8010    7.9900   25.9840 C.3    40  ALA40       0.0290
     25  N         -5.3420    2.4730   27.4840 N.3    43  LYS43      -0.1245
     26  CA        -4.6980    2.3340   28.7990 C.3    43  LYS43       0.1561
     27  C         -5.6740    2.5770   29.9680 C.2    43  LYS43       0.2260
     28  O         -5.7770    1.7480   30.8860 O.2    43  LYS43      -0.2867
     29  CB        -3.4960    3.2850   28.9070 C.3    43  LYS43       0.0271
     30  CG        -2.2610    2.6720   29.5550 C.3    43  LYS43       0.0035
     31  CD        -0.9880    3.4740   29.2590 C.3    43  LYS43       0.0206
     32  CE        -0.5500    3.4350   27.7950 C.3    43  LYS43       0.1093
     33  NZ         0.7710    4.1240   27.6250 N.3    43  LYS43      -0.1314
     34  N         -0.8530   12.0090   31.4830 N.3    83  MET83      -0.1245
     35  CA         0.5750   11.8080   31.7510 C.3    83  MET83       0.1570
     36  C          0.9740   12.4090   33.1070 C.2    83  MET83       0.2261
     37  O          0.4800   13.4830   33.4980 O.2    83  MET83      -0.2867
     38  CB         1.4320   12.3910   30.6080 C.3    83  MET83       0.0387
     39  CG         1.3360   11.6230   29.2900 C.3    83  MET83       0.0595
     40  SD         2.1470   12.5190   27.9500 S.3    83  MET83      -0.1393
     41  CE         0.9540   13.8260   27.6290 C.3    83  MET83       0.0692
     42  N          6.3450   13.2980   31.5540 N.3    88  LEU88      -0.1245
     43  CA         6.6910   14.5140   30.7900 C.3    88  LEU88       0.1561
     44  C          8.1840   14.8510   30.7680 C.2    88  LEU88       0.2260
     45  O          8.7250   15.2390   29.7370 O.2    88  LEU88      -0.2867
     46  CB         5.8700   15.7230   31.2870 C.3    88  LEU88       0.0270
     47  CG         4.3740   15.6490   30.9940 C.3    88  LEU88       0.0019
     48  CD1        3.6140   16.8100   31.6480 C.3    88  LEU88       0.0001
     49  CD2        4.1160   15.6100   29.4910 C.3    88  LEU88       0.0001
     50  N          9.1320    9.3820   29.1570 N.3    92  LEU92      -0.1231
     51  CA         8.8290    9.3350   27.7190 C.3    92  LEU92       0.1693
     52  C         10.0950    9.5810   26.8960 C.2    92  LEU92       0.2592
     53  O         10.3170    8.9210   25.8790 O.2    92  LEU92      -0.2718
     54  CB         7.6700   10.2770   27.3200 C.3    92  LEU92       0.0284
     55  CG         6.3240    9.9540   27.9990 C.3    92  LEU92       0.0019
     56  CD1        5.3250   11.0740   27.7540 C.3    92  LEU92       0.0001
     57  CD2        5.7440    8.6150   27.5570 C.3    92  LEU92       0.0001
     58  N         10.9280   10.5080   27.3650 N.am   93  GLY93      -0.1957
     59  CA        12.2300   10.7730   26.7410 C.3    93  GLY93       0.1869
     60  C         13.1590    9.5550   26.7510 C.2    93  GLY93       0.2309
     61  O         13.9330    9.3590   25.7970 O.2    93  GLY93      -0.2863
     62  N         12.1400    6.2390   26.7050 N.3    95  ILE95      -0.1231
     63  CA        11.5980    5.4150   25.6110 C.3    95  ILE95       0.1692
     64  C         11.9600    6.0190   24.2560 C.2    95  ILE95       0.2591
     65  O         12.4270    5.3080   23.3640 O.2    95  ILE95      -0.2718
     66  CB        10.0680    5.2810   25.6790 C.3    95  ILE95       0.0266
     67  CG1        9.6350    4.6930   27.0230 C.3    95  ILE95       0.0019
     68  CG2        9.5570    4.4320   24.5170 C.3    95  ILE95       0.0020
     69  CD1        8.2220    5.0830   27.4120 C.3    95  ILE95       0.0001
     70  N         11.7660    7.3340   24.1200 N.am   96  ALA96      -0.1980
     71  CA        12.0130    8.0320   22.8610 C.3    96  ALA96       0.1597
     72  C         13.4690    7.9090   22.3620 C.2    96  ALA96       0.2287
     73  O         13.7380    8.0870   21.1670 O.2    96  ALA96      -0.2864
     74  CB        11.6040    9.4960   22.9780 C.3    96  ALA96       0.0319
     75  N          7.7210    4.4660   17.9120 N.3   120  GLY120     -0.1210
     76  CA         7.1990    5.0180   19.1730 C.3   120  GLY120      0.1956
     77  C          7.4490    6.5040   19.4050 C.2   120  GLY120      0.2611
     78  O          7.2090    7.0200   20.4980 O.2   120  GLY120     -0.2717
     79  N          7.9120    7.2130   18.3830 N.am  121  VAL121     -0.1979
     80  CA         8.1290    8.6500   18.5310 C.3   121  VAL121      0.1595
     81  C          7.2030    9.5340   17.6790 C.2   121  VAL121      0.2287
     82  O          7.5320   10.6940   17.3740 O.2   121  VAL121     -0.2864
     83  CB         9.6100    8.9980   18.2990 C.3   121  VAL121      0.0276
     84  CG1       10.4270    8.4540   19.4600 C.3   121  VAL121      0.0022
     85  CG2       10.1040    8.4150   16.9860 C.3   121  VAL121      0.0022
     86  N          4.6100   11.2630   18.2810 N.3   123  PHE123     -0.1227
     87  CA         4.2560   12.5570   18.8730 C.3   123  PHE123      0.1736
     88  C          5.0440   13.6670   18.1740 C.2   123  PHE123      0.2595
     89  O          4.4860   14.6920   17.8300 O.2   123  PHE123     -0.2718
     90  CB         4.5030   12.5840   20.3950 C.3   123  PHE123      0.0547
     91  CG         4.4890   13.9750   20.9870 C.ar  123  PHE123     -0.0202
     92  CD1        3.2830   14.6240   21.2490 C.ar  123  PHE123     -0.0042
     93  CD2        5.6840   14.6400   21.2780 C.ar  123  PHE123     -0.0042
     94  CE1        3.2620   15.9170   21.7570 C.ar  123  PHE123     -0.0003
     95  CE2        5.6700   15.9460   21.7880 C.ar  123  PHE123     -0.0003
     96  CZ         4.4530   16.5750   22.0430 C.ar  123  PHE123     -0.0000
     97  N          6.3250   13.4260   17.8980 N.am  124  TYR124     -0.1976
     98  CA         7.1980   14.4790   17.3370 C.3   124  TYR124      0.1639
     99  C          6.8790   14.8820   15.9100 C.2   124  TYR124      0.2290
    100  O          7.3140   15.9430   15.4510 O.2   124  TYR124     -0.2864
    101  CB         8.6760   14.1240   17.5200 C.3   124  TYR124      0.0560
    102  CG         9.0210   14.1110   18.9820 C.ar  124  TYR124     -0.0198
    103  CD1        9.1860   15.3240   19.6850 C.ar  124  TYR124     -0.0009
    104  CD2        9.1370   12.9110   19.6820 C.ar  124  TYR124     -0.0009
    105  CE1        9.4600   15.3290   21.0480 C.ar  124  TYR124      0.0417
    106  CE2        9.4160   12.9090   21.0500 C.ar  124  TYR124      0.0417
    107  CZ         9.5850   14.1260   21.7110 C.ar  124  TYR124      0.1957
    108  OH         9.8600   14.1510   23.0580 O.3   124  TYR124     -0.2866
    109  N          1.0880   20.9560   25.4640 N.3   135  VAL135     -0.1245
    110  CA         0.3900   19.7480   25.8960 C.3   135  VAL135      0.1561
    111  C         -0.1200   19.9660   27.3090 C.2   135  VAL135      0.2260
    112  O          0.6780   20.2220   28.2460 O.2   135  VAL135     -0.2867
    113  CB         1.2680   18.4780   25.8480 C.3   135  VAL135      0.0252
    114  CG1        0.4660   17.2650   26.3120 C.3   135  VAL135      0.0019
    115  CG2        1.8550   18.2620   24.4430 C.3   135  VAL135      0.0019
    116  N          3.0220   21.2080   29.4200 N.3   147  TRP147     -0.1241
    117  CA         4.3060   20.9900   28.7750 C.3   147  TRP147      0.1605
    118  C          4.2730   21.8270   27.5490 C.2   147  TRP147      0.2264
    119  O          3.2100   21.9410   26.8730 O.2   147  TRP147     -0.2867
    120  CB         4.4550   19.4880   28.4420 C.3   147  TRP147      0.0550
    121  CG         5.6630   19.0700   27.6120 C.ar  147  TRP147      0.0003
    122  CD1        6.8230   18.4260   28.0640 C.ar  147  TRP147      0.0946
    123  CD2        5.8540   19.2160   26.1600 C.ar  147  TRP147      0.0152
    124  NE1        7.6720   18.1620   27.0160 N.ar  147  TRP147     -0.2442
    125  CE2        7.1490   18.6030   25.8510 C.ar  147  TRP147      0.0810
    126  CE3        5.0820   19.7380   25.1060 C.ar  147  TRP147      0.0012
    127  CZ2        7.6610   18.5800   24.5560 C.ar  147  TRP147      0.0191
    128  CZ3        5.6180   19.6980   23.8080 C.ar  147  TRP147      0.0001
    129  CH2        6.8570   19.1120   23.5380 C.ar  147  TRP147      0.0015
@<TRIPOS>BOND
     1   100    99    2
     2    99    98    1
     3    85    83    1
     4    98   101    1
     5    98    97    1
     6    82    81    2
     7   101   102    1
     8    81    80    1
     9    89    88    2
    10    97    88   am
    11    75    76    1
    12    88    87    1
    13    86    87    1
    14    83    80    1
    15    83    84    1
    16    79    80    1
    17    79    77   am
    18    87    90    1
    19   102   104   ar
    20   102   103   ar
    21    76    77    1
    22    12    13    1
    23    77    78    2
    24   104   106   ar
    25   103   105   ar
    26    18    17    2
    27    19    17   am
    28    17    16    1
    29    90    91    1
    30    13    16    1
    31    13    14    1
    32    91    92   ar
    33    91    93   ar
    34   105   107   ar
    35   106   107   ar
    36    73    72    2
    37    92    94   ar
    38    93    95   ar
    39    14    15    2
    40   107   108    1
    41    94    96   ar
    42    95    96   ar
    43    72    71    1
    44    71    74    1
    45    71    70    1
    46    10     8   ar
    47    10    11   ar
    48    65    64    2
    49     8     6   ar
    50    11     9   ar
    51   129   128   ar
    52   129   127   ar
    53   128   126   ar
    54     6     5    1
    55     6     7   ar
    56     9     7   ar
    57     5     2    1
    58    70    64   am
    59    64    63    1
    60   115   113    1
    61    68    66    1
    62   127   125   ar
    63    20    21    1
    64   126   123   ar
    65   109   110    1
    66     4     3    2
    67     2     3    1
    68     2     1    1
    69    63    66    1
    70    63    62    1
    71    66    67    1
    72    61    60    2
    73   113   110    1
    74   113   114    1
    75   125   123   ar
    76   125   124   ar
    77    53    52    2
    78   110   111    1
    79    24    21    1
    80    21    22    1
    81   123   121   ar
    82    22    23    2
    83    59    60    1
    84    59    58    1
    85   119   118    2
    86    52    58   am
    87    52    51    1
    88   124   122   ar
    89    67    69    1
    90   111   112    2
    91    54    51    1
    92    54    55    1
    93    25    26    1
    94   118   117    1
    95    57    55    1
    96   121   122   ar
    97   121   120    1
    98    33    32    1
    99    41    40    1
   100    51    50    1
   101    56    55    1
   102    32    31    1
   103    40    39    1
   104   120   117    1
   105   117   116    1
   106    26    29    1
   107    26    27    1
   108    29    30    1
   109    31    30    1
   110    39    38    1
   111    49    47    1
   112    45    44    2
   113    27    28    2
   114    38    35    1
   115    44    43    1
   116    43    46    1
   117    43    42    1
   118    47    46    1
   119    47    48    1
   120    34    35    1
   121    35    36    1
   122    36    37    2
