@<TRIPOS>MOLECULE
tmp/4cwmB00.pdb
 143 139 0 0 0
SMALL
GASTEIGER

@<TRIPOS>ATOM
      1  N        -10.0230  -19.7840  -20.6880 N.3    52  HIS52      -0.1226
      2  CA       -10.5310  -18.4310  -20.7470 C.3    52  HIS52       0.1752
      3  C        -10.6560  -17.8370  -19.3710 C.2    52  HIS52       0.2596
      4  O        -10.6570  -16.6240  -19.2300 O.2    52  HIS52      -0.2718
      5  CB       -11.9190  -18.3990  -21.4110 C.3    52  HIS52       0.0759
      6  CG       -13.0000  -18.8200  -20.4860 C.ar   52  HIS52       0.0818
      7  ND1      -13.2060  -20.1360  -20.1520 N.ar   52  HIS52      -0.2268
      8  CD2      -13.8660  -18.0950  -19.7360 C.ar   52  HIS52       0.1154
      9  CE1      -14.1900  -20.2160  -19.2730 C.ar   52  HIS52       0.1986
     10  NE2      -14.6000  -18.9910  -18.9960 N.ar   52  HIS52      -0.2212
     11  N        -10.8520  -18.6950  -18.3760 N.am   53  TRP53      -0.1976
     12  CA       -10.9290  -18.2910  -16.9830 C.3    53  TRP53       0.1640
     13  C         -9.6200  -17.6320  -16.4770 C.2    53  TRP53       0.2290
     14  O         -9.6330  -16.8720  -15.4670 O.2    53  TRP53      -0.2864
     15  CB       -11.3260  -19.4980  -16.1000 C.3    53  TRP53       0.0576
     16  CG       -10.5610  -20.8080  -16.3600 C.ar   53  TRP53       0.0006
     17  CD1      -11.0090  -21.8850  -17.0340 C.ar   53  TRP53       0.0946
     18  CD2       -9.2490  -21.1460  -15.8970 C.ar   53  TRP53       0.0152
     19  NE1      -10.0640  -22.8750  -17.0530 N.ar   53  TRP53      -0.2442
     20  CE2       -8.9640  -22.4400  -16.3600 C.ar   53  TRP53       0.0810
     21  CE3       -8.2910  -20.4830  -15.1350 C.ar   53  TRP53       0.0012
     22  CZ2       -7.7470  -23.0740  -16.1010 C.ar   53  TRP53       0.0191
     23  CZ3       -7.0940  -21.1170  -14.8730 C.ar   53  TRP53       0.0001
     24  CH2       -6.8360  -22.3990  -15.3470 C.ar   53  TRP53       0.0015
     25  N         -6.3460  -12.9870  -14.8690 N.3    57  LEU57      -0.1245
     26  CA        -5.3940  -13.2570  -13.8030 C.3    57  LEU57       0.1561
     27  C         -4.0760  -12.5530  -14.0770 C.2    57  LEU57       0.2260
     28  O         -3.2070  -12.5100  -13.2110 O.2    57  LEU57      -0.2867
     29  CB        -5.2020  -14.7640  -13.6850 C.3    57  LEU57       0.0270
     30  CG        -6.5270  -15.4920  -13.3870 C.3    57  LEU57       0.0019
     31  CD1       -6.3540  -16.9890  -13.3830 C.3    57  LEU57       0.0001
     32  CD2       -7.1110  -15.0570  -12.0490 C.3    57  LEU57       0.0001
     33  N        -16.1720  -11.3140   -9.5320 N.3    80  GLU80      -0.1245
     34  CA       -15.7150  -12.4670   -8.7320 C.3    80  GLU80       0.1567
     35  C        -14.3920  -12.2040   -8.0030 C.2    80  GLU80       0.2260
     36  O        -13.3470  -11.9670   -8.6390 O.2    80  GLU80      -0.2867
     37  CB       -15.5990  -13.7240   -9.6060 C.3    80  GLU80       0.0388
     38  CG       -15.8220  -14.9960   -8.7880 C.3    80  GLU80       0.1160
     39  CD       -16.0300  -16.2280   -9.6430 C.2    80  GLU80       0.3649
     40  OE1      -16.9180  -16.2230  -10.5160 O.co2  80  GLU80      -0.2457
     41  OE2      -15.3090  -17.2080   -9.4300 O.co2  80  GLU80      -0.2457
     42  N        -10.8930  -12.0160   -5.9880 N.3    82  GLY82      -0.1210
     43  CA        -9.6720  -12.7960   -6.1180 C.3    82  GLY82       0.1956
     44  C         -9.2410  -13.0360   -7.5590 C.2    82  GLY82       0.2611
     45  O         -8.0960  -13.4260   -7.8190 O.2    82  GLY82      -0.2717
     46  N        -10.1260  -12.7620   -8.5150 N.am   83  ARG83      -0.1979
     47  CA        -9.7970  -13.0160   -9.8960 C.3    83  ARG83       0.1597
     48  C         -8.9840  -11.8480  -10.4990 C.2    83  ARG83       0.2287
     49  O         -9.4790  -11.0440  -11.2690 O.2    83  ARG83      -0.2864
     50  CB       -11.0610  -13.4060  -10.6650 C.3    83  ARG83       0.0334
     51  CG       -11.6730  -14.6750  -10.0430 C.3    83  ARG83       0.0492
     52  CD       -12.4140  -15.5670  -11.0380 C.3    83  ARG83       0.2205
     53  NE       -11.5850  -16.2300  -12.0530 N.pl3  83  ARG83      -0.0865
     54  CZ       -10.8540  -17.3050  -11.8430 C.cat  83  ARG83       0.5346
     55  NH1      -10.7750  -17.8140  -10.6240 N.pl3  83  ARG83       0.1354
     56  NH2      -10.1310  -17.8330  -12.8330 N.pl3  83  ARG83       0.1354
     57  N         -4.6780  -12.1460   -6.6630 N.3    87  GLY87      -0.1210
     58  CA        -5.4300  -13.3490   -6.2880 C.3    87  GLY87       0.1956
     59  C         -4.8270  -14.6060   -6.9220 C.2    87  GLY87       0.2611
     60  O         -4.7010  -15.6460   -6.2780 O.2    87  GLY87      -0.2717
     61  N         -4.4280  -14.5290   -8.1850 N.am   88  ALA88      -0.1979
     62  CA        -3.7720  -15.6730   -8.8120 C.3    88  ALA88       0.1597
     63  C         -2.4890  -16.1430   -8.0800 C.2    88  ALA88       0.2287
     64  O         -2.2160  -17.3540   -8.0300 O.2    88  ALA88      -0.2864
     65  CB        -3.4570  -15.4080  -10.2790 C.3    88  ALA88       0.0319
     66  N         -3.3850  -18.0450   -4.9620 N.3    91  ASN91      -0.1225
     67  CA        -3.8530  -19.3690   -5.3850 C.3    91  ASN91       0.1785
     68  C         -2.7450  -20.3440   -5.7380 C.2    91  ASN91       0.2597
     69  O         -2.6750  -21.4690   -5.2270 O.2    91  ASN91      -0.2718
     70  CB        -4.6940  -19.2090   -6.6500 C.3    91  ASN91       0.1169
     71  CG        -5.4420  -20.4590   -7.0410 C.2    91  ASN91       0.2627
     72  OD1       -5.6550  -21.3600   -6.2430 O.2    91  ASN91      -0.2716
     73  ND2       -5.8500  -20.4990   -8.3120 N.am   91  ASN91      -0.0877
     74  N         -1.9080  -19.9310   -6.6770 N.am   92  TYR92      -0.1976
     75  CA        -0.9590  -20.8610   -7.2250 C.3    92  TYR92       0.1639
     76  C          0.2380  -21.1210   -6.2910 C.2    92  TYR92       0.2290
     77  O          0.7960  -22.2090   -6.2990 O.2    92  TYR92      -0.2864
     78  CB        -0.5540  -20.4290   -8.6220 C.3    92  TYR92       0.0560
     79  CG        -1.6810  -20.5940   -9.6220 C.ar   92  TYR92      -0.0198
     80  CD1       -2.1390  -21.8640   -9.9860 C.ar   92  TYR92      -0.0009
     81  CD2       -2.3030  -19.4800  -10.1890 C.ar   92  TYR92      -0.0009
     82  CE1       -3.1920  -22.0020  -10.8920 C.ar   92  TYR92       0.0417
     83  CE2       -3.3310  -19.6040  -11.0970 C.ar   92  TYR92       0.0417
     84  CZ        -3.7700  -20.8680  -11.4550 C.ar   92  TYR92       0.1957
     85  OH        -4.8010  -20.9750  -12.3560 O.3    92  TYR92      -0.2866
     86  N         -1.2850  -23.6590   -3.8680 N.3    95  GLN95      -0.1245
     87  CA        -1.2040  -24.9910   -4.4900 C.3    95  GLN95       0.1566
     88  C          0.2070  -25.5960   -4.3730 C.2    95  GLN95       0.2260
     89  O          0.3200  -26.7660   -4.0370 O.2    95  GLN95      -0.2867
     90  CB        -1.6300  -24.9350   -5.9600 C.3    95  GLN95       0.0367
     91  CG        -3.1200  -24.6730   -6.1560 C.3    95  GLN95       0.0905
     92  CD        -3.5220  -24.3520   -7.5840 C.2    95  GLN95       0.2608
     93  OE1       -3.0440  -24.9720   -8.5560 O.2    95  GLN95      -0.2717
     94  NE2       -4.4290  -23.3830   -7.7250 N.am   95  GLN95      -0.0878
     95  N         -5.7250  -32.3250   -6.2830 N.3   102  GLN102     -0.1231
     96  CA        -6.5930  -31.8410   -7.3400 C.3   102  GLN102      0.1698
     97  C         -5.7840  -31.1820   -8.4870 C.2   102  GLN102      0.2592
     98  O         -6.1550  -31.3070   -9.6560 O.2   102  GLN102     -0.2718
     99  CB        -7.6180  -30.8510   -6.7640 C.3   102  GLN102      0.0381
    100  CG        -8.7920  -30.5590   -7.6890 C.3   102  GLN102      0.0905
    101  CD        -9.2250  -29.1120   -7.6340 C.2   102  GLN102      0.2608
    102  OE1       -9.4380  -28.5620   -6.5520 O.2   102  GLN102     -0.2717
    103  NE2       -9.3550  -28.4810   -8.8020 N.am  102  GLN102     -0.0878
    104  N         -4.6630  -30.5320   -8.1500 N.am  103  TYR103     -0.1962
    105  CA        -4.0400  -29.5360   -9.0290 C.3   103  TYR103      0.1771
    106  C         -2.7210  -29.9420   -9.7000 C.2   103  TYR103      0.2619
    107  O         -1.8390  -30.5150   -9.0800 O.2   103  TYR103     -0.2715
    108  CB        -3.7980  -28.2590   -8.2340 C.3   103  TYR103      0.0574
    109  CG        -5.0500  -27.5660   -7.7670 C.ar  103  TYR103     -0.0198
    110  CD1       -5.9900  -27.0890   -8.6820 C.ar  103  TYR103     -0.0009
    111  CD2       -5.2820  -27.3510   -6.4210 C.ar  103  TYR103     -0.0009
    112  CE1       -7.1420  -26.4340   -8.2580 C.ar  103  TYR103      0.0417
    113  CE2       -6.4200  -26.6910   -5.9820 C.ar  103  TYR103      0.0417
    114  CZ        -7.3500  -26.2330   -6.9010 C.ar  103  TYR103      0.1957
    115  OH        -8.4800  -25.5780   -6.4730 O.3   103  TYR103     -0.2866
    116  N         -2.6120  -29.6100  -10.9770 N.am  104  ASN104     -0.1972
    117  CA        -1.4110  -29.7830  -11.7640 C.3   104  ASN104      0.1688
    118  C         -0.3870  -28.7450  -11.3020 C.2   104  ASN104      0.2292
    119  O         -0.5320  -27.5490  -11.5890 O.2   104  ASN104     -0.2864
    120  CB        -1.7920  -29.5850  -13.2400 C.3   104  ASN104      0.1181
    121  CG        -0.6370  -29.7810  -14.2020 C.2   104  ASN104      0.2629
    122  OD1        0.5320  -29.5840  -13.8610 O.2   104  ASN104     -0.2716
    123  ND2       -0.9790  -30.1780  -15.4460 N.am  104  ASN104     -0.0877
    124  N          1.5600  -26.5910  -13.9040 N.3   107  GLU107     -0.1245
    125  CA         0.8180  -25.4010  -14.2970 C.3   107  GLU107      0.1567
    126  C          0.9510  -24.3290  -13.2300 C.2   107  GLU107      0.2260
    127  O          1.1350  -23.1680  -13.5540 O.2   107  GLU107     -0.2867
    128  CB        -0.6490  -25.7200  -14.5520 C.3   107  GLU107      0.0388
    129  CG        -0.8870  -26.4730  -15.8380 C.3   107  GLU107      0.1160
    130  CD        -2.3440  -26.4970  -16.2840 C.2   107  GLU107      0.3649
    131  OE1       -3.2590  -26.3610  -15.4540 O.co2 107  GLU107     -0.2457
    132  OE2       -2.5750  -26.6340  -17.4880 O.co2 107  GLU107     -0.2457
    133  N          2.2230  -20.6540  -13.9260 N.3   111  PHE111     -0.1241
    134  CA         1.3630  -19.5080  -13.6630 C.3   111  PHE111      0.1605
    135  C          2.0320  -18.5730  -12.6580 C.2   111  PHE111      0.2264
    136  O          2.0470  -17.3530  -12.8150 O.2   111  PHE111     -0.2867
    137  CB         0.0000  -19.9730  -13.1000 C.3   111  PHE111      0.0534
    138  CG        -0.9950  -20.4040  -14.1470 C.ar  111  PHE111     -0.0203
    139  CD1       -1.3600  -19.5520  -15.1670 C.ar  111  PHE111     -0.0042
    140  CD2       -1.5850  -21.6630  -14.0940 C.ar  111  PHE111     -0.0042
    141  CE1       -2.2790  -19.9490  -16.1390 C.ar  111  PHE111     -0.0003
    142  CE2       -2.5090  -22.0530  -15.0300 C.ar  111  PHE111     -0.0003
    143  CZ        -2.8640  -21.1910  -16.0480 C.ar  111  PHE111     -0.0000
@<TRIPOS>BOND
     1     5     2    1
     2     5     6    1
     3     2     1    1
     4     2     3    1
     5     6     7   ar
     6     6     8   ar
     7     7     9   ar
     8     8    10   ar
     9     3     4    2
    10     3    11   am
    11     9    10   ar
    12    11    12    1
    13   132   130   ar
    14    19    17   ar
    15    19    20   ar
    16    17    16   ar
    17    12    13    1
    18    12    15    1
    19    13    14    2
    20    16    15    1
    21    16    18   ar
    22    20    22   ar
    23    20    18   ar
    24   130   129    1
    25   130   131   ar
    26   141   143   ar
    27   141   139   ar
    28    22    24   ar
    29   143   142   ar
    30    18    21   ar
    31   129   128    1
    32   123   121   am
    33    24    23   ar
    34   139   138   ar
    35    21    23   ar
    36   142   140   ar
    37    25    26    1
    38   128   125    1
    39   125   124    1
    40   125   126    1
    41   121   122    2
    42   121   120    1
    43   138   140   ar
    44   138   137    1
    45    27    26    1
    46    27    28    2
    47   133   134    1
    48    26    29    1
    49    29    30    1
    50   134   137    1
    51   134   135    1
    52   127   126    2
    53    30    31    1
    54    30    32    1
    55   120   117    1
    56    56    54    1
    57   136   135    2
    58    85    84    1
    59    53    54    2
    60    53    52    1
    61    54    55    1
    62   117   118    1
    63   117   116    1
    64   119   118    2
    65    84    83   ar
    66    84    82   ar
    67    49    48    2
    68    83    81   ar
    69    52    51    1
    70   116   106   am
    71    82    80   ar
    72    50    51    1
    73    50    47    1
    74    40    39   ar
    75    48    47    1
    76    65    62    1
    77    81    79   ar
    78    80    79   ar
    79    47    46    1
    80   106   107    2
    81   106   105    1
    82    98    97    2
    83    39    41   ar
    84    39    38    1
    85    79    78    1
    86    37    38    1
    87    37    34    1
    88    33    34    1
    89   105   108    1
    90   105   104    1
    91    62    61    1
    92    62    63    1
    93   103   101   am
    94    34    35    1
    95   110   112   ar
    96   110   109   ar
    97    36    35    2
    98    78    75    1
    99    93    92    2
   100    46    44   am
   101    97   104   am
   102    97    96    1
   103    73    71   am
   104   112   114   ar
   105   108   109    1
   106    61    59   am
   107    63    64    2
   108    45    44    2
   109   109   111   ar
   110    94    92   am
   111   100   101    1
   112   100    99    1
   113   101   102    2
   114    92    91    1
   115    44    43    1
   116    96    99    1
   117    96    95    1
   118    75    74    1
   119    75    76    1
   120    71    70    1
   121    71    72    2
   122    59    58    1
   123    59    60    2
   124   114   115    1
   125   114   113   ar
   126    74    68   am
   127    57    58    1
   128    70    67    1
   129   111   113   ar
   130    77    76    2
   131    91    90    1
   132    43    42    1
   133    90    87    1
   134    68    67    1
   135    68    69    2
   136    67    66    1
   137    87    88    1
   138    87    86    1
   139    88    89    2
