@<TRIPOS>MOLECULE
tmp/4cwmB01.pdb
 101 96 0 0 0
SMALL
GASTEIGER

@<TRIPOS>ATOM
      1  N          8.5720  -29.6600  -17.3860 N.3    30  PRO30      -0.2116
      2  CA         8.6190  -30.7930  -18.2990 C.3    30  PRO30       0.1372
      3  C         10.0510  -31.0320  -18.7800 C.2    30  PRO30       0.2244
      4  O         10.8390  -30.0840  -18.8220 O.2    30  PRO30      -0.2868
      5  CB         7.7130  -30.3450  -19.4550 C.3    30  PRO30       0.0268
      6  CG         7.7430  -28.8580  -19.4020 C.3    30  PRO30       0.0207
      7  CD         7.7830  -28.5450  -17.9390 C.3    30  PRO30       0.0892
      8  N         11.1430  -31.3890  -21.6420 N.3    32  SER32      -0.1217
      9  CA        11.3600  -30.5340  -22.8130 C.3    32  SER32       0.1889
     10  C         11.9560  -29.1510  -22.4910 C.2    32  SER32       0.2288
     11  O         12.5770  -28.5250  -23.3560 O.2    32  SER32      -0.2866
     12  CB        10.0300  -30.3450  -23.5530 C.3    32  SER32       0.2089
     13  OG         9.0060  -30.0150  -22.6330 O.3    32  SER32      -0.2183
     14  N          9.7060  -21.3950  -20.3880 N.3    40  LEU40      -0.1245
     15  CA         8.2580  -21.5110  -20.3210 C.3    40  LEU40       0.1561
     16  C          7.5540  -20.3910  -19.5440 C.2    40  LEU40       0.2260
     17  O          6.3720  -20.4930  -19.2380 O.2    40  LEU40      -0.2867
     18  CB         7.8960  -22.8420  -19.7040 C.3    40  LEU40       0.0270
     19  CG         8.1490  -24.0290  -20.6060 C.3    40  LEU40       0.0019
     20  CD1        8.0520  -25.2930  -19.7480 C.3    40  LEU40       0.0001
     21  CD2        7.1650  -24.0410  -21.7750 C.3    40  LEU40       0.0001
     22  N          4.3450  -19.1880  -21.1620 N.3    43  TRP43      -0.1241
     23  CA         3.2810  -20.1750  -21.3880 C.3    43  TRP43       0.1605
     24  C          1.8610  -19.6740  -21.0310 C.2    43  TRP43       0.2264
     25  O          0.9030  -19.9080  -21.7710 O.2    43  TRP43      -0.2867
     26  CB         3.6050  -21.4430  -20.5840 C.3    43  TRP43       0.0550
     27  CG         2.4870  -22.4180  -20.5310 C.ar   43  TRP43       0.0003
     28  CD1        2.2010  -23.3870  -21.4440 C.ar   43  TRP43       0.0946
     29  CD2        1.5030  -22.5160  -19.5090 C.ar   43  TRP43       0.0152
     30  NE1        1.0700  -24.0700  -21.0630 N.ar   43  TRP43      -0.2442
     31  CE2        0.6370  -23.5600  -19.8630 C.ar   43  TRP43       0.0810
     32  CE3        1.2620  -21.8080  -18.3180 C.ar   43  TRP43       0.0012
     33  CZ2       -0.4440  -23.9300  -19.0650 C.ar   43  TRP43       0.0191
     34  CZ3        0.1920  -22.1750  -17.5340 C.ar   43  TRP43       0.0001
     35  CH2       -0.6480  -23.2280  -17.9130 C.ar   43  TRP43       0.0015
     36  N         -0.1220  -17.8310  -23.5500 N.3    46  ARG46      -0.1245
     37  CA        -0.5750  -18.7150  -24.6270 C.3    46  ARG46       0.1563
     38  C         -1.8990  -19.4420  -24.3080 C.2    46  ARG46       0.2260
     39  O         -2.4930  -20.0310  -25.2060 O.2    46  ARG46      -0.2867
     40  CB         0.5100  -19.7580  -24.9730 C.3    46  ARG46       0.0307
     41  CG         1.4720  -19.3700  -26.0930 C.3    46  ARG46       0.0489
     42  CD         2.5550  -20.4340  -26.3580 C.3    46  ARG46       0.2205
     43  NE         2.1140  -21.8340  -26.1730 N.pl3  46  ARG46      -0.0865
     44  CZ         2.8530  -22.9210  -26.4330 C.cat  46  ARG46       0.5346
     45  NH1        4.0870  -22.8310  -26.9360 N.pl3  46  ARG46       0.1354
     46  NH2        2.3330  -24.1220  -26.2050 N.pl3  46  ARG46       0.1354
     47  N         -7.5110  -20.9560  -24.3820 N.3    50  ARG50      -0.1231
     48  CA        -7.5260  -22.3510  -23.9520 C.3    50  ARG50       0.1694
     49  C         -8.2140  -22.4510  -22.5840 C.2    50  ARG50       0.2592
     50  O         -9.1180  -23.2580  -22.3760 O.2    50  ARG50      -0.2718
     51  CB        -6.0920  -22.8670  -23.8560 C.3    50  ARG50       0.0321
     52  CG        -5.9430  -24.3740  -23.7730 C.3    50  ARG50       0.0489
     53  CD        -4.5490  -24.7990  -24.2530 C.3    50  ARG50       0.2205
     54  NE        -4.6450  -25.9180  -25.1920 N.pl3  50  ARG50      -0.0865
     55  CZ        -3.7620  -26.2020  -26.1490 C.cat  50  ARG50       0.5346
     56  NH1       -2.6780  -25.4480  -26.3330 N.pl3  50  ARG50       0.1354
     57  NH2       -3.9670  -27.2590  -26.9320 N.pl3  50  ARG50       0.1354
     58  N         -7.7790  -21.5970  -21.6690 N.am   51  TYR51      -0.1976
     59  CA        -8.3210  -21.5010  -20.3400 C.3    51  TYR51       0.1639
     60  C         -8.8480  -20.0680  -20.1500 C.2    51  TYR51       0.2290
     61  O         -8.2140  -19.2360  -19.5220 O.2    51  TYR51      -0.2864
     62  CB        -7.1970  -21.7570  -19.3370 C.3    51  TYR51       0.0560
     63  CG        -6.5190  -23.1270  -19.3310 C.ar   51  TYR51      -0.0198
     64  CD1       -7.2270  -24.2980  -19.5830 C.ar   51  TYR51      -0.0009
     65  CD2       -5.1640  -23.2480  -18.9760 C.ar   51  TYR51      -0.0009
     66  CE1       -6.6050  -25.5510  -19.5260 C.ar   51  TYR51       0.0417
     67  CE2       -4.5330  -24.4870  -18.9150 C.ar   51  TYR51       0.0417
     68  CZ        -5.2590  -25.6470  -19.1920 C.ar   51  TYR51       0.1957
     69  OH        -4.6490  -26.9020  -19.1370 O.3    51  TYR51      -0.2866
     70  N         -2.6120  -29.6100  -10.9770 N.3   104  ASN104     -0.1240
     71  CA        -1.4110  -29.7830  -11.7640 C.3   104  ASN104      0.1653
     72  C         -0.3870  -28.7450  -11.3020 C.2   104  ASN104      0.2266
     73  O         -0.5320  -27.5490  -11.5890 O.2   104  ASN104     -0.2867
     74  CB        -1.7920  -29.5850  -13.2400 C.3   104  ASN104      0.1155
     75  CG        -0.6370  -29.7810  -14.2020 C.2   104  ASN104      0.2627
     76  OD1        0.5320  -29.5840  -13.8610 O.2   104  ASN104     -0.2716
     77  ND2       -0.9790  -30.1780  -15.4460 N.am  104  ASN104     -0.0877
     78  N          2.7710  -28.4400  -12.1170 N.3   106  THR106     -0.1203
     79  CA         3.5230  -27.8760  -13.2390 C.3   106  THR106      0.1994
     80  C          2.8730  -26.5580  -13.6870 C.2   106  THR106      0.2617
     81  O          3.5460  -25.5270  -13.7880 O.2   106  THR106     -0.2717
     82  CB         3.6420  -28.8730  -14.4260 C.3   106  THR106      0.1784
     83  OG1        4.4150  -29.9940  -14.0140 O.3   106  THR106     -0.2211
     84  CG2        4.3640  -28.2580  -15.6010 C.3   106  THR106      0.0376
     85  N          1.5600  -26.5910  -13.9040 N.am  107  GLU107     -0.1979
     86  CA         0.8180  -25.4010  -14.2970 C.3   107  GLU107      0.1602
     87  C          0.9510  -24.3290  -13.2300 C.2   107  GLU107      0.2287
     88  O          1.1350  -23.1680  -13.5540 O.2   107  GLU107     -0.2864
     89  CB        -0.6490  -25.7200  -14.5520 C.3   107  GLU107      0.0415
     90  CG        -0.8870  -26.4730  -15.8380 C.3   107  GLU107      0.1163
     91  CD        -2.3440  -26.4970  -16.2840 C.2   107  GLU107      0.3649
     92  OE1       -3.2590  -26.3610  -15.4540 O.co2 107  GLU107     -0.2457
     93  OE2       -2.5750  -26.6340  -17.4880 O.co2 107  GLU107     -0.2457
     94  N          4.2050  -22.6000  -13.5350 N.3   110  LEU110     -0.1245
     95  CA         4.2480  -21.7560  -14.7240 C.3   110  LEU110      0.1561
     96  C          3.3930  -20.5110  -14.5510 C.2   110  LEU110      0.2260
     97  O          3.7840  -19.4340  -14.9810 O.2   110  LEU110     -0.2867
     98  CB         3.8380  -22.5250  -15.9800 C.3   110  LEU110      0.0270
     99  CG         4.7040  -23.7490  -16.2850 C.3   110  LEU110      0.0019
    100  CD1        4.2090  -24.4420  -17.5340 C.3   110  LEU110      0.0001
    101  CD2        6.1620  -23.4100  -16.4630 C.3   110  LEU110      0.0001
@<TRIPOS>BOND
     1    45    44    1
     2    57    55    1
     3    44    46    1
     4    44    43    2
     5    42    43    1
     6    42    41    1
     7    56    55    1
     8    55    54    2
     9    41    40    1
    10    39    38    2
    11    54    53    1
    12    40    37    1
    13    37    38    1
    14    37    36    1
    15    47    48    1
    16    53    52    1
    17    48    51    1
    18    48    49    1
    19    51    52    1
    20    12     9    1
    21    12    13    1
    22    11    10    2
    23     9    10    1
    24     9     8    1
    25    49    50    2
    26    49    58   am
    27    21    19    1
    28    25    24    2
    29    58    59    1
    30    28    30   ar
    31    28    27   ar
    32    23    22    1
    33    23    24    1
    34    23    26    1
    35    30    31   ar
    36    19    20    1
    37    19    18    1
    38    26    27    1
    39    27    29   ar
    40    14    15    1
    41    59    60    1
    42    59    62    1
    43    15    18    1
    44    15    16    1
    45    60    61    2
    46    31    29   ar
    47    31    33   ar
    48    64    66   ar
    49    64    63   ar
    50    16    17    2
    51    66    68   ar
    52    29    32   ar
    53     5     6    1
    54     5     2    1
    55     6     7    1
    56    62    63    1
    57    63    65   ar
    58    68    69    1
    59    68    67   ar
    60    33    35   ar
    61    65    67   ar
    62     4     3    2
    63     3     2    1
    64    32    34   ar
    65     2     1    1
    66     7     1    1
    67    35    34   ar
    68   100    99    1
    69    93    91   ar
    70   101    99    1
    71    99    98    1
    72    91    90    1
    73    91    92   ar
    74    98    95    1
    75    90    89    1
    76    84    82    1
    77    77    75   am
    78    97    96    2
    79    95    96    1
    80    95    94    1
    81    89    86    1
    82    82    83    1
    83    82    79    1
    84    86    85    1
    85    86    87    1
    86    75    76    2
    87    75    74    1
    88    85    80   am
    89    81    80    2
    90    80    79    1
    91    88    87    2
    92    74    71    1
    93    79    78    1
    94    71    72    1
    95    71    70    1
    96    73    72    2
