@<TRIPOS>MOLECULE
tmp/4cwnA00.pdb
 166 155 0 0 0
SMALL
GASTEIGER

@<TRIPOS>ATOM
      1  N         -0.8210   11.5050   16.2900 N.3    32  LEU32      -0.1245
      2  CA        -1.3440   12.0470   17.5520 C.3    32  LEU32       0.1561
      3  C         -2.6400   11.3410   17.9600 C.2    32  LEU32       0.2260
      4  O         -2.8580   11.0680   19.1350 O.2    32  LEU32      -0.2867
      5  CB        -1.5230   13.5770   17.4750 C.3    32  LEU32       0.0270
      6  CG        -0.2210   14.3640   17.2010 C.3    32  LEU32       0.0019
      7  CD1       -0.5350   15.8460   17.0570 C.3    32  LEU32       0.0001
      8  CD2        0.8340   14.1570   18.2810 C.3    32  LEU32       0.0001
      9  N         -1.5980    8.0650   19.3990 N.3    35  ASN35      -0.1225
     10  CA        -1.1520    8.2970   20.7680 C.3    35  ASN35       0.1785
     11  C         -2.3340    8.4320   21.7430 C.2    35  ASN35       0.2597
     12  O         -2.3190    7.8590   22.8310 O.2    35  ASN35      -0.2718
     13  CB        -0.2440    9.5380   20.8450 C.3    35  ASN35       0.1169
     14  CG         1.1500    9.3010   20.2620 C.2    35  ASN35       0.2627
     15  OD1        1.5590    8.1630   19.9900 O.2    35  ASN35      -0.2716
     16  ND2        1.9060   10.3840   20.1090 N.am   35  ASN35      -0.0877
     17  N         -3.3580    9.1780   21.3420 N.am   36  SER36      -0.1952
     18  CA        -4.5730    9.3090   22.1620 C.3    36  SER36       0.1924
     19  C         -5.2700    7.9650   22.3630 C.2    36  SER36       0.2314
     20  O         -5.6620    7.6240   23.4760 O.2    36  SER36      -0.2863
     21  CB        -5.5380   10.3130   21.5290 C.3    36  SER36       0.2116
     22  OG        -4.9990   11.6180   21.6150 O.3    36  SER36      -0.2180
     23  N         -3.4240    5.9080   24.9040 N.3    39  ALA39      -0.1245
     24  CA        -3.6840    6.4110   26.2620 C.3    39  ALA39       0.1562
     25  C         -5.0910    6.0440   26.7400 C.2    39  ALA39       0.2260
     26  O         -5.3130    5.7620   27.9260 O.2    39  ALA39      -0.2867
     27  CB        -3.4780    7.9120   26.3180 C.3    39  ALA39       0.0290
     28  N         -5.1180    2.4280   27.7470 N.3    42  LYS42      -0.1245
     29  CA        -4.4750    2.2220   29.0540 C.3    42  LYS42       0.1561
     30  C         -5.4080    2.4840   30.2330 C.2    42  LYS42       0.2260
     31  O         -5.5020    1.6540   31.1450 O.2    42  LYS42      -0.2867
     32  CB        -3.1720    3.0360   29.1820 C.3    42  LYS42       0.0271
     33  CG        -2.0580    2.4960   28.2860 C.3    42  LYS42       0.0035
     34  CD        -0.8070    3.3760   28.2410 C.3    42  LYS42       0.0206
     35  CE         0.2040    2.7680   27.2680 C.3    42  LYS42       0.1093
     36  NZ         1.1900    3.7540   26.7350 N.3    42  LYS42      -0.1314
     37  N         -7.7920   14.1870   24.4180 N.3    77  ASP77      -0.1239
     38  CA        -8.2850   12.8710   24.7820 C.3    77  ASP77       0.1674
     39  C         -8.5560   12.7850   26.2720 C.2    77  ASP77       0.2266
     40  O         -8.0160   13.5700   27.0620 O.2    77  ASP77      -0.2867
     41  CB        -7.3370   11.7430   24.3230 C.3    77  ASP77       0.1410
     42  CG        -5.9860   11.7690   25.0330 C.2    77  ASP77       0.3668
     43  OD1       -5.9240   11.3900   26.2200 O.co2  77  ASP77      -0.2456
     44  OD2       -4.9710   12.1290   24.3950 O.co2  77  ASP77      -0.2456
     45  N         -5.2920    8.1050   29.8460 N.3    80  ILE80      -0.1231
     46  CA        -4.6810    7.9620   31.1760 C.3    80  ILE80       0.1692
     47  C         -3.9400    9.2270   31.6340 C.2    80  ILE80       0.2593
     48  O         -3.8330    9.4980   32.8380 O.2    80  ILE80      -0.2718
     49  CB        -3.7670    6.7160   31.2270 C.3    80  ILE80       0.0266
     50  CG1       -3.3790    6.3750   32.6730 C.3    80  ILE80       0.0019
     51  CG2       -2.5440    6.8850   30.3220 C.3    80  ILE80       0.0020
     52  CD1       -2.9990    4.9190   32.8710 C.3    80  ILE80       0.0001
     53  N         -3.4430   10.0060   30.6730 N.am   81  GLY81      -0.1942
     54  CA        -2.6870   11.2190   30.9860 C.3    81  GLY81       0.2014
     55  C         -1.2550   10.9120   31.3910 C.2    81  GLY81       0.2638
     56  O         -0.8570    9.7440   31.4990 O.2    81  GLY81      -0.2714
     57  N         -0.4820   11.9670   31.6340 N.am   82  MET82      -0.1976
     58  CA         0.9490   11.8350   31.8980 C.3    82  MET82       0.1605
     59  C          1.3330   12.5110   33.2050 C.2    82  MET82       0.2287
     60  O          0.8060   13.5720   33.5380 O.2    82  MET82      -0.2864
     61  CB         1.7720   12.4490   30.7580 C.3    82  MET82       0.0413
     62  CG         1.7280   11.6280   29.4740 C.3    82  MET82       0.0598
     63  SD         2.4470   12.4700   28.0560 S.3    82  MET82      -0.1393
     64  CE         1.2260   13.7500   27.7490 C.3    82  MET82       0.0692
     65  N          6.8460   11.3760   33.7030 N.3    86  ASP86      -0.1225
     66  CA         6.7030   11.0780   32.2720 C.3    86  ASP86       0.1805
     67  C          7.2640   12.2250   31.4390 C.2    86  ASP86       0.2597
     68  O          8.0630   12.0060   30.5200 O.2    86  ASP86      -0.2718
     69  CB         5.2280   10.9190   31.8850 C.3    86  ASP86       0.1424
     70  CG         4.6220    9.5960   32.3190 C.2    86  ASP86       0.3668
     71  OD1        5.3310    8.5740   32.4480 O.co2  86  ASP86      -0.2456
     72  OD2        3.3950    9.5890   32.5140 O.co2  86  ASP86      -0.2456
     73  N          6.8180   13.4440   31.7580 N.am   87  LEU87      -0.1979
     74  CA         7.1300   14.6410   30.9720 C.3    87  LEU87       0.1596
     75  C          8.6040   15.0130   31.0090 C.2    87  LEU87       0.2287
     76  O          9.1770   15.4190   29.9950 O.2    87  LEU87      -0.2864
     77  CB         6.2860   15.8300   31.4490 C.3    87  LEU87       0.0297
     78  CG         4.7750   15.7650   31.2160 C.3    87  LEU87       0.0022
     79  CD1        4.1350   16.9670   31.8780 C.3    87  LEU87       0.0001
     80  CD2        4.4240   15.7540   29.7350 C.3    87  LEU87       0.0001
     81  N          9.3970    9.5580   29.2620 N.3    91  LEU91      -0.1231
     82  CA         9.0880    9.5210   27.8350 C.3    91  LEU91       0.1693
     83  C         10.3400    9.7040   26.9950 C.2    91  LEU91       0.2592
     84  O         10.5040    9.0430   25.9680 O.2    91  LEU91      -0.2718
     85  CB         8.0390   10.5660   27.4640 C.3    91  LEU91       0.0284
     86  CG         6.6700   10.3840   28.1240 C.3    91  LEU91       0.0019
     87  CD1        5.8310   11.6160   27.8500 C.3    91  LEU91       0.0001
     88  CD2        5.9850    9.1260   27.6190 C.3    91  LEU91       0.0001
     89  N         11.2120   10.6060   27.4400 N.am   92  GLY92      -0.1957
     90  CA        12.4920   10.8490   26.7780 C.3    92  GLY92       0.1869
     91  C         13.4050    9.6340   26.8130 C.2    92  GLY92       0.2309
     92  O         14.1080    9.3580   25.8330 O.2    92  GLY92      -0.2863
     93  N         12.0320    7.1960   24.3600 N.3    95  ALA95      -0.1245
     94  CA        12.2020    7.7620   23.0200 C.3    95  ALA95       0.1562
     95  C         13.6320    7.6480   22.4660 C.2    95  ALA95       0.2260
     96  O         13.8170    7.6130   21.2500 O.2    95  ALA95      -0.2867
     97  CB        11.7310    9.2100   22.9830 C.3    95  ALA95       0.0290
     98  N          7.7540    4.3390   17.8430 N.3   119  GLY119     -0.1210
     99  CA         7.2290    4.8890   19.0840 C.3   119  GLY119      0.1956
    100  C          7.5590    6.3380   19.3910 C.2   119  GLY119      0.2611
    101  O          7.4550    6.7620   20.5430 O.2   119  GLY119     -0.2717
    102  N          7.9440    7.1060   18.3710 N.am  120  VAL120     -0.1979
    103  CA         8.2770    8.5220   18.5540 C.3   120  VAL120      0.1595
    104  C          7.4070    9.4440   17.6750 C.2   120  VAL120      0.2287
    105  O          7.8030   10.5660   17.3420 O.2   120  VAL120     -0.2864
    106  CB         9.7950    8.8150   18.3600 C.3   120  VAL120      0.0276
    107  CG1       10.6190    8.1380   19.4520 C.3   120  VAL120      0.0022
    108  CG2       10.2720    8.3860   16.9760 C.3   120  VAL120      0.0022
    109  N          4.9520   11.2870   18.3290 N.3   122  PHE122     -0.1227
    110  CA         4.6500   12.6080   18.9200 C.3   122  PHE122      0.1736
    111  C          5.4050   13.7370   18.2190 C.2   122  PHE122      0.2595
    112  O          4.8410   14.7960   17.9520 O.2   122  PHE122     -0.2718
    113  CB         4.9650   12.6470   20.4250 C.3   122  PHE122      0.0547
    114  CG         4.8640   14.0260   21.0270 C.ar  122  PHE122     -0.0202
    115  CD1        3.6220   14.5810   21.3370 C.ar  122  PHE122     -0.0042
    116  CD2        6.0170   14.7790   21.2700 C.ar  122  PHE122     -0.0042
    117  CE1        3.5330   15.8570   21.8890 C.ar  122  PHE122     -0.0003
    118  CE2        5.9310   16.0550   21.8160 C.ar  122  PHE122     -0.0003
    119  CZ         4.6890   16.5950   22.1170 C.ar  122  PHE122     -0.0000
    120  N          6.6830   13.5050   17.9250 N.am  123  TYR123     -0.1976
    121  CA         7.5250   14.5680   17.3750 C.3   123  TYR123      0.1639
    122  C          7.1490   14.9660   15.9480 C.2   123  TYR123      0.2290
    123  O          7.5730   16.0260   15.4700 O.2   123  TYR123     -0.2864
    124  CB         9.0090   14.2040   17.4710 C.3   123  TYR123      0.0560
    125  CG         9.4620   13.8940   18.8790 C.ar  123  TYR123     -0.0198
    126  CD1        9.6960   14.9180   19.8130 C.ar  123  TYR123     -0.0009
    127  CD2        9.6560   12.5790   19.2750 C.ar  123  TYR123     -0.0009
    128  CE1       10.1100   14.6130   21.1140 C.ar  123  TYR123      0.0417
    129  CE2       10.0670   12.2660   20.5630 C.ar  123  TYR123      0.0417
    130  CZ        10.2980   13.2770   21.4740 C.ar  123  TYR123      0.1957
    131  OH        10.7230   12.9230   22.7440 O.3   123  TYR123     -0.2866
    132  N          1.4440   21.0210   25.5560 N.3   134  VAL134     -0.1245
    133  CA         0.7180   19.8260   26.0010 C.3   134  VAL134      0.1561
    134  C          0.2030   20.0240   27.4240 C.2   134  VAL134      0.2260
    135  O          0.9910   20.2340   28.3460 O.2   134  VAL134     -0.2867
    136  CB         1.5860   18.5480   25.9110 C.3   134  VAL134      0.0252
    137  CG1        0.8030   17.3270   26.3810 C.3   134  VAL134      0.0019
    138  CG2        2.0810   18.3330   24.4790 C.3   134  VAL134      0.0019
    139  N          3.3540   21.2060   29.4380 N.3   146  TRP146     -0.1241
    140  CA         4.6470   20.9940   28.7880 C.3   146  TRP146      0.1605
    141  C          4.6510   21.8660   27.5560 C.2   146  TRP146      0.2264
    142  O          3.6140   22.0370   26.9050 O.2   146  TRP146     -0.2867
    143  CB         4.7420   19.5060   28.4290 C.3   146  TRP146      0.0550
    144  CG         5.9480   19.0240   27.6580 C.ar  146  TRP146      0.0003
    145  CD1        7.0320   18.2930   28.1460 C.ar  146  TRP146      0.0946
    146  CD2        6.2110   19.1800   26.2220 C.ar  146  TRP146      0.0152
    147  NE1        7.9240   18.0010   27.1350 N.ar  146  TRP146     -0.2442
    148  CE2        7.4920   18.5090   25.9610 C.ar  146  TRP146      0.0810
    149  CE3        5.5410   19.7900   25.1620 C.ar  146  TRP146      0.0012
    150  CZ2        8.0560   18.4650   24.6870 C.ar  146  TRP146      0.0191
    151  CZ3        6.1250   19.7410   23.8830 C.ar  146  TRP146      0.0001
    152  CH2        7.3460   19.0930   23.6540 C.ar  146  TRP146      0.0015
    153  N         -5.2150   14.3240   28.0760 N.3   168  THR168     -0.1218
    154  CA        -4.1660   15.1180   27.4460 C.3   168  THR168      0.1862
    155  C         -4.7470   15.9890   26.3420 C.2   168  THR168      0.2287
    156  O         -5.5840   15.5260   25.5500 O.2   168  THR168     -0.2866
    157  CB        -3.0640   14.1960   26.8770 C.3   168  THR168      0.1770
    158  OG1       -2.4740   13.4440   27.9480 O.3   168  THR168     -0.2211
    159  CG2       -1.9850   14.9860   26.1640 C.3   168  THR168      0.0375
    160  N         -3.1420   18.1630   23.2840 N.3   170  VAL170     -0.1245
    161  CA        -1.9770   18.5760   22.5090 C.3   170  VAL170      0.1561
    162  C         -2.3910   19.7620   21.6500 C.2   170  VAL170      0.2260
    163  O         -3.2330   19.6250   20.7490 O.2   170  VAL170     -0.2867
    164  CB        -1.4340   17.4370   21.6180 C.3   170  VAL170      0.0252
    165  CG1       -0.2490   17.9260   20.7840 C.3   170  VAL170      0.0019
    166  CG2       -1.0490   16.2290   22.4740 C.3   170  VAL170      0.0019
@<TRIPOS>BOND
     1   123   122    2
     2   122   121    1
     3     1     2    1
     4   108   106    1
     5     7     6    1
     6     6     5    1
     7     6     8    1
     8   105   104    2
     9   121   124    1
    10   121   120    1
    11   124   125    1
    12     5     2    1
    13     2     3    1
    14   104   103    1
    15    98    99    1
    16   120   111   am
    17   112   111    2
    18     3     4    2
    19   111   110    1
    20   109   110    1
    21   106   103    1
    22   106   107    1
    23   102   103    1
    24   102   100   am
    25   125   127   ar
    26   125   126   ar
    27   110   113    1
    28    99   100    1
    29   127   129   ar
    30   100   101    2
    31     9    10    1
    32   126   128   ar
    33    15    14    2
    34    16    14   am
    35    14    13    1
    36   113   114    1
    37   129   130   ar
    38   163   162    2
    39    10    13    1
    40    10    11    1
    41   165   164    1
    42   114   116   ar
    43   114   115   ar
    44   128   130   ar
    45    96    95    2
    46   116   118   ar
    47   115   117   ar
    48    17    11   am
    49    17    18    1
    50   130   131    1
    51    21    22    1
    52    21    18    1
    53   164   166    1
    54   164   161    1
    55   162   161    1
    56    11    12    2
    57   118   119   ar
    58   117   119   ar
    59    18    19    1
    60    19    20    2
    61    95    94    1
    62   161   160    1
    63    97    94    1
    64    94    93    1
    65   152   151   ar
    66   152   150   ar
    67   151   149   ar
    68    41    38    1
    69    41    42    1
    70    44    42   ar
    71    37    38    1
    72   138   136    1
    73   150   148   ar
    74    38    39    1
    75    23    24    1
    76    42    43   ar
    77   149   146   ar
    78   156   155    2
    79   132   133    1
    80    92    91    2
    81   136   133    1
    82   136   137    1
    83   148   146   ar
    84   148   147   ar
    85    84    83    2
    86   133   134    1
    87   159   157    1
    88   146   144   ar
    89    24    27    1
    90    24    25    1
    91    39    40    2
    92   155   154    1
    93    36    35    1
    94    25    26    2
    95    90    91    1
    96    90    89    1
    97   157   154    1
    98   157   158    1
    99   142   141    2
   100    83    89   am
   101    83    82    1
   102   147   145   ar
   103    35    34    1
   104   134   135    2
   105   154   153    1
   106    85    82    1
   107    85    86    1
   108   141   140    1
   109    88    86    1
   110   144   145   ar
   111   144   143    1
   112    28    29    1
   113    64    63    1
   114    82    81    1
   115    87    86    1
   116    63    62    1
   117    34    33    1
   118    33    32    1
   119   143   140    1
   120   140   139    1
   121    29    32    1
   122    29    30    1
   123    62    61    1
   124    80    78    1
   125    45    46    1
   126    76    75    2
   127    30    31    2
   128    51    49    1
   129    68    67    2
   130    53    54    1
   131    53    47   am
   132    61    58    1
   133    74    75    1
   134    74    77    1
   135    74    73    1
   136    54    55    1
   137    46    49    1
   138    46    47    1
   139    78    77    1
   140    78    79    1
   141    49    50    1
   142    55    56    2
   143    55    57   am
   144    67    73   am
   145    67    66    1
   146    57    58    1
   147    47    48    2
   148    69    66    1
   149    69    70    1
   150    58    59    1
   151    66    65    1
   152    70    71   ar
   153    70    72   ar
   154    50    52    1
   155    59    60    2
