@<TRIPOS>MOLECULE
tmp/4cwoA00.pdb
 164 153 0 0 0
SMALL
GASTEIGER

@<TRIPOS>ATOM
      1  N         16.5630   18.7950   26.2930 N.3     7  PHE7       -0.1241
      2  CA        16.2160   17.4930   25.7250 C.3     7  PHE7        0.1605
      3  C         17.4710   16.6370   25.7390 C.2     7  PHE7        0.2264
      4  O         18.5760   17.1630   25.6070 O.2     7  PHE7       -0.2867
      5  CB        15.7550   17.6280   24.2620 C.3     7  PHE7        0.0534
      6  CG        14.3360   18.0920   24.0980 C.ar    7  PHE7       -0.0203
      7  CD1       13.2700   17.2930   24.5230 C.ar    7  PHE7       -0.0042
      8  CD2       14.0610   19.3130   23.5010 C.ar    7  PHE7       -0.0042
      9  CE1       11.9550   17.7150   24.3620 C.ar    7  PHE7       -0.0003
     10  CE2       12.7480   19.7510   23.3420 C.ar    7  PHE7       -0.0003
     11  CZ        11.6930   18.9500   23.7640 C.ar    7  PHE7       -0.0000
     12  N         -0.9790   11.8210   16.5740 N.3    33  LEU33      -0.1245
     13  CA        -1.5280   12.3590   17.8190 C.3    33  LEU33       0.1561
     14  C         -2.8050   11.6140   18.2350 C.2    33  LEU33       0.2260
     15  O         -3.0060   11.3280   19.4140 O.2    33  LEU33      -0.2867
     16  CB        -1.7680   13.8710   17.6960 C.3    33  LEU33       0.0270
     17  CG        -0.4930   14.6290   17.3000 C.3    33  LEU33       0.0019
     18  CD1       -0.8010   16.1070   17.1080 C.3    33  LEU33       0.0001
     19  CD2        0.7080   14.3970   18.2400 C.3    33  LEU33       0.0001
     20  N         -1.7670    8.2640   19.6110 N.3    36  ASN36      -0.1225
     21  CA        -1.3110    8.4540   20.9950 C.3    36  ASN36       0.1785
     22  C         -2.4650    8.6350   21.9900 C.2    36  ASN36       0.2597
     23  O         -2.4120    8.1450   23.1160 O.2    36  ASN36      -0.2718
     24  CB        -0.3210    9.6330   21.0790 C.3    36  ASN36       0.1169
     25  CG         1.1070    9.2260   20.7060 C.2    36  ASN36       0.2627
     26  OD1        1.4210    8.0430   20.6750 O.2    36  ASN36      -0.2716
     27  ND2        1.9750   10.2040   20.4440 N.am   36  ASN36      -0.0877
     28  N         -3.5020    9.3480   21.5840 N.am   37  SER37      -0.1952
     29  CA        -4.6860    9.5120   22.4360 C.3    37  SER37       0.1924
     30  C         -5.4010    8.1820   22.6560 C.2    37  SER37       0.2314
     31  O         -5.8490    7.8750   23.7630 O.2    37  SER37      -0.2863
     32  CB        -5.6380   10.5170   21.8100 C.3    37  SER37       0.2116
     33  OG        -5.0700   11.8060   21.9000 O.3    37  SER37      -0.2180
     34  N         -3.5160    6.0890   25.1790 N.3    40  ALA40      -0.1245
     35  CA        -3.7580    6.5710   26.5440 C.3    40  ALA40       0.1562
     36  C         -5.1980    6.2340   27.0230 C.2    40  ALA40       0.2260
     37  O         -5.4310    5.9250   28.1980 O.2    40  ALA40      -0.2867
     38  CB        -3.4600    8.0690   26.6570 C.3    40  ALA40       0.0290
     39  N         -5.8250   18.9570   20.3650 N.3    76  ILE76      -0.1245
     40  CA        -6.3550   17.5850   20.5210 C.3    76  ILE76       0.1561
     41  C         -6.5110   17.2980   22.0060 C.2    76  ILE76       0.2260
     42  O         -5.5440   17.4080   22.7620 O.2    76  ILE76      -0.2867
     43  CB        -5.4710   16.5080   19.8470 C.3    76  ILE76       0.0252
     44  CG1       -5.3240   16.7850   18.3570 C.3    76  ILE76       0.0019
     45  CG2       -6.1030   15.1240   19.9560 C.3    76  ILE76       0.0019
     46  CD1       -4.0870   17.5640   17.9930 C.3    76  ILE76       0.0001
     47  N         -7.9170   14.5100   24.9320 N.3    78  ASP78      -0.1239
     48  CA        -8.4390   13.1750   25.2600 C.3    78  ASP78       0.1674
     49  C         -8.6510   13.0080   26.7570 C.2    78  ASP78       0.2266
     50  O         -8.0300   13.7040   27.5560 O.2    78  ASP78      -0.2867
     51  CB        -7.5510   12.0390   24.6810 C.3    78  ASP78       0.1410
     52  CG        -6.1440   11.9920   25.2920 C.2    78  ASP78       0.3668
     53  OD1       -6.0070   11.6910   26.5040 O.co2  78  ASP78      -0.2456
     54  OD2       -5.1570   12.2120   24.5530 O.co2  78  ASP78      -0.2456
     55  N         -0.4330   12.1120   32.1990 N.3    83  MET83      -0.1245
     56  CA         0.9990   11.9300   32.4440 C.3    83  MET83       0.1570
     57  C          1.4360   12.5610   33.7560 C.2    83  MET83       0.2261
     58  O          0.8910   13.5930   34.1680 O.2    83  MET83      -0.2867
     59  CB         1.8090   12.4510   31.2580 C.3    83  MET83       0.0387
     60  CG         1.6400   11.5910   30.0100 C.3    83  MET83       0.0595
     61  SD         2.3000   12.3630   28.5400 S.3    83  MET83      -0.1393
     62  CE         1.0740   13.6370   28.1990 C.3    83  MET83       0.0692
     63  N          6.8460   13.4870   32.0610 N.3    88  LEU88      -0.1245
     64  CA         7.1520   14.6560   31.2280 C.3    88  LEU88       0.1561
     65  C          8.6450   15.0080   31.2190 C.2    88  LEU88       0.2260
     66  O          9.1630   15.3730   30.1710 O.2    88  LEU88      -0.2867
     67  CB         6.3170   15.8610   31.6610 C.3    88  LEU88       0.0270
     68  CG         4.8080   15.6930   31.5410 C.3    88  LEU88       0.0019
     69  CD1        4.1060   16.8090   32.3000 C.3    88  LEU88       0.0001
     70  CD2        4.3890   15.6750   30.0660 C.3    88  LEU88       0.0001
     71  N          9.3860    9.4330   29.5580 N.3    92  LEU92      -0.1231
     72  CA         9.0690    9.4190   28.1250 C.3    92  LEU92       0.1693
     73  C         10.2940    9.6950   27.2610 C.2    92  LEU92       0.2592
     74  O         10.4790    9.0740   26.2090 O.2    92  LEU92      -0.2718
     75  CB         7.9220   10.3860   27.8060 C.3    92  LEU92       0.0284
     76  CG         6.6070   10.0380   28.5270 C.3    92  LEU92       0.0019
     77  CD1        5.5690   11.1320   28.3380 C.3    92  LEU92       0.0001
     78  CD2        6.0490    8.6790   28.0990 C.3    92  LEU92       0.0001
     79  N         11.1270   10.6280   27.7080 N.am   93  GLY93      -0.1957
     80  CA        12.3940   10.9040   27.0370 C.3    93  GLY93       0.1869
     81  C         13.3030    9.6740   27.0440 C.2    93  GLY93       0.2309
     82  O         13.9280    9.3640   26.0370 O.2    93  GLY93      -0.2863
     83  N         12.4450    6.3250   27.3140 N.3    95  ILE95      -0.1231
     84  CA        11.8940    5.3000   26.4060 C.3    95  ILE95       0.1692
     85  C         12.1710    5.6090   24.9380 C.2    95  ILE95       0.2591
     86  O         12.5100    4.7160   24.1660 O.2    95  ILE95      -0.2718
     87  CB        10.3660    5.1060   26.5900 C.3    95  ILE95       0.0266
     88  CG1       10.0570    4.5150   27.9610 C.3    95  ILE95       0.0019
     89  CG2        9.8010    4.1780   25.5200 C.3    95  ILE95       0.0020
     90  CD1        8.5850    4.5350   28.3040 C.3    95  ILE95       0.0001
     91  N         12.0240    6.8800   24.5690 N.am   96  ALA96      -0.1980
     92  CA        12.1480    7.3350   23.1810 C.3    96  ALA96       0.1597
     93  C         13.5660    7.2370   22.5840 C.2    96  ALA96       0.2287
     94  O         13.7230    7.3290   21.3540 O.2    96  ALA96      -0.2864
     95  CB        11.6180    8.7640   23.0510 C.3    96  ALA96       0.0319
     96  N          7.6430    4.2730   18.0450 N.3   120  GLY120     -0.1210
     97  CA         7.1720    4.8510   19.3020 C.3   120  GLY120      0.1956
     98  C          7.4670    6.3360   19.5190 C.2   120  GLY120      0.2611
     99  O          7.3160    6.8310   20.6440 O.2   120  GLY120     -0.2717
    100  N          7.8990    7.0500   18.4740 N.am  121  VAL121     -0.1979
    101  CA         8.2400    8.4810   18.6170 C.3   121  VAL121      0.1595
    102  C          7.3450    9.4020   17.7530 C.2   121  VAL121      0.2287
    103  O          7.7200   10.5310   17.4390 O.2   121  VAL121     -0.2864
    104  CB         9.7680    8.7740   18.4210 C.3   121  VAL121      0.0276
    105  CG1       10.5790    8.0830   19.4860 C.3   121  VAL121      0.0022
    106  CG2       10.2690    8.3530   17.0420 C.3   121  VAL121      0.0022
    107  N          4.8560   11.2660   18.5040 N.3   123  PHE123     -0.1227
    108  CA         4.6030   12.5740   19.1320 C.3   123  PHE123      0.1736
    109  C          5.3840   13.7150   18.4470 C.2   123  PHE123      0.2595
    110  O          4.8160   14.7660   18.1830 O.2   123  PHE123     -0.2718
    111  CB         4.9060   12.5210   20.6440 C.3   123  PHE123      0.0547
    112  CG         4.8020   13.8490   21.3310 C.ar  123  PHE123     -0.0202
    113  CD1        3.5620   14.4160   21.6040 C.ar  123  PHE123     -0.0042
    114  CD2        5.9650   14.5510   21.7070 C.ar  123  PHE123     -0.0042
    115  CE1        3.4650   15.6590   22.2260 C.ar  123  PHE123     -0.0003
    116  CE2        5.8780   15.7940   22.3250 C.ar  123  PHE123     -0.0003
    117  CZ         4.6230   16.3510   22.5890 C.ar  123  PHE123     -0.0000
    118  N          6.6660   13.4850   18.1150 N.am  124  TYR124     -0.1976
    119  CA         7.5340   14.5440   17.5910 C.3   124  TYR124      0.1639
    120  C          7.2060   14.9450   16.1620 C.2   124  TYR124      0.2290
    121  O          7.6810   15.9790   15.6810 O.2   124  TYR124     -0.2864
    122  CB         9.0280   14.1940   17.7750 C.3   124  TYR124      0.0560
    123  CG         9.3510   13.9810   19.2220 C.ar  124  TYR124     -0.0198
    124  CD1        9.6050   15.0640   20.0600 C.ar  124  TYR124     -0.0009
    125  CD2        9.3390   12.6940   19.7900 C.ar  124  TYR124     -0.0009
    126  CE1        9.8610   14.8830   21.4190 C.ar  124  TYR124      0.0417
    127  CE2        9.5960   12.5030   21.1590 C.ar  124  TYR124      0.0417
    128  CZ         9.8660   13.6100   21.9590 C.ar  124  TYR124      0.1957
    129  OH        10.1400   13.4660   23.3240 O.3   124  TYR124     -0.2866
    130  N          1.5370   20.9520   26.0840 N.3   135  VAL135     -0.1245
    131  CA         0.7770   19.7780   26.5420 C.3   135  VAL135      0.1561
    132  C          0.3490   20.0300   27.9730 C.2   135  VAL135      0.2260
    133  O          1.2090   20.1700   28.8450 O.2   135  VAL135     -0.2867
    134  CB         1.6130   18.4760   26.4860 C.3   135  VAL135      0.0252
    135  CG1        0.8160   17.2920   27.0250 C.3   135  VAL135      0.0019
    136  CG2        2.1020   18.2070   25.0720 C.3   135  VAL135      0.0019
    137  N          3.5550   21.2920   29.8800 N.3   147  TRP147     -0.1241
    138  CA         4.8440   21.0600   29.2330 C.3   147  TRP147      0.1605
    139  C          4.8060   21.8870   28.0060 C.2   147  TRP147      0.2264
    140  O          3.7410   22.0700   27.4330 O.2   147  TRP147     -0.2867
    141  CB         4.9350   19.5930   28.8400 C.3   147  TRP147      0.0550
    142  CG         6.1350   19.1450   28.0240 C.ar  147  TRP147      0.0003
    143  CD1        7.2650   18.4790   28.4860 C.ar  147  TRP147      0.0946
    144  CD2        6.3340   19.2580   26.5590 C.ar  147  TRP147      0.0152
    145  NE1        8.1220   18.2100   27.4560 N.ar  147  TRP147     -0.2442
    146  CE2        7.6130   18.6440   26.2750 C.ar  147  TRP147      0.0810
    147  CE3        5.5890   19.7820   25.5050 C.ar  147  TRP147      0.0012
    148  CZ2        8.1170   18.5610   24.9870 C.ar  147  TRP147      0.0191
    149  CZ3        6.1060   19.7040   24.2080 C.ar  147  TRP147      0.0001
    150  CH2        7.3430   19.1070   23.9560 C.ar  147  TRP147      0.0015
    151  N         -5.2940   14.4220   28.5960 N.3   169  THR169     -0.1218
    152  CA        -4.2250   15.1560   27.9580 C.3   169  THR169      0.1862
    153  C         -4.7400   16.0510   26.8490 C.2   169  THR169      0.2287
    154  O         -5.5360   15.6380   26.0140 O.2   169  THR169     -0.2866
    155  CB        -3.1690   14.1780   27.4140 C.3   169  THR169      0.1770
    156  OG1       -2.5810   13.4570   28.5030 O.3   169  THR169     -0.2211
    157  CG2       -2.0990   14.8930   26.6360 C.3   169  THR169      0.0375
    158  N         -3.2070   18.4970   23.8600 N.3   171  VAL171     -0.1245
    159  CA        -2.0420   18.8940   23.0820 C.3   171  VAL171      0.1561
    160  C         -2.4100   20.1150   22.2310 C.2   171  VAL171      0.2260
    161  O         -3.3400   20.0590   21.4350 O.2   171  VAL171     -0.2867
    162  CB        -1.5680   17.7390   22.1580 C.3   171  VAL171      0.0252
    163  CG1       -0.4150   18.1790   21.2640 C.3   171  VAL171      0.0019
    164  CG2       -1.1750   16.4990   22.9750 C.3   171  VAL171      0.0019
@<TRIPOS>BOND
     1   121   120    2
     2   120   119    1
     3    12    13    1
     4   106   104    1
     5    18    17    1
     6    17    16    1
     7    17    19    1
     8   103   102    2
     9   119   122    1
    10   119   118    1
    11    16    13    1
    12   102   101    1
    13   122   123    1
    14    13    14    1
    15    46    44    1
    16    96    97    1
    17   118   109   am
    18   110   109    2
    19    14    15    2
    20    44    43    1
    21   104   101    1
    22   104   105    1
    23   109   108    1
    24   100   101    1
    25   100    98   am
    26   107   108    1
    27   108   111    1
    28   123   125   ar
    29   123   124   ar
    30    97    98    1
    31    98    99    2
    32    20    21    1
    33   125   127   ar
    34    43    45    1
    35    43    40    1
    36   124   126   ar
    37    39    40    1
    38    27    25   am
    39    40    41    1
    40   111   112    1
    41    26    25    2
    42    25    24    1
    43    21    24    1
    44    21    22    1
    45   127   128   ar
    46   163   162    1
    47   112   113   ar
    48   112   114   ar
    49    94    93    2
    50   126   128   ar
    51   161   160    2
    52    28    22   am
    53    28    29    1
    54   113   115   ar
    55   114   116   ar
    56    32    33    1
    57    32    29    1
    58   128   129    1
    59    22    23    2
    60    41    42    2
    61   162   164    1
    62   162   159    1
    63   115   117   ar
    64   160   159    1
    65   116   117   ar
    66    29    30    1
    67    93    92    1
    68    30    31    2
    69    95    92    1
    70   159   158    1
    71    92    91    1
    72    10     8   ar
    73    10    11   ar
    74     8     6   ar
    75    11     9   ar
    76   150   149   ar
    77   150   148   ar
    78     6     5    1
    79     6     7   ar
    80    86    85    2
    81   149   147   ar
    82     5     2    1
    83     9     7   ar
    84    54    52   ar
    85    91    85   am
    86    51    48    1
    87    51    52    1
    88    47    48    1
    89    85    84    1
    90   148   146   ar
    91   136   134    1
    92    34    35    1
    93    48    49    1
    94    52    53   ar
    95   147   144   ar
    96    89    87    1
    97     4     3    2
    98     2     3    1
    99     2     1    1
   100   154   153    2
   101    82    81    2
   102   130   131    1
   103    74    73    2
   104   146   144   ar
   105   146   145   ar
   106    84    87    1
   107    84    83    1
   108   134   131    1
   109   134   135    1
   110   131   132    1
   111    35    38    1
   112    35    36    1
   113   144   142   ar
   114    87    88    1
   115   157   155    1
   116    49    50    2
   117   153   152    1
   118    36    37    2
   119    80    81    1
   120    80    79    1
   121    73    79   am
   122    73    72    1
   123   155   152    1
   124   155   156    1
   125   140   139    2
   126   145   143   ar
   127    75    72    1
   128    75    76    1
   129   152   151    1
   130    88    90    1
   131   132   133    2
   132   139   138    1
   133   142   143   ar
   134   142   141    1
   135    78    76    1
   136    72    71    1
   137    62    61    1
   138    77    76    1
   139    61    60    1
   140   141   138    1
   141   138   137    1
   142    60    59    1
   143    70    68    1
   144    66    65    2
   145    65    64    1
   146    64    67    1
   147    64    63    1
   148    59    56    1
   149    68    67    1
   150    68    69    1
   151    55    56    1
   152    56    57    1
   153    57    58    2
