@<TRIPOS>MOLECULE
tmp/4cwqA00.pdb
 163 154 0 0 0
SMALL
GASTEIGER

@<TRIPOS>ATOM
      1  N         -0.8800   11.5340   16.1630 N.3    32  LEU32      -0.1245
      2  CA        -1.3890   12.0490   17.4480 C.3    32  LEU32       0.1561
      3  C         -2.7070   11.3790   17.8740 C.2    32  LEU32       0.2260
      4  O         -2.9350   11.1450   19.0580 O.2    32  LEU32      -0.2867
      5  CB        -1.5390   13.5660   17.3890 C.3    32  LEU32       0.0270
      6  CG        -0.2420   14.3250   17.0450 C.3    32  LEU32       0.0019
      7  CD1       -0.5550   15.8100   16.8900 C.3    32  LEU32       0.0001
      8  CD2        0.8390   14.1230   18.0940 C.3    32  LEU32       0.0001
      9  N         -1.6630    8.0980   19.2790 N.3    35  ASN35      -0.1225
     10  CA        -1.2010    8.3090   20.6470 C.3    35  ASN35       0.1785
     11  C         -2.3840    8.4050   21.6070 C.2    35  ASN35       0.2597
     12  O         -2.3760    7.7950   22.6800 O.2    35  ASN35      -0.2718
     13  CB        -0.3430    9.5810   20.7490 C.3    35  ASN35       0.1169
     14  CG         1.0490    9.3970   20.1440 C.2    35  ASN35       0.2627
     15  OD1        1.4500    8.2630   19.8040 O.2    35  ASN35      -0.2716
     16  ND2        1.8030   10.5070   20.0230 N.am   35  ASN35      -0.0877
     17  N         -3.3930    9.1720   21.2140 N.am   36  SER36      -0.1952
     18  CA        -4.6090    9.3400   22.0110 C.3    36  SER36       0.1924
     19  C         -5.3230    8.0090   22.2440 C.2    36  SER36       0.2314
     20  O         -5.7010    7.6790   23.3780 O.2    36  SER36      -0.2863
     21  CB        -5.5450   10.3300   21.3390 C.3    36  SER36       0.2116
     22  OG        -5.0370   11.6410   21.4810 O.3    36  SER36      -0.2180
     23  N         -3.5600    5.8740   24.7480 N.3    39  ALA39      -0.1245
     24  CA        -3.8200    6.3930   26.1000 C.3    39  ALA39       0.1562
     25  C         -5.2460    6.0380   26.5570 C.2    39  ALA39       0.2260
     26  O         -5.4790    5.7550   27.7320 O.2    39  ALA39      -0.2867
     27  CB        -3.5880    7.9010   26.1470 C.3    39  ALA39       0.0290
     28  N         -5.3230    2.3840   27.5800 N.3    42  LYS42      -0.1245
     29  CA        -4.7510    2.2200   28.9220 C.3    42  LYS42       0.1561
     30  C         -5.7410    2.5020   30.0470 C.2    42  LYS42       0.2260
     31  O         -5.8610    1.7030   30.9890 O.2    42  LYS42      -0.2867
     32  CB        -3.5040    3.0930   29.1030 C.3    42  LYS42       0.0271
     33  CG        -2.2690    2.5210   28.4280 C.3    42  LYS42       0.0035
     34  CD        -1.0210    3.3450   28.7310 C.3    42  LYS42       0.0206
     35  CE         0.1960    2.7580   28.0270 C.3    42  LYS42       0.1093
     36  NZ         0.1240    3.0460   26.5610 N.3    42  LYS42      -0.1314
     37  N         -7.8460   14.2580   24.2580 N.3    77  ASP77      -0.1239
     38  CA        -8.3760   12.9440   24.6160 C.3    77  ASP77       0.1674
     39  C         -8.6520   12.8680   26.1100 C.2    77  ASP77       0.2266
     40  O         -8.0920   13.6430   26.8960 O.2    77  ASP77      -0.2867
     41  CB        -7.4260   11.8040   24.1600 C.3    77  ASP77       0.1410
     42  CG        -6.0700   11.8210   24.8670 C.2    77  ASP77       0.3668
     43  OD1       -6.0230   11.4690   26.0740 O.co2  77  ASP77      -0.2456
     44  OD2       -5.0310   12.1450   24.2170 O.co2  77  ASP77      -0.2456
     45  N         -5.4890    8.1190   29.6430 N.3    80  ILE80      -0.1231
     46  CA        -4.9360    7.9960   30.9870 C.3    80  ILE80       0.1692
     47  C         -4.1050    9.2220   31.4410 C.2    80  ILE80       0.2593
     48  O         -3.9310    9.4590   32.6410 O.2    80  ILE80      -0.2718
     49  CB        -4.1470    6.6740   31.1250 C.3    80  ILE80       0.0266
     50  CG1       -4.0530    6.2590   32.6080 C.3    80  ILE80       0.0019
     51  CG2       -2.8110    6.7730   30.3990 C.3    80  ILE80       0.0020
     52  CD1       -3.8160    4.7700   32.8370 C.3    80  ILE80       0.0001
     53  N         -3.5900   10.0030   30.4940 N.am   81  GLY81      -0.1942
     54  CA        -2.7810   11.1780   30.8550 C.3    81  GLY81       0.2014
     55  C         -1.3560   10.8060   31.2210 C.2    81  GLY81       0.2639
     56  O         -1.0190    9.6100   31.3460 O.2    81  GLY81      -0.2714
     57  N         -0.5110   11.8250   31.3860 N.am   82  MET82      -0.1963
     58  CA         0.9030   11.6190   31.6920 C.3    82  MET82       0.1736
     59  C          1.2700   12.2540   33.0270 C.2    82  MET82       0.2617
     60  O          0.6920   13.2630   33.4460 O.2    82  MET82      -0.2715
     61  CB         1.8080   12.1670   30.5740 C.3    82  MET82       0.0427
     62  CG         1.6350   11.4540   29.2390 C.3    82  MET82       0.0599
     63  SD         2.3890   12.3070   27.8390 S.3    82  MET82      -0.1393
     64  CE         1.1910   13.6060   27.5680 C.3    82  MET82       0.0692
     65  N          2.2270   11.6350   33.6940 N.am   83  THR83      -0.1951
     66  CA         2.7170   12.1300   34.9710 C.3    83  THR83       0.1897
     67  C          3.8260   13.1740   34.7130 C.2    83  THR83       0.2313
     68  O          4.3480   13.3040   33.5850 O.2    83  THR83      -0.2863
     69  CB         3.2950   10.9780   35.7900 C.3    83  THR83       0.1794
     70  OG1        4.4600   10.4800   35.1100 O.3    83  THR83      -0.2208
     71  CG2        2.2530    9.8180   35.9340 C.3    83  THR83       0.0378
     72  N          6.8170   11.2550   33.4750 N.3    86  ASP86      -0.1225
     73  CA         6.6820   10.9440   32.0440 C.3    86  ASP86       0.1805
     74  C          7.1650   12.1160   31.1740 C.2    86  ASP86       0.2597
     75  O          7.9330   11.9230   30.2180 O.2    86  ASP86      -0.2718
     76  CB         5.2140   10.6800   31.6790 C.3    86  ASP86       0.1424
     77  CG         4.6790    9.3680   32.2150 C.2    86  ASP86       0.3668
     78  OD1        5.4470    8.4320   32.5340 O.co2  86  ASP86      -0.2456
     79  OD2        3.4400    9.2560   32.2680 O.co2  86  ASP86      -0.2456
     80  N          6.6970   13.3240   31.4940 N.am   87  LEU87      -0.1979
     81  CA         6.9480   14.5240   30.6600 C.3    87  LEU87       0.1596
     82  C          8.4030   14.9560   30.6710 C.2    87  LEU87       0.2287
     83  O          8.9750   15.3350   29.6350 O.2    87  LEU87      -0.2864
     84  CB         6.0950   15.7030   31.1380 C.3    87  LEU87       0.0297
     85  CG         4.6080   15.5070   30.9470 C.3    87  LEU87       0.0022
     86  CD1        3.8820   16.6650   31.6220 C.3    87  LEU87       0.0001
     87  CD2        4.2880   15.4330   29.4530 C.3    87  LEU87       0.0001
     88  N          9.3430    9.4530   29.0970 N.3    91  LEU91      -0.1245
     89  CA         8.9980    9.3200   27.6710 C.3    91  LEU91       0.1561
     90  C         10.1630    9.6330   26.7590 C.2    91  LEU91       0.2260
     91  O         10.3260    8.9870   25.7280 O.2    91  LEU91      -0.2867
     92  CB         7.7350   10.1100   27.2940 C.3    91  LEU91       0.0270
     93  CG         6.5240    9.7100   28.1640 C.3    91  LEU91       0.0019
     94  CD1        5.2520   10.3900   27.6930 C.3    91  LEU91       0.0001
     95  CD2        6.3200    8.1960   28.2680 C.3    91  LEU91       0.0001
     96  N          4.8310   11.2290   18.3810 N.3   122  PHE122     -0.1227
     97  CA         4.5170   12.5250   18.9410 C.3   122  PHE122      0.1736
     98  C          5.2720   13.6590   18.2350 C.2   122  PHE122      0.2595
     99  O          4.6960   14.7040   17.9570 O.2   122  PHE122     -0.2718
    100  CB         4.8040   12.5880   20.4530 C.3   122  PHE122      0.0547
    101  CG         4.7480   13.9840   20.9940 C.ar  122  PHE122     -0.0202
    102  CD1        3.5150   14.6070   21.1970 C.ar  122  PHE122     -0.0042
    103  CD2        5.9180   14.6930   21.2730 C.ar  122  PHE122     -0.0042
    104  CE1        3.4420   15.9070   21.6810 C.ar  122  PHE122     -0.0003
    105  CE2        5.8490   16.0020   21.7420 C.ar  122  PHE122     -0.0003
    106  CZ         4.6090   16.6060   21.9460 C.ar  122  PHE122     -0.0000
    107  N          6.5530   13.4420   17.9370 N.am  123  TYR123     -0.1976
    108  CA         7.4180   14.4960   17.3750 C.3   123  TYR123      0.1639
    109  C          7.0280   14.8920   15.9500 C.2   123  TYR123      0.2290
    110  O          7.4710   15.9420   15.4470 O.2   123  TYR123     -0.2864
    111  CB         8.8980   14.0830   17.5020 C.3   123  TYR123      0.0560
    112  CG         9.2380   13.8460   18.9560 C.ar  123  TYR123     -0.0198
    113  CD1        9.4450   14.9320   19.8240 C.ar  123  TYR123     -0.0009
    114  CD2        9.3040   12.5560   19.4830 C.ar  123  TYR123     -0.0009
    115  CE1        9.7090   14.7360   21.1760 C.ar  123  TYR123      0.0417
    116  CE2        9.5710   12.3490   20.8430 C.ar  123  TYR123      0.0417
    117  CZ         9.7740   13.4470   21.6750 C.ar  123  TYR123      0.1957
    118  OH        10.0360   13.2590   23.0130 O.3   123  TYR123     -0.2866
    119  N          1.4430   20.9020   25.4900 N.3   134  VAL134     -0.1245
    120  CA         0.6890   19.7140   25.9150 C.3   134  VAL134      0.1561
    121  C          0.2000   19.9430   27.3240 C.2   134  VAL134      0.2260
    122  O          1.0090   20.1460   28.2250 O.2   134  VAL134     -0.2867
    123  CB         1.5470   18.4260   25.8390 C.3   134  VAL134      0.0252
    124  CG1        0.7630   17.2050   26.3080 C.3   134  VAL134      0.0019
    125  CG2        2.0380   18.2280   24.4130 C.3   134  VAL134      0.0019
    126  N         -3.1030   13.1890   34.8330 N.3   138  HIS138     -0.1241
    127  CA        -3.1630   11.7690   35.1690 C.3   138  HIS138      0.1621
    128  C         -3.8060   11.6500   36.5320 C.2   138  HIS138      0.2264
    129  O         -3.6390   12.5340   37.3730 O.2   138  HIS138     -0.2867
    130  CB        -1.7410   11.2190   35.1990 C.3   138  HIS138      0.0745
    131  CG        -1.6510    9.7170   35.3210 C.ar  138  HIS138      0.0817
    132  ND1       -1.9770    9.0530   36.4550 N.ar  138  HIS138     -0.2268
    133  CD2       -1.2050    8.7570   34.4180 C.ar  138  HIS138      0.1154
    134  CE1       -1.7590    7.7360   36.2800 C.ar  138  HIS138      0.1986
    135  NE2       -1.2900    7.5540   35.0300 N.ar  138  HIS138     -0.2212
    136  N          3.3580   21.1530   29.3710 N.3   146  TRP146     -0.1241
    137  CA         4.6560   20.9070   28.7370 C.3   146  TRP146      0.1605
    138  C          4.6160   21.7500   27.5170 C.2   146  TRP146      0.2264
    139  O          3.5450   21.9050   26.9090 O.2   146  TRP146     -0.2867
    140  CB         4.7850   19.4060   28.3950 C.3   146  TRP146      0.0550
    141  CG         5.9780   18.9410   27.5470 C.ar  146  TRP146      0.0003
    142  CD1        7.0930   18.2200   27.9790 C.ar  146  TRP146      0.0946
    143  CD2        6.1870   19.1170   26.0960 C.ar  146  TRP146      0.0152
    144  NE1        7.9440   17.9380   26.9270 N.ar  146  TRP146     -0.2442
    145  CE2        7.4510   18.4500   25.7730 C.ar  146  TRP146      0.0810
    146  CE3        5.4720   19.7310   25.0630 C.ar  146  TRP146      0.0012
    147  CZ2        7.9630   18.4340   24.4780 C.ar  146  TRP146      0.0191
    148  CZ3        6.0000   19.6930   23.7640 C.ar  146  TRP146      0.0001
    149  CH2        7.2110   19.0670   23.4860 C.ar  146  TRP146      0.0015
    150  N         -5.2940   14.2440   27.9370 N.3   168  THR168     -0.1218
    151  CA        -4.2370   15.0460   27.3330 C.3   168  THR168      0.1862
    152  C         -4.7830   15.9490   26.2280 C.2   168  THR168      0.2287
    153  O         -5.6240   15.5240   25.4240 O.2   168  THR168     -0.2866
    154  CB        -3.1310   14.1240   26.7830 C.3   168  THR168      0.1770
    155  OG1       -2.5800   13.3540   27.8630 O.3   168  THR168     -0.2211
    156  CG2       -2.0660   14.8960   26.0830 C.3   168  THR168      0.0375
    157  N         -3.1550   18.1810   23.1540 N.3   170  VAL170     -0.1245
    158  CA        -2.0020   18.6470   22.3930 C.3   170  VAL170      0.1561
    159  C         -2.4310   19.8390   21.5460 C.2   170  VAL170      0.2260
    160  O         -3.2480   19.7120   20.6350 O.2   170  VAL170     -0.2867
    161  CB        -1.4260   17.5280   21.4950 C.3   170  VAL170      0.0252
    162  CG1       -0.2030   18.0270   20.7240 C.3   170  VAL170      0.0019
    163  CG2       -1.0660   16.3130   22.3370 C.3   170  VAL170      0.0019
@<TRIPOS>BOND
     1   110   109    2
     2   109   108    1
     3     1     2    1
     4     7     6    1
     5     6     5    1
     6     6     8    1
     7   108   111    1
     8   108   107    1
     9     5     2    1
    10     2     3    1
    11   111   112    1
    12     3     4    2
    13   107    98   am
    14    99    98    2
    15    98    97    1
    16    96    97    1
    17    97   100    1
    18   112   114   ar
    19   112   113   ar
    20     9    10    1
    21   114   116   ar
    22    15    14    2
    23   113   115   ar
    24    16    14   am
    25    14    13    1
    26   100   101    1
    27   160   159    2
    28    10    13    1
    29    10    11    1
    30   162   161    1
    31   116   117   ar
    32   101   102   ar
    33   101   103   ar
    34   115   117   ar
    35   102   104   ar
    36    17    11   am
    37    17    18    1
    38   103   105   ar
    39    21    22    1
    40    21    18    1
    41   161   163    1
    42   161   158    1
    43   159   158    1
    44    11    12    2
    45   117   118    1
    46   104   106   ar
    47   105   106   ar
    48    18    19    1
    49    19    20    2
    50   158   157    1
    51   149   148   ar
    52   149   147   ar
    53   148   146   ar
    54    41    38    1
    55    41    42    1
    56    44    42   ar
    57    37    38    1
    58   125   123    1
    59   147   145   ar
    60    38    39    1
    61    23    24    1
    62    42    43   ar
    63   146   143   ar
    64   153   152    2
    65   119   120    1
    66    91    90    2
    67   145   143   ar
    68   145   144   ar
    69   123   120    1
    70   123   124    1
    71   120   121    1
    72   156   154    1
    73   143   141   ar
    74    24    27    1
    75    24    25    1
    76    39    40    2
    77   152   151    1
    78    25    26    2
    79    36    35    1
    80    90    89    1
    81   154   151    1
    82   154   155    1
    83   139   138    2
    84   144   142   ar
    85    92    89    1
    86    92    93    1
    87   121   122    2
    88   151   150    1
    89   138   137    1
    90   141   142   ar
    91   141   140    1
    92    64    63    1
    93    28    29    1
    94    89    88    1
    95    94    93    1
    96    63    62    1
    97    35    34    1
    98    93    95    1
    99   140   137    1
   100    33    34    1
   101    33    32    1
   102   137   136    1
   103    29    32    1
   104    29    30    1
   105    62    61    1
   106    87    85    1
   107    83    82    2
   108    45    46    1
   109    30    31    2
   110    75    74    2
   111    51    49    1
   112    53    54    1
   113    53    47   am
   114    61    58    1
   115    81    82    1
   116    81    84    1
   117    81    80    1
   118    54    55    1
   119    85    84    1
   120    85    86    1
   121    46    49    1
   122    46    47    1
   123    49    50    1
   124    74    80   am
   125    74    73    1
   126    55    56    2
   127    55    57   am
   128    57    58    1
   129    47    48    2
   130    76    73    1
   131    76    77    1
   132    58    59    1
   133    73    72    1
   134    77    79   ar
   135    77    78   ar
   136    50    52    1
   137    59    60    2
   138    59    65   am
   139    68    67    2
   140    65    66    1
   141   133   135   ar
   142   133   131   ar
   143    67    66    1
   144   126   127    1
   145    66    69    1
   146   135   134   ar
   147    70    69    1
   148   127   130    1
   149   127   128    1
   150   130   131    1
   151   131   132   ar
   152    69    71    1
   153   134   132   ar
   154   128   129    2
