@<TRIPOS>MOLECULE
tmp/4cwrA00.pdb
 154 144 0 0 0
SMALL
GASTEIGER

@<TRIPOS>ATOM
      1  N         -0.8390   11.5870   16.2130 N.3    32  LEU32      -0.1245
      2  CA        -1.3060   12.1250   17.5010 C.3    32  LEU32       0.1561
      3  C         -2.6020   11.4370   17.9230 C.2    32  LEU32       0.2260
      4  O         -2.8200   11.2060   19.1110 O.2    32  LEU32      -0.2867
      5  CB        -1.4920   13.6460   17.4300 C.3    32  LEU32       0.0270
      6  CG        -0.2200   14.4330   17.1030 C.3    32  LEU32       0.0019
      7  CD1       -0.6090   15.8810   16.9020 C.3    32  LEU32       0.0001
      8  CD2        0.8450   14.3010   18.1860 C.3    32  LEU32       0.0001
      9  N         -1.4830    8.1620   19.2620 N.3    35  ASN35      -0.1225
     10  CA        -1.0220    8.3970   20.6370 C.3    35  ASN35       0.1785
     11  C         -2.1960    8.4780   21.6330 C.2    35  ASN35       0.2597
     12  O         -2.1410    7.8790   22.7110 O.2    35  ASN35      -0.2718
     13  CB        -0.1560    9.6640   20.7330 C.3    35  ASN35       0.1169
     14  CG         1.2420    9.4760   20.1430 C.2    35  ASN35       0.2627
     15  OD1        1.6700    8.3450   19.8380 O.2    35  ASN35      -0.2716
     16  ND2        1.9670   10.5890   19.9850 N.am   35  ASN35      -0.0877
     17  N         -3.2480    9.2050   21.2480 N.am   36  SER36      -0.1952
     18  CA        -4.4660    9.3250   22.0480 C.3    36  SER36       0.1924
     19  C         -5.1340    7.9640   22.2570 C.2    36  SER36       0.2314
     20  O         -5.5060    7.6240   23.3760 O.2    36  SER36      -0.2863
     21  CB        -5.4490   10.2880   21.3850 C.3    36  SER36       0.2116
     22  OG        -4.9730   11.6210   21.4680 O.3    36  SER36      -0.2180
     23  N         -3.2220    5.9280   24.7880 N.3    39  ALA39      -0.1245
     24  CA        -3.4560    6.4610   26.1380 C.3    39  ALA39       0.1562
     25  C         -4.8350    6.0440   26.6460 C.2    39  ALA39       0.2260
     26  O         -5.0170    5.7520   27.8340 O.2    39  ALA39      -0.2867
     27  CB        -3.3310    7.9790   26.1130 C.3    39  ALA39       0.0290
     28  N         -4.9480    2.3980   27.6520 N.3    42  LYS42      -0.1245
     29  CA        -4.3210    2.2680   28.9570 C.3    42  LYS42       0.1561
     30  C         -5.2880    2.5000   30.1150 C.2    42  LYS42       0.2260
     31  O         -5.3780    1.6780   31.0410 O.2    42  LYS42      -0.2867
     32  CB        -3.1600    3.2460   29.0610 C.3    42  LYS42       0.0271
     33  CG        -2.0120    2.7550   29.9050 C.3    42  LYS42       0.0035
     34  CD        -0.7470    3.5570   29.6020 C.3    42  LYS42       0.0206
     35  CE        -0.3070    3.4000   28.1590 C.3    42  LYS42       0.1093
     36  NZ         0.9930    4.1000   27.9380 N.3    42  LYS42      -0.1314
     37  N         -7.6920   14.1810   24.3370 N.3    77  ASP77      -0.1239
     38  CA        -8.1650   12.8570   24.6870 C.3    77  ASP77       0.1674
     39  C         -8.4300   12.7760   26.1810 C.2    77  ASP77       0.2266
     40  O         -7.9150   13.5850   26.9640 O.2    77  ASP77      -0.2867
     41  CB        -7.1920   11.7480   24.1970 C.3    77  ASP77       0.1410
     42  CG        -5.8310   11.7930   24.8940 C.2    77  ASP77       0.3668
     43  OD1       -5.7410   11.3890   26.0770 O.co2  77  ASP77      -0.2456
     44  OD2       -4.8350   12.1800   24.2520 O.co2  77  ASP77      -0.2456
     45  N         -5.1120    8.1010   29.7730 N.3    80  ILE80      -0.1231
     46  CA        -4.5250    7.9650   31.1080 C.3    80  ILE80       0.1692
     47  C         -3.8080    9.2410   31.5920 C.2    80  ILE80       0.2593
     48  O         -3.7300    9.5080   32.8050 O.2    80  ILE80      -0.2718
     49  CB        -3.6170    6.7190   31.1820 C.3    80  ILE80       0.0266
     50  CG1       -3.3530    6.3420   32.6480 C.3    80  ILE80       0.0019
     51  CG2       -2.3340    6.9100   30.3690 C.3    80  ILE80       0.0020
     52  CD1       -3.0280    4.8700   32.8560 C.3    80  ILE80       0.0001
     53  N         -3.3150   10.0380   30.6440 N.am   81  GLY81      -0.1942
     54  CA        -2.6080   11.2710   30.9760 C.3    81  GLY81       0.2014
     55  C         -1.1600   10.9980   31.3590 C.2    81  GLY81       0.2638
     56  O         -0.7570    9.8510   31.5530 O.2    81  GLY81      -0.2714
     57  N         -0.3870   12.0670   31.4950 N.am   82  MET82      -0.1976
     58  CA         1.0370   11.9570   31.7890 C.3    82  MET82       0.1605
     59  C          1.3610   12.6090   33.1230 C.2    82  MET82       0.2287
     60  O          0.8230   13.6670   33.4590 O.2    82  MET82      -0.2864
     61  CB         1.8510   12.6030   30.6650 C.3    82  MET82       0.0413
     62  CG         1.8730   11.7630   29.3960 C.3    82  MET82       0.0598
     63  SD         2.5400   12.6040   27.9440 S.3    82  MET82      -0.1393
     64  CE         1.2910   13.8430   27.6030 C.3    82  MET82       0.0692
     65  N          6.8600   11.4750   33.6740 N.3    86  ASP86      -0.1225
     66  CA         6.7380   11.1850   32.2490 C.3    86  ASP86       0.1805
     67  C          7.3200   12.3550   31.4620 C.2    86  ASP86       0.2597
     68  O          8.2060   12.1650   30.6250 O.2    86  ASP86      -0.2718
     69  CB         5.2650   11.0260   31.8570 C.3    86  ASP86       0.1424
     70  CG         4.6750    9.6970   32.2730 C.2    86  ASP86       0.3668
     71  OD1        5.4140    8.6880   32.3300 O.co2  86  ASP86      -0.2456
     72  OD2        3.4450    9.6610   32.5080 O.co2  86  ASP86      -0.2456
     73  N          6.8250   13.5580   31.7650 N.am   87  LEU87      -0.1979
     74  CA         7.1660   14.7740   31.0290 C.3    87  LEU87       0.1596
     75  C          8.6590   15.0920   31.1020 C.2    87  LEU87       0.2287
     76  O          9.2610   15.4760   30.1080 O.2    87  LEU87      -0.2864
     77  CB         6.3250   15.9680   31.5280 C.3    87  LEU87       0.0297
     78  CG         4.8100   15.9320   31.2660 C.3    87  LEU87       0.0022
     79  CD1        4.1160   17.1310   31.8980 C.3    87  LEU87       0.0001
     80  CD2        4.4930   15.8950   29.7800 C.3    87  LEU87       0.0001
     81  N          9.2830    9.8420   29.1280 N.3    91  LEU91      -0.1245
     82  CA         9.0240    9.9900   27.6890 C.3    91  LEU91       0.1561
     83  C         10.3290   10.0740   26.9180 C.2    91  LEU91       0.2260
     84  O         10.4620    9.4580   25.8620 O.2    91  LEU91      -0.2867
     85  CB         8.1600   11.2200   27.3820 C.3    91  LEU91       0.0270
     86  CG         6.7280   11.3050   27.9300 C.3    91  LEU91       0.0019
     87  CD1        6.2010   12.7180   27.7210 C.3    91  LEU91       0.0001
     88  CD2        5.8050   10.2920   27.2800 C.3    91  LEU91       0.0001
     89  N         12.1050    6.5470   26.6440 N.3    94  ILE94      -0.1245
     90  CA        11.4880    5.8050   25.5300 C.3    94  ILE94       0.1561
     91  C         11.8640    6.3940   24.1720 C.2    94  ILE94       0.2260
     92  O         12.1520    5.6670   23.2180 O.2    94  ILE94      -0.2867
     93  CB         9.9480    5.7840   25.6520 C.3    94  ILE94       0.0252
     94  CG1        9.5390    4.8930   26.8230 C.3    94  ILE94       0.0019
     95  CG2        9.3030    5.2850   24.3610 C.3    94  ILE94       0.0019
     96  CD1        8.1910    5.2520   27.4150 C.3    94  ILE94       0.0001
     97  N          4.8640   11.3980   18.3070 N.3   122  PHE122     -0.1227
     98  CA         4.5400   12.7370   18.8560 C.3   122  PHE122      0.1736
     99  C          5.3180   13.8450   18.1700 C.2   122  PHE122      0.2595
    100  O          4.7620   14.8910   17.8500 O.2   122  PHE122     -0.2718
    101  CB         4.7860   12.8150   20.3650 C.3   122  PHE122      0.0547
    102  CG         4.7420   14.2260   20.9090 C.ar  122  PHE122     -0.0202
    103  CD1        3.5220   14.8420   21.1990 C.ar  122  PHE122     -0.0042
    104  CD2        5.9190   14.9300   21.1330 C.ar  122  PHE122     -0.0042
    105  CE1        3.4820   16.1430   21.6980 C.ar  122  PHE122     -0.0003
    106  CE2        5.8880   16.2380   21.6240 C.ar  122  PHE122     -0.0003
    107  CZ         4.6710   16.8350   21.9030 C.ar  122  PHE122     -0.0000
    108  N          6.6140   13.6210   17.9410 N.am  123  TYR123     -0.1976
    109  CA         7.4840   14.6720   17.4180 C.3   123  TYR123      0.1639
    110  C          7.1490   15.0750   15.9770 C.2   123  TYR123      0.2290
    111  O          7.6040   16.1140   15.4950 O.2   123  TYR123     -0.2864
    112  CB         8.9730   14.3030   17.6330 C.3   123  TYR123      0.0560
    113  CG         9.2610   14.0180   19.0940 C.ar  123  TYR123     -0.0198
    114  CD1        9.5160   15.0680   19.9920 C.ar  123  TYR123     -0.0009
    115  CD2        9.2200   12.7100   19.5960 C.ar  123  TYR123     -0.0009
    116  CE1        9.7430   14.8160   21.3450 C.ar  123  TYR123      0.0417
    117  CE2        9.4430   12.4490   20.9460 C.ar  123  TYR123      0.0417
    118  CZ         9.7020   13.4990   21.8120 C.ar  123  TYR123      0.1957
    119  OH         9.9410   13.2430   23.1340 O.3   123  TYR123     -0.2866
    120  N          1.4160   21.0540   25.5310 N.3   134  VAL134     -0.1245
    121  CA         0.6760   19.8600   25.9520 C.3   134  VAL134      0.1561
    122  C          0.1760   20.0690   27.3660 C.2   134  VAL134      0.2260
    123  O          0.9750   20.2610   28.2820 O.2   134  VAL134     -0.2867
    124  CB         1.5480   18.5880   25.8910 C.3   134  VAL134      0.0252
    125  CG1        0.7510   17.3730   26.3620 C.3   134  VAL134      0.0019
    126  CG2        2.0760   18.3690   24.4770 C.3   134  VAL134      0.0019
    127  N          3.2610   21.3770   29.4380 N.3   146  TRP146     -0.1241
    128  CA         4.5700   21.1750   28.8120 C.3   146  TRP146      0.1605
    129  C          4.5720   22.0410   27.5890 C.2   146  TRP146      0.2264
    130  O          3.5250   22.2210   26.9690 O.2   146  TRP146     -0.2867
    131  CB         4.6670   19.6960   28.4470 C.3   146  TRP146      0.0550
    132  CG         5.8650   19.2310   27.6630 C.ar  146  TRP146      0.0003
    133  CD1        6.9520   18.4960   28.1320 C.ar  146  TRP146      0.0946
    134  CD2        6.0900   19.3790   26.2190 C.ar  146  TRP146      0.0152
    135  NE1        7.8140   18.1900   27.1020 N.ar  146  TRP146     -0.2442
    136  CE2        7.3560   18.7060   25.9290 C.ar  146  TRP146      0.0810
    137  CE3        5.3870   19.9770   25.1750 C.ar  146  TRP146      0.0012
    138  CZ2        7.8810   18.6560   24.6460 C.ar  146  TRP146      0.0191
    139  CZ3        5.9290   19.9160   23.8790 C.ar  146  TRP146      0.0001
    140  CH2        7.1380   19.2750   23.6250 C.ar  146  TRP146      0.0015
    141  N         -5.1550   14.3430   28.0690 N.3   168  THR168     -0.1218
    142  CA        -4.1280   15.1610   27.4420 C.3   168  THR168      0.1862
    143  C         -4.6890   16.0400   26.3450 C.2   168  THR168      0.2287
    144  O         -5.5370   15.5990   25.5650 O.2   168  THR168     -0.2866
    145  CB        -3.0320   14.2600   26.8370 C.3   168  THR168      0.1770
    146  OG1       -2.3950   13.5360   27.8920 O.3   168  THR168     -0.2211
    147  CG2       -2.0050   15.0660   26.0760 C.3   168  THR168      0.0375
    148  N         -3.1080   18.2210   23.2520 N.3   170  VAL170     -0.1245
    149  CA        -1.9580   18.6620   22.4810 C.3   170  VAL170      0.1561
    150  C         -2.3810   19.8570   21.6300 C.2   170  VAL170      0.2260
    151  O         -3.2090   19.7160   20.7310 O.2   170  VAL170     -0.2867
    152  CB        -1.4080   17.5410   21.5960 C.3   170  VAL170      0.0252
    153  CG1       -0.2690   18.0660   20.7340 C.3   170  VAL170      0.0019
    154  CG2       -0.9580   16.3580   22.4650 C.3   170  VAL170      0.0019
@<TRIPOS>BOND
     1   111   110    2
     2   110   109    1
     3     1     2    1
     4     7     6    1
     5     6     5    1
     6     6     8    1
     7   109   112    1
     8   109   108    1
     9     5     2    1
    10     2     3    1
    11   112   113    1
    12   100    99    2
    13     3     4    2
    14   108    99   am
    15    99    98    1
    16    97    98    1
    17    98   101    1
    18   113   115   ar
    19   113   114   ar
    20     9    10    1
    21   115   117   ar
    22    15    14    2
    23    16    14   am
    24   114   116   ar
    25    14    13    1
    26   101   102    1
    27    10    13    1
    28    10    11    1
    29   151   150    2
    30   153   152    1
    31   102   104   ar
    32   102   103   ar
    33   117   118   ar
    34   104   106   ar
    35   103   105   ar
    36    17    11   am
    37    17    18    1
    38   116   118   ar
    39    21    22    1
    40    21    18    1
    41   152   154    1
    42   152   149    1
    43   106   107   ar
    44   150   149    1
    45    11    12    2
    46   105   107   ar
    47   118   119    1
    48    18    19    1
    49    19    20    2
    50   149   148    1
    51    92    91    2
    52   140   139   ar
    53   140   138   ar
    54   139   137   ar
    55    91    90    1
    56    41    38    1
    57    41    42    1
    58    44    42   ar
    59    37    38    1
    60    95    93    1
    61   126   124    1
    62   138   136   ar
    63    38    39    1
    64    23    24    1
    65    42    43   ar
    66   137   134   ar
    67    90    93    1
    68    90    89    1
    69   120   121    1
    70   144   143    2
    71    93    94    1
    72    84    83    2
    73   124   121    1
    74   124   125    1
    75   136   134   ar
    76   136   135   ar
    77   121   122    1
    78   147   145    1
    79    27    24    1
    80    24    25    1
    81    39    40    2
    82   134   132   ar
    83   143   142    1
    84    25    26    2
    85    94    96    1
    86   145   142    1
    87   145   146    1
    88    83    82    1
    89   130   129    2
    90   135   133   ar
    91    88    86    1
    92   122   123    2
    93    85    82    1
    94    85    86    1
    95   142   141    1
    96   129   128    1
    97    64    63    1
    98    28    29    1
    99   132   133   ar
   100   132   131    1
   101    82    81    1
   102    87    86    1
   103    36    35    1
   104    63    62    1
   105    35    34    1
   106   131   128    1
   107   128   127    1
   108    29    32    1
   109    29    30    1
   110    32    33    1
   111    62    61    1
   112    34    33    1
   113    45    46    1
   114    80    78    1
   115    76    75    2
   116    30    31    2
   117    51    49    1
   118    68    67    2
   119    53    54    1
   120    53    47   am
   121    61    58    1
   122    54    55    1
   123    74    75    1
   124    74    77    1
   125    74    73    1
   126    46    49    1
   127    46    47    1
   128    49    50    1
   129    78    77    1
   130    78    79    1
   131    55    57   am
   132    55    56    2
   133    67    73   am
   134    67    66    1
   135    57    58    1
   136    47    48    2
   137    58    59    1
   138    69    66    1
   139    69    70    1
   140    66    65    1
   141    70    71   ar
   142    70    72   ar
   143    50    52    1
   144    59    60    2
