@<TRIPOS>MOLECULE
tmp/4cwsA00.pdb
 162 152 0 0 0
SMALL
GASTEIGER

@<TRIPOS>ATOM
      1  N         -0.6990   11.8760   16.4400 N.3    32  LEU32      -0.1245
      2  CA        -1.2310   12.4080   17.7060 C.3    32  LEU32       0.1561
      3  C         -2.5130   11.6820   18.1400 C.2    32  LEU32       0.2260
      4  O         -2.7090   11.4120   19.3360 O.2    32  LEU32      -0.2867
      5  CB        -1.4620   13.9200   17.5980 C.3    32  LEU32       0.0270
      6  CG        -0.1550   14.6270   17.1990 C.3    32  LEU32       0.0019
      7  CD1       -0.3970   16.1000   16.9680 C.3    32  LEU32       0.0001
      8  CD2        0.9240   14.4580   18.2680 C.3    32  LEU32       0.0001
      9  N         -1.3460    8.4160   19.4290 N.3    35  ASN35      -0.1225
     10  CA        -0.8470    8.6330   20.8240 C.3    35  ASN35       0.1785
     11  C         -2.0300    8.7150   21.8260 C.2    35  ASN35       0.2597
     12  O         -1.9970    8.1070   22.8970 O.2    35  ASN35      -0.2718
     13  CB        -0.0300    9.9410   20.9570 C.3    35  ASN35       0.1169
     14  CG         1.3040    9.8920   20.2390 C.2    35  ASN35       0.2627
     15  OD1        1.7490    8.8270   19.8290 O.2    35  ASN35      -0.2716
     16  ND2        1.9590   11.0620   20.0820 N.am   35  ASN35      -0.0877
     17  N         -3.0570    9.4870   21.4700 N.am   36  SER36      -0.1952
     18  CA        -4.2550    9.6320   22.3100 C.3    36  SER36       0.1924
     19  C         -4.9110    8.2700   22.5130 C.2    36  SER36       0.2314
     20  O         -5.2760    7.9150   23.6370 O.2    36  SER36      -0.2863
     21  CB        -5.2510   10.5930   21.6580 C.3    36  SER36       0.2116
     22  OG        -4.8160   11.9340   21.7580 O.3    36  SER36      -0.2180
     23  N         -3.0280    6.2750   25.0230 N.3    39  ALA39      -0.1245
     24  CA        -3.1910    6.8270   26.3790 C.3    39  ALA39       0.1562
     25  C         -4.5380    6.4310   26.9570 C.2    39  ALA39       0.2260
     26  O         -4.6680    6.2720   28.1900 O.2    39  ALA39      -0.2867
     27  CB        -3.0440    8.3400   26.3650 C.3    39  ALA39       0.0290
     28  N         -4.4330    2.8650   28.0340 N.3    42  LYS42      -0.1245
     29  CA        -3.6460    2.7990   29.2660 C.3    42  LYS42       0.1561
     30  C         -4.4890    3.1010   30.5120 C.2    42  LYS42       0.2260
     31  O         -4.3320    2.4510   31.5630 O.2    42  LYS42      -0.2867
     32  CB        -2.4890    3.7680   29.1580 C.3    42  LYS42       0.0271
     33  CG        -1.2680    3.4370   30.0080 C.3    42  LYS42       0.0035
     34  CD        -0.0680    4.3100   29.6060 C.3    42  LYS42       0.0206
     35  CE         0.7150    3.7400   28.4240 C.3    42  LYS42       0.1093
     36  NZ         2.0560    4.4010   28.2950 N.3    42  LYS42      -0.1314
     37  N         -7.5730   14.3990   24.6230 N.3    77  ASP77      -0.1239
     38  CA        -8.0230   13.0690   25.0070 C.3    77  ASP77       0.1674
     39  C         -8.2380   13.0050   26.4870 C.2    77  ASP77       0.2266
     40  O         -7.6400   13.7680   27.2140 O.2    77  ASP77      -0.2867
     41  CB        -7.0380   11.9640   24.5610 C.3    77  ASP77       0.1410
     42  CG        -5.6810   12.0640   25.2410 C.2    77  ASP77       0.3668
     43  OD1       -5.5810   11.7750   26.4650 O.co2  77  ASP77      -0.2456
     44  OD2       -4.6940   12.4030   24.5300 O.co2  77  ASP77      -0.2456
     45  N         -4.7960    8.5100   29.9710 N.3    80  ILE80      -0.1231
     46  CA        -4.2680    8.4380   31.3530 C.3    80  ILE80       0.1692
     47  C         -3.5320    9.6880   31.8490 C.2    80  ILE80       0.2593
     48  O         -3.4520    9.9230   33.0640 O.2    80  ILE80      -0.2718
     49  CB        -3.3860    7.1890   31.5430 C.3    80  ILE80       0.0266
     50  CG1       -3.1020    6.9370   33.0360 C.3    80  ILE80       0.0019
     51  CG2       -2.1100    7.2870   30.6990 C.3    80  ILE80       0.0020
     52  CD1       -2.7840    5.4930   33.3780 C.3    80  ILE80       0.0001
     53  N         -2.9800   10.4840   30.9320 N.am   81  GLY81      -0.1942
     54  CA        -2.2970   11.6880   31.3450 C.3    81  GLY81       0.2014
     55  C         -0.8440   11.3660   31.6070 C.2    81  GLY81       0.2638
     56  O         -0.4080   10.2110   31.5460 O.2    81  GLY81      -0.2714
     57  N         -0.0810   12.4070   31.8960 N.am   82  MET82      -0.1976
     58  CA         1.3280   12.2580   32.1150 C.3    82  MET82       0.1605
     59  C          1.6810   12.9590   33.4260 C.2    82  MET82       0.2287
     60  O          1.1520   14.0490   33.7340 O.2    82  MET82      -0.2864
     61  CB         2.1210   12.8200   30.9170 C.3    82  MET82       0.0413
     62  CG         1.9820   11.9980   29.6470 C.3    82  MET82       0.0598
     63  SD         2.7140   12.7600   28.2010 S.3    82  MET82      -0.1393
     64  CE         1.5470   14.0990   27.8930 C.3    82  MET82       0.0692
     65  N          7.0180   11.8430   33.9760 N.3    86  ASP86      -0.1225
     66  CA         6.8960   11.4760   32.5600 C.3    86  ASP86       0.1805
     67  C          7.4720   12.6050   31.7110 C.2    86  ASP86       0.2597
     68  O          8.2530   12.3640   30.7780 O.2    86  ASP86      -0.2718
     69  CB         5.4340   11.2570   32.1250 C.3    86  ASP86       0.1424
     70  CG         4.8040    9.9550   32.6700 C.2    86  ASP86       0.3668
     71  OD1        5.5160    8.9500   32.8620 O.co2  86  ASP86      -0.2456
     72  OD2        3.5630    9.9370   32.8930 O.co2  86  ASP86      -0.2456
     73  N          7.0550   13.8350   32.0230 N.am   87  LEU87      -0.1979
     74  CA         7.3770   14.9920   31.2180 C.3    87  LEU87       0.1596
     75  C          8.8770   15.2990   31.1880 C.2    87  LEU87       0.2287
     76  O          9.4120   15.7000   30.1420 O.2    87  LEU87      -0.2864
     77  CB         6.5790   16.2080   31.7050 C.3    87  LEU87       0.0297
     78  CG         5.0700   16.2300   31.4900 C.3    87  LEU87       0.0022
     79  CD1        4.5450   17.5580   32.0230 C.3    87  LEU87       0.0001
     80  CD2        4.7110   16.1000   30.0090 C.3    87  LEU87       0.0001
     81  N         10.6670   10.2060   31.8840 N.3    90  ASN90      -0.1225
     82  CA        10.3010    8.9450   31.2090 C.3    90  ASN90       0.1785
     83  C         10.1320    9.0710   29.7210 C.2    90  ASN90       0.2597
     84  O         10.5220    8.1620   28.9870 O.2    90  ASN90      -0.2718
     85  CB         9.0610    8.2590   31.8240 C.3    90  ASN90       0.1169
     86  CG         9.2070    8.0530   33.3190 C.2    90  ASN90       0.2627
     87  OD1       10.3100    7.7670   33.7940 O.2    90  ASN90      -0.2716
     88  ND2        8.1090    8.2370   34.0740 N.am   90  ASN90      -0.0877
     89  N          9.5320   10.1840   29.2930 N.am   91  LEU91      -0.1980
     90  CA         9.3040   10.4580   27.8640 C.3    91  LEU91       0.1596
     91  C         10.6070   10.5590   27.0900 C.2    91  LEU91       0.2287
     92  O         10.6760   10.0700   25.9770 O.2    91  LEU91      -0.2864
     93  CB         8.5020   11.7540   27.6740 C.3    91  LEU91       0.0297
     94  CG         7.0320   11.7470   28.1060 C.3    91  LEU91       0.0022
     95  CD1        6.4760   13.1660   27.9880 C.3    91  LEU91       0.0001
     96  CD2        6.2210   10.7070   27.3100 C.3    91  LEU91       0.0001
     97  N         12.0370    6.8630   26.6880 N.3    94  ILE94      -0.1245
     98  CA        11.2730    6.3040   25.5400 C.3    94  ILE94       0.1561
     99  C         11.7440    6.8870   24.2060 C.2    94  ILE94       0.2260
    100  O         11.9970    6.1610   23.2550 O.2    94  ILE94      -0.2867
    101  CB         9.7560    6.5940   25.7050 C.3    94  ILE94       0.0252
    102  CG1        9.1900    5.8170   26.8960 C.3    94  ILE94       0.0019
    103  CG2        8.9690    6.3110   24.4080 C.3    94  ILE94       0.0019
    104  CD1        7.8690    6.3820   27.4040 C.3    94  ILE94       0.0001
    105  N          4.8250   11.6410   18.4000 N.3   122  PHE122     -0.1227
    106  CA         4.5530   13.0000   18.9310 C.3   122  PHE122      0.1736
    107  C          5.3490   14.0760   18.2070 C.2   122  PHE122      0.2595
    108  O          4.7870   15.1020   17.8280 O.2   122  PHE122     -0.2718
    109  CB         4.8310   13.0880   20.4560 C.3   122  PHE122      0.0547
    110  CG         4.8390   14.4970   20.9840 C.ar  122  PHE122     -0.0202
    111  CD1        3.6570   15.1460   21.2960 C.ar  122  PHE122     -0.0042
    112  CD2        6.0320   15.1850   21.1540 C.ar  122  PHE122     -0.0042
    113  CE1        3.6670   16.4650   21.7710 C.ar  122  PHE122     -0.0003
    114  CE2        6.0510   16.4930   21.6370 C.ar  122  PHE122     -0.0003
    115  CZ         4.8680   17.1480   21.9310 C.ar  122  PHE122     -0.0000
    116  N          6.6540   13.8500   17.9820 N.am  123  TYR123     -0.1976
    117  CA         7.5360   14.9170   17.4100 C.3   123  TYR123      0.1639
    118  C          7.1930   15.2470   15.9680 C.2   123  TYR123      0.2290
    119  O          7.6110   16.2930   15.4300 O.2   123  TYR123     -0.2864
    120  CB         9.0210   14.5690   17.5920 C.3   123  TYR123      0.0560
    121  CG         9.3050   14.2890   19.0540 C.ar  123  TYR123     -0.0198
    122  CD1        9.5940   15.3500   19.9640 C.ar  123  TYR123     -0.0009
    123  CD2        9.2040   12.9970   19.5590 C.ar  123  TYR123     -0.0009
    124  CE1        9.7940   15.0980   21.3350 C.ar  123  TYR123      0.0417
    125  CE2        9.4220   12.7360   20.9120 C.ar  123  TYR123      0.0417
    126  CZ         9.6850   13.7750   21.7890 C.ar  123  TYR123      0.1957
    127  OH         9.8760   13.4730   23.1130 O.3   123  TYR123     -0.2866
    128  N          1.6220   21.3200   25.6690 N.3   134  VAL134     -0.1245
    129  CA         0.8800   20.1330   26.0690 C.3   134  VAL134      0.1561
    130  C          0.4310   20.3540   27.5220 C.2   134  VAL134      0.2260
    131  O          1.2820   20.6150   28.4070 O.2   134  VAL134     -0.2867
    132  CB         1.7590   18.8520   25.9730 C.3   134  VAL134      0.0252
    133  CG1        0.9900   17.6300   26.4390 C.3   134  VAL134      0.0019
    134  CG2        2.3230   18.6620   24.5610 C.3   134  VAL134      0.0019
    135  N          3.5480   21.6120   29.5760 N.3   146  TRP146     -0.1241
    136  CA         4.8300   21.4250   28.9030 C.3   146  TRP146      0.1605
    137  C          4.8150   22.2410   27.6570 C.2   146  TRP146      0.2264
    138  O          3.7800   22.4070   27.0270 O.2   146  TRP146     -0.2867
    139  CB         4.9700   19.9340   28.5660 C.3   146  TRP146      0.0550
    140  CG         6.1630   19.4420   27.7630 C.ar  146  TRP146      0.0003
    141  CD1        7.2290   18.6560   28.2200 C.ar  146  TRP146      0.0946
    142  CD2        6.3740   19.5550   26.2990 C.ar  146  TRP146      0.0152
    143  NE1        8.0690   18.3210   27.1810 N.ar  146  TRP146     -0.2442
    144  CE2        7.6170   18.8420   26.0070 C.ar  146  TRP146      0.0810
    145  CE3        5.6640   20.1380   25.2480 C.ar  146  TRP146      0.0012
    146  CZ2        8.1220   18.7470   24.7160 C.ar  146  TRP146      0.0191
    147  CZ3        6.1950   20.0650   23.9530 C.ar  146  TRP146      0.0001
    148  CH2        7.3980   19.3840   23.6940 C.ar  146  TRP146      0.0015
    149  N         -4.8970   14.6930   28.3680 N.3   168  THR168     -0.1218
    150  CA        -3.9110   15.5260   27.6850 C.3   168  THR168      0.1862
    151  C         -4.5220   16.3520   26.5590 C.2   168  THR168      0.2287
    152  O         -5.3740   15.8540   25.8030 O.2   168  THR168     -0.2866
    153  CB        -2.8330   14.6110   27.0800 C.3   168  THR168      0.1770
    154  OG1       -2.2790   13.8190   28.1350 O.3   168  THR168     -0.2211
    155  CG2       -1.7170   15.3900   26.3930 C.3   168  THR168      0.0375
    156  N         -2.9390   18.5140   23.3920 N.3   170  VAL170     -0.1245
    157  CA        -1.7590   18.9050   22.6110 C.3   170  VAL170      0.1561
    158  C         -2.1740   20.1040   21.7590 C.2   170  VAL170      0.2260
    159  O         -3.0500   20.0130   20.8900 O.2   170  VAL170     -0.2867
    160  CB        -1.2610   17.7330   21.7240 C.3   170  VAL170      0.0252
    161  CG1       -0.1710   18.1800   20.7360 C.3   170  VAL170      0.0019
    162  CG2       -0.7680   16.5890   22.6000 C.3   170  VAL170      0.0019
@<TRIPOS>BOND
     1   119   118    2
     2   118   117    1
     3     1     2    1
     4     7     6    1
     5     6     5    1
     6     6     8    1
     7   117   120    1
     8   117   116    1
     9   120   121    1
    10     5     2    1
    11     2     3    1
    12   108   107    2
    13   116   107   am
    14     3     4    2
    15   107   106    1
    16   105   106    1
    17   106   109    1
    18   121   123   ar
    19   121   122   ar
    20     9    10    1
    21   123   125   ar
    22    15    14    2
    23   122   124   ar
    24    16    14   am
    25    14    13    1
    26   109   110    1
    27   161   160    1
    28    10    13    1
    29    10    11    1
    30   159   158    2
    31   125   126   ar
    32   110   112   ar
    33   110   111   ar
    34   112   114   ar
    35   111   113   ar
    36   124   126   ar
    37    17    11   am
    38    17    18    1
    39   114   115   ar
    40    21    22    1
    41    21    18    1
    42   160   162    1
    43   160   157    1
    44   158   157    1
    45   113   115   ar
    46   126   127    1
    47    11    12    2
    48    18    19    1
    49    19    20    2
    50   157   156    1
    51   100    99    2
    52   148   147   ar
    53   148   146   ar
    54   147   145   ar
    55    99    98    1
    56   103   101    1
    57    44    42   ar
    58    41    38    1
    59    41    42    1
    60   134   132    1
    61    37    38    1
    62   146   144   ar
    63    38    39    1
    64    23    24    1
    65    42    43   ar
    66   145   142   ar
    67    98   101    1
    68    98    97    1
    69   128   129    1
    70   101   102    1
    71   152   151    2
    72   132   129    1
    73   132   133    1
    74    92    91    2
    75   144   142   ar
    76   144   143   ar
    77   129   130    1
    78   142   140   ar
    79    27    24    1
    80    24    25    1
    81   155   153    1
    82    39    40    2
    83   151   150    1
    84   102   104    1
    85    25    26    2
    86   138   137    2
    87   153   150    1
    88   153   154    1
    89    91    90    1
    90   143   141   ar
    91    96    94    1
    92   130   131    2
    93   137   136    1
    94    93    90    1
    95    93    94    1
    96   150   149    1
    97   140   141   ar
    98   140   139    1
    99    90    89    1
   100    64    63    1
   101    95    94    1
   102    28    29    1
   103    63    62    1
   104    36    35    1
   105    35    34    1
   106   139   136    1
   107   136   135    1
   108    84    83    2
   109    32    29    1
   110    32    33    1
   111    29    30    1
   112    89    83   am
   113    34    33    1
   114    62    61    1
   115    83    82    1
   116    45    46    1
   117    80    78    1
   118    76    75    2
   119    30    31    2
   120    51    49    1
   121    68    67    2
   122    61    58    1
   123    53    54    1
   124    53    47   am
   125    75    74    1
   126    82    85    1
   127    82    81    1
   128    74    77    1
   129    74    73    1
   130    54    55    1
   131    46    49    1
   132    46    47    1
   133    78    77    1
   134    78    79    1
   135    49    50    1
   136    56    55    2
   137    55    57   am
   138    67    73   am
   139    67    66    1
   140    85    86    1
   141    47    48    2
   142    57    58    1
   143    58    59    1
   144    69    66    1
   145    69    70    1
   146    66    65    1
   147    70    71   ar
   148    70    72   ar
   149    50    52    1
   150    86    87    2
   151    86    88   am
   152    59    60    2
