@<TRIPOS>MOLECULE
tmp/4cwtA00.pdb
 182 173 0 0 0
SMALL
GASTEIGER

@<TRIPOS>ATOM
      1  N         16.5770   19.1590   26.0470 N.3     7  PHE7       -0.1241
      2  CA        16.3860   17.8370   25.4440 C.3     7  PHE7        0.1605
      3  C         17.7500   17.1530   25.4320 C.2     7  PHE7        0.2264
      4  O         18.7850   17.8210   25.3340 O.2     7  PHE7       -0.2867
      5  CB        15.8980   17.9350   23.9950 C.3     7  PHE7        0.0534
      6  CG        14.4540   18.3230   23.8490 C.ar    7  PHE7       -0.0203
      7  CD1       13.4350   17.4020   24.1010 C.ar    7  PHE7       -0.0042
      8  CD2       14.1080   19.5960   23.4050 C.ar    7  PHE7       -0.0042
      9  CE1       12.1070   17.7540   23.9270 C.ar    7  PHE7       -0.0003
     10  CE2       12.7790   19.9560   23.2460 C.ar    7  PHE7       -0.0003
     11  CZ        11.7690   19.0380   23.5140 C.ar    7  PHE7       -0.0000
     12  N         -1.7560    8.3340   19.0860 N.3    36  ASN36      -0.1240
     13  CA        -1.3680    8.5600   20.4890 C.3    36  ASN36       0.1653
     14  C         -2.5540    8.6420   21.4430 C.2    36  ASN36       0.2266
     15  O         -2.5040    8.0630   22.5330 O.2    36  ASN36      -0.2867
     16  CB        -0.4940    9.8120   20.6680 C.3    36  ASN36       0.1155
     17  CG         0.8850    9.6580   20.0640 C.2    36  ASN36       0.2627
     18  OD1        1.2880    8.5560   19.6460 O.2    36  ASN36      -0.2716
     19  ND2        1.6280   10.7700   20.0100 N.am   36  ASN36      -0.0877
     20  N         -4.0620    5.2240   22.0420 N.3    39  ASP39      -0.1225
     21  CA        -3.2160    4.4620   22.9840 C.3    39  ASP39       0.1805
     22  C         -3.4360    4.8970   24.4440 C.2    39  ASP39       0.2597
     23  O         -3.5100    4.0580   25.3430 O.2    39  ASP39      -0.2718
     24  CB        -1.7240    4.6500   22.6650 C.3    39  ASP39       0.1424
     25  CG        -1.3350    4.1520   21.2990 C.2    39  ASP39       0.3668
     26  OD1       -2.0910    3.3650   20.6790 O.co2  39  ASP39      -0.2456
     27  OD2       -0.2550    4.5870   20.8320 O.co2  39  ASP39      -0.2456
     28  N         -3.5230    6.2140   24.6780 N.am   40  ALA40      -0.1979
     29  CA        -3.7320    6.7340   26.0380 C.3    40  ALA40       0.1597
     30  C         -5.1220    6.3150   26.5470 C.2    40  ALA40       0.2287
     31  O         -5.2930    5.9860   27.7290 O.2    40  ALA40      -0.2864
     32  CB        -3.5690    8.2560   26.0660 C.3    40  ALA40       0.0319
     33  N         -5.0750    2.6450   27.5290 N.3    43  LYS43      -0.1245
     34  CA        -4.4280    2.4560   28.8320 C.3    43  LYS43       0.1561
     35  C         -5.3740    2.6850   30.0230 C.2    43  LYS43       0.2260
     36  O         -5.4440    1.8520   30.9450 O.2    43  LYS43      -0.2867
     37  CB        -3.1720    3.3310   28.9630 C.3    43  LYS43       0.0271
     38  CG        -2.0050    2.8410   28.0980 C.3    43  LYS43       0.0035
     39  CD        -0.8660    3.8560   28.0910 C.3    43  LYS43       0.0206
     40  CE         0.1320    3.5570   26.9840 C.3    43  LYS43       0.1093
     41  NZ         1.1620    4.6400   26.8930 N.3    43  LYS43      -0.1314
     42  N         -5.1910    8.2770   29.7050 N.3    81  ILE81      -0.1231
     43  CA        -4.5800    8.1010   31.0170 C.3    81  ILE81       0.1692
     44  C         -3.7620    9.3330   31.4530 C.2    81  ILE81       0.2593
     45  O         -3.4890    9.5280   32.6480 O.2    81  ILE81      -0.2718
     46  CB        -3.7540    6.7960   31.0390 C.3    81  ILE81       0.0266
     47  CG1       -3.4050    6.3760   32.4680 C.3    81  ILE81       0.0019
     48  CG2       -2.5270    6.9210   30.1230 C.3    81  ILE81       0.0020
     49  CD1       -3.0500    4.9010   32.5940 C.3    81  ILE81       0.0001
     50  N         -3.3910   10.1730   30.4950 N.am   82  GLY82      -0.1942
     51  CA        -2.5720   11.3470   30.7990 C.3    82  GLY82       0.2014
     52  C         -1.1290   11.0060   31.1530 C.2    82  GLY82       0.2638
     53  O         -0.6750    9.8560   31.0270 O.2    82  GLY82      -0.2714
     54  N         -0.4050   12.0160   31.6130 N.am   83  MET83      -0.1976
     55  CA         1.0360   11.9090   31.8040 C.3    83  MET83       0.1605
     56  C          1.4380   12.4870   33.1540 C.2    83  MET83       0.2287
     57  O          0.8970   13.5020   33.5800 O.2    83  MET83      -0.2864
     58  CB         1.7770   12.6400   30.6850 C.3    83  MET83       0.0413
     59  CG         1.6960   11.9410   29.3300 C.3    83  MET83       0.0598
     60  SD         2.5040   12.8400   27.9910 S.3    83  MET83      -0.1393
     61  CE         1.5090   14.3210   27.9120 C.3    83  MET83       0.0692
     62  N          6.9460   11.2340   33.4510 N.3    87  ASP87      -0.1225
     63  CA         6.7980   11.0520   32.0020 C.3    87  ASP87       0.1805
     64  C          7.4420   12.2110   31.2450 C.2    87  ASP87       0.2597
     65  O          8.2830   12.0060   30.3620 O.2    87  ASP87      -0.2718
     66  CB         5.3180   10.9660   31.6070 C.3    87  ASP87       0.1424
     67  CG         4.7040    9.6100   31.8950 C.2    87  ASP87       0.3668
     68  OD1        5.4430    8.6020   31.9300 O.co2  87  ASP87      -0.2456
     69  OD2        3.4660    9.5510   32.0650 O.co2  87  ASP87      -0.2456
     70  N          7.0270   13.4260   31.5990 N.am   88  LEU88      -0.1979
     71  CA         7.4510   14.6400   30.8920 C.3    88  LEU88       0.1596
     72  C          8.9340   14.9520   31.0590 C.2    88  LEU88       0.2287
     73  O          9.5400   15.5690   30.1880 O.2    88  LEU88      -0.2864
     74  CB         6.6190   15.8350   31.3590 C.3    88  LEU88       0.0297
     75  CG         5.1140   15.7740   31.1190 C.3    88  LEU88       0.0022
     76  CD1        4.4200   16.9480   31.7950 C.3    88  LEU88       0.0001
     77  CD2        4.8100   15.7560   29.6280 C.3    88  LEU88       0.0001
     78  N          9.5530    9.6240   28.9410 N.3    92  LEU92      -0.1231
     79  CA         9.3770    9.7630   27.4980 C.3    92  LEU92       0.1693
     80  C         10.6820   10.1120   26.7830 C.2    92  LEU92       0.2592
     81  O         10.8330    9.8640   25.5800 O.2    92  LEU92      -0.2718
     82  CB         8.2750   10.7780   27.1890 C.3    92  LEU92       0.0284
     83  CG         6.9240   10.3440   27.7520 C.3    92  LEU92       0.0019
     84  CD1        5.9370   11.4970   27.6250 C.3    92  LEU92       0.0001
     85  CD2        6.4230    9.0830   27.0360 C.3    92  LEU92       0.0001
     86  N         11.6170   10.6890   27.5320 N.am   93  GLY93      -0.1957
     87  CA        12.9700   10.9520   27.0320 C.3    93  GLY93       0.1869
     88  C         13.7920    9.6850   26.8500 C.2    93  GLY93       0.2309
     89  O         14.5440    9.5510   25.8640 O.2    93  GLY93      -0.2863
     90  N         12.4660    6.6230   26.2890 N.3    95  ILE95      -0.1231
     91  CA        11.8430    6.0040   25.1000 C.3    95  ILE95       0.1692
     92  C         12.2430    6.7150   23.7860 C.2    95  ILE95       0.2591
     93  O         12.6120    6.0660   22.7970 O.2    95  ILE95      -0.2718
     94  CB        10.3070    5.9520   25.2530 C.3    95  ILE95       0.0266
     95  CG1        9.9220    4.9530   26.3470 C.3    95  ILE95       0.0019
     96  CG2        9.6400    5.5580   23.9450 C.3    95  ILE95       0.0020
     97  CD1        8.5440    5.2070   26.9130 C.3    95  ILE95       0.0001
     98  N         12.1830    8.0460   23.7860 N.am   96  ALA96      -0.1980
     99  CA        12.5790    8.8320   22.6140 C.3    96  ALA96       0.1597
    100  C         14.0340    8.5890   22.1640 C.2    96  ALA96       0.2287
    101  O         14.3220    8.6170   20.9540 O.2    96  ALA96      -0.2864
    102  CB        12.3090   10.3290   22.8320 C.3    96  ALA96       0.0319
    103  N          7.8800    4.8860   18.1970 N.3   120  GLY120     -0.1210
    104  CA         7.4080    5.4190   19.4620 C.3   120  GLY120      0.1956
    105  C          7.6820    6.8920   19.6700 C.2   120  GLY120      0.2611
    106  O          7.5740    7.4040   20.7860 O.2   120  GLY120     -0.2717
    107  N          8.0300    7.5780   18.5870 N.am  121  VAL121     -0.1979
    108  CA         8.2580    9.0130   18.6330 C.3   121  VAL121      0.1595
    109  C          7.3300    9.8030   17.7060 C.2   121  VAL121      0.2287
    110  O          7.6550   10.9250   17.3230 O.2   121  VAL121     -0.2864
    111  CB         9.7380    9.3420   18.3170 C.3   121  VAL121      0.0276
    112  CG1       10.6230    8.9710   19.4910 C.3   121  VAL121      0.0022
    113  CG2       10.1980    8.6350   17.0550 C.3   121  VAL121      0.0022
    114  N          4.7390   11.4720   18.2950 N.3   123  PHE123     -0.1227
    115  CA         4.4430   12.7930   18.8910 C.3   123  PHE123      0.1736
    116  C          5.1990   13.9180   18.1950 C.2   123  PHE123      0.2595
    117  O          4.6350   14.9690   17.9060 O.2   123  PHE123     -0.2718
    118  CB         4.7740   12.8000   20.3940 C.3   123  PHE123      0.0547
    119  CG         4.7180   14.1750   21.0200 C.ar  123  PHE123     -0.0202
    120  CD1        3.5080   14.7810   21.2570 C.ar  123  PHE123     -0.0042
    121  CD2        5.8890   14.8580   21.3510 C.ar  123  PHE123     -0.0042
    122  CE1        3.4370   16.0560   21.8110 C.ar  123  PHE123     -0.0003
    123  CE2        5.8260   16.1250   21.9370 C.ar  123  PHE123     -0.0003
    124  CZ         4.5990   16.7220   22.1630 C.ar  123  PHE123     -0.0000
    125  N          6.4790   13.6890   17.9140 N.am  124  TYR124     -0.1976
    126  CA         7.3380   14.7300   17.3390 C.3   124  TYR124      0.1639
    127  C          7.0140   15.1070   15.9010 C.2   124  TYR124      0.2290
    128  O          7.4740   16.1470   15.4170 O.2   124  TYR124     -0.2864
    129  CB         8.7990   14.3230   17.4750 C.3   124  TYR124      0.0560
    130  CG         9.2420   14.3750   18.9040 C.ar  124  TYR124     -0.0198
    131  CD1        9.5510   15.5950   19.4980 C.ar  124  TYR124     -0.0009
    132  CD2        9.3160   13.2230   19.6720 C.ar  124  TYR124     -0.0009
    133  CE1        9.9410   15.6610   20.8230 C.ar  124  TYR124      0.0417
    134  CE2        9.7070   13.2720   21.0110 C.ar  124  TYR124      0.0417
    135  CZ        10.0300   14.4990   21.5660 C.ar  124  TYR124      0.1957
    136  OH        10.4330   14.5750   22.8690 O.3   124  TYR124     -0.2866
    137  N          1.3840   21.1780   25.5810 N.3   135  VAL135     -0.1245
    138  CA         0.6040   20.0120   25.9990 C.3   135  VAL135      0.1561
    139  C          0.1180   20.2050   27.4360 C.2   135  VAL135      0.2260
    140  O          0.9250   20.4440   28.3440 O.2   135  VAL135     -0.2867
    141  CB         1.4250   18.7190   25.9030 C.3   135  VAL135      0.0252
    142  CG1        0.5820   17.5150   26.3040 C.3   135  VAL135      0.0019
    143  CG2        1.9520   18.5320   24.4870 C.3   135  VAL135      0.0019
    144  N          3.3050   21.3020   29.4170 N.3   147  TRP147     -0.1241
    145  CA         4.6110   21.0960   28.7950 C.3   147  TRP147      0.1605
    146  C          4.6170   21.9610   27.5780 C.2   147  TRP147      0.2264
    147  O          3.5810   22.1060   26.9180 O.2   147  TRP147     -0.2867
    148  CB         4.7260   19.6260   28.3980 C.3   147  TRP147      0.0550
    149  CG         5.9710   19.2220   27.6210 C.ar  147  TRP147      0.0003
    150  CD1        7.1090   18.6000   28.1170 C.ar  147  TRP147      0.0946
    151  CD2        6.2250   19.3840   26.1650 C.ar  147  TRP147      0.0152
    152  NE1        8.0210   18.3690   27.1070 N.ar  147  TRP147     -0.2442
    153  CE2        7.5500   18.8210   25.9160 C.ar  147  TRP147      0.0810
    154  CE3        5.5050   19.9150   25.0930 C.ar  147  TRP147      0.0012
    155  CZ2        8.1150   18.7980   24.6390 C.ar  147  TRP147      0.0191
    156  CZ3        6.0870   19.8940   23.8120 C.ar  147  TRP147      0.0001
    157  CH2        7.3610   19.3480   23.5950 C.ar  147  TRP147      0.0015
    158  N         12.7000   22.4850   26.4550 N.3   155  PHE155     -0.1241
    159  CA        11.2740   22.4750   26.7170 C.3   155  PHE155      0.1605
    160  C         11.0280   22.9940   28.1240 C.2   155  PHE155      0.2264
    161  O         11.9450   23.0320   28.9530 O.2   155  PHE155     -0.2867
    162  CB        10.6590   21.0770   26.5100 C.3   155  PHE155      0.0534
    163  CG        11.1720   20.0140   27.4490 C.ar  155  PHE155     -0.0203
    164  CD1       12.3240   19.2990   27.1470 C.ar  155  PHE155     -0.0042
    165  CD2       10.4790   19.7030   28.6300 C.ar  155  PHE155     -0.0042
    166  CE1       12.7850   18.2960   28.0050 C.ar  155  PHE155     -0.0003
    167  CE2       10.9300   18.7090   29.4790 C.ar  155  PHE155     -0.0003
    168  CZ        12.0870   18.0020   29.1690 C.ar  155  PHE155     -0.0000
    169  N         -5.0840   14.2880   28.0060 N.3   169  THR169     -0.1218
    170  CA        -4.0250   15.0460   27.3380 C.3   169  THR169      0.1862
    171  C         -4.6230   15.9130   26.2510 C.2   169  THR169      0.2287
    172  O         -5.4760   15.4670   25.4670 O.2   169  THR169     -0.2866
    173  CB        -2.9760   14.0960   26.7130 C.3   169  THR169      0.1770
    174  OG1       -2.3320   13.3510   27.7490 O.3   169  THR169     -0.2211
    175  CG2       -1.9300   14.8700   25.8990 C.3   169  THR169      0.0375
    176  N         -3.1960   18.3800   23.2870 N.3   171  VAL171     -0.1245
    177  CA        -2.0530   18.8300   22.4850 C.3   171  VAL171      0.1561
    178  C         -2.4700   20.0540   21.6850 C.2   171  VAL171      0.2260
    179  O         -3.3300   19.9580   20.8020 O.2   171  VAL171     -0.2867
    180  CB        -1.5610   17.7270   21.5200 C.3   171  VAL171      0.0252
    181  CG1       -0.3930   18.2340   20.6850 C.3   171  VAL171      0.0019
    182  CG2       -1.1470   16.4750   22.2910 C.3   171  VAL171      0.0019
@<TRIPOS>BOND
     1   128   127    2
     2   127   126    1
     3   113   111    1
     4   110   109    2
     5   126   129    1
     6   126   125    1
     7   129   130    1
     8   109   108    1
     9   117   116    2
    10   125   116   am
    11   116   115    1
    12   103   104    1
    13   114   115    1
    14   111   108    1
    15   111   112    1
    16   107   108    1
    17   107   105   am
    18   115   118    1
    19   130   131   ar
    20   130   132   ar
    21    12    13    1
    22   104   105    1
    23   131   133   ar
    24    18    17    2
    25   105   106    2
    26   132   134   ar
    27    19    17   am
    28    17    16    1
    29   118   119    1
    30    13    16    1
    31    13    14    1
    32    26    25   ar
    33   181   180    1
    34   179   178    2
    35   133   135   ar
    36    27    25   ar
    37   101   100    2
    38   134   135   ar
    39   119   120   ar
    40   119   121   ar
    41   120   122   ar
    42    25    24    1
    43   121   123   ar
    44    14    15    2
    45   180   182    1
    46   180   177    1
    47   135   136    1
    48   178   177    1
    49   122   124   ar
    50   123   124   ar
    51    20    21    1
    52   100    99    1
    53   177   176    1
    54    99   102    1
    55    99    98    1
    56    24    21    1
    57    93    92    2
    58    21    22    1
    59    10     8   ar
    60    10    11   ar
    61     8     6   ar
    62    11     9   ar
    63   157   156   ar
    64   157   155   ar
    65    98    92   am
    66    92    91    1
    67   156   154   ar
    68     6     5    1
    69     6     7   ar
    70     9     7   ar
    71    96    94    1
    72     5     2    1
    73    22    28   am
    74    22    23    2
    75   143   141    1
    76   155   153   ar
    77    28    29    1
    78   154   151   ar
    79    91    94    1
    80    91    90    1
    81    94    95    1
    82     4     3    2
    83     3     2    1
    84     2     1    1
    85   172   171    2
    86    81    80    2
    87   137   138    1
    88    89    88    2
    89   175   173    1
    90   141   138    1
    91   141   142    1
    92   153   151   ar
    93   153   152   ar
    94   138   139    1
    95    29    32    1
    96    29    30    1
    97   151   149   ar
    98   171   170    1
    99    95    97    1
   100   158   159    1
   101   162   159    1
   102   162   163    1
   103    30    31    2
   104   173   170    1
   105   173   174    1
   106   159   160    1
   107    80    79    1
   108    80    86   am
   109    88    87    1
   110    41    40    1
   111   147   146    2
   112    40    39    1
   113    87    86    1
   114    85    83    1
   115   152   150   ar
   116   164   163   ar
   117   164   166   ar
   118    82    79    1
   119    82    83    1
   120   170   169    1
   121   139   140    2
   122   163   165   ar
   123    79    78    1
   124    33    34    1
   125   146   145    1
   126   149   150   ar
   127   149   148    1
   128    84    83    1
   129    61    60    1
   130    60    59    1
   131   166   168   ar
   132    39    38    1
   133    38    37    1
   134   160   161    2
   135   148   145    1
   136   165   167   ar
   137   145   144    1
   138    34    37    1
   139    34    35    1
   140   168   167   ar
   141    59    58    1
   142    77    75    1
   143    42    43    1
   144    35    36    2
   145    48    46    1
   146    73    72    2
   147    65    64    2
   148    50    51    1
   149    50    44   am
   150    58    55    1
   151    51    52    1
   152    71    72    1
   153    71    74    1
   154    71    70    1
   155    43    46    1
   156    43    44    1
   157    53    52    2
   158    46    47    1
   159    75    74    1
   160    75    76    1
   161    52    54   am
   162    64    70   am
   163    64    63    1
   164    44    45    2
   165    66    67    1
   166    66    63    1
   167    54    55    1
   168    55    56    1
   169    67    68   ar
   170    67    69   ar
   171    63    62    1
   172    47    49    1
   173    56    57    2
