@<TRIPOS>MOLECULE
tmp/4cx1A02.pdb
 181 176 0 0 0
SMALL
GASTEIGER

@<TRIPOS>ATOM
      1  N         17.2810   11.5820   45.4980 N.3    40  VAL40      -0.1231
      2  CA        16.9580   11.8120   44.0860 C.3    40  VAL40       0.1692
      3  C         18.0860   11.2980   43.1790 C.2    40  VAL40       0.2591
      4  O         17.8440   10.6350   42.1640 O.2    40  VAL40      -0.2718
      5  CB        16.7090   13.3180   43.8280 C.3    40  VAL40       0.0266
      6  CG1       16.5690   13.5940   42.3290 C.3    40  VAL40       0.0020
      7  CG2       15.4720   13.7800   44.5980 C.3    40  VAL40       0.0020
      8  N         19.3220   11.5890   43.5640 N.am   41  LEU41      -0.1980
      9  CA        20.4750   11.1010   42.8140 C.3    41  LEU41       0.1596
     10  C         21.2390   10.0870   43.6570 C.2    41  LEU41       0.2287
     11  O         21.9710   10.4620   44.5670 O.2    41  LEU41      -0.2864
     12  CB        21.4030   12.2500   42.4490 C.3    41  LEU41       0.0297
     13  CG        20.8610   13.5250   41.7840 C.3    41  LEU41       0.0022
     14  CD1       21.9980   14.5420   41.7550 C.3    41  LEU41       0.0001
     15  CD2       20.3080   13.2480   40.3880 C.3    41  LEU41       0.0001
     16  N          8.9610    5.2730   36.7600 N.3   109  CYS109     -0.1235
     17  CA         7.8980    5.5270   35.8130 C.3   109  CYS109      0.1677
     18  C          6.5960    4.7770   36.1510 C.2   109  CYS109      0.2270
     19  O          6.5530    3.5300   36.1310 O.2   109  CYS109     -0.2867
     20  CB         8.3530    5.1460   34.4160 C.3   109  CYS109      0.0956
     21  SG         7.0330    5.3890   33.1980 S.3   109  CYS109     -0.0801
     22  N         14.9180   18.6400   28.7670 N.3   172  GLN172     -0.1245
     23  CA        13.7720   18.1460   28.0100 C.3   172  GLN172      0.1566
     24  C         13.7900   18.8250   26.6460 C.2   172  GLN172      0.2260
     25  O         14.4080   19.8820   26.4690 O.2   172  GLN172     -0.2867
     26  CB        12.4390   18.4450   28.7280 C.3   172  GLN172      0.0367
     27  CG        12.0840   17.5480   29.9110 C.3   172  GLN172      0.0905
     28  CD        10.6770   17.8250   30.4450 C.2   172  GLN172      0.2608
     29  OE1        9.7360   17.9840   29.6710 O.2   172  GLN172     -0.2717
     30  NE2       10.5390   17.9100   31.7800 N.am  172  GLN172     -0.0878
     31  N          5.9990   15.7310   27.0230 N.3   259  PRO259     -0.2116
     32  CA         7.0680   15.6110   27.9760 C.3   259  PRO259      0.1372
     33  C          8.1210   14.7080   27.3870 C.2   259  PRO259      0.2244
     34  O          7.8850   13.5100   27.2120 O.2   259  PRO259     -0.2868
     35  CB         6.3950   14.9200   29.1750 C.3   259  PRO259      0.0268
     36  CG         5.2350   14.1670   28.5870 C.3   259  PRO259      0.0207
     37  CD         4.9790   14.6840   27.2060 C.3   259  PRO259      0.0892
     38  N         12.0690   13.5930   27.7250 N.3   261  VAL261     -0.1245
     39  CA        13.3160   13.6280   28.4950 C.3   261  VAL261      0.1561
     40  C         14.5000   13.4270   27.5740 C.2   261  VAL261      0.2260
     41  O         14.5460   12.4390   26.8300 O.2   261  VAL261     -0.2867
     42  CB        13.3330   12.5480   29.5930 C.3   261  VAL261      0.0252
     43  CG1       14.7170   12.4490   30.2350 C.3   261  VAL261      0.0019
     44  CG2       12.3140   12.9070   30.6590 C.3   261  VAL261      0.0019
     45  N         18.0420   14.1940   28.6730 N.3   263  ASN263     -0.1225
     46  CA        19.3830   14.1790   29.3150 C.3   263  ASN263      0.1785
     47  C         19.8090   12.8330   29.9180 C.2   263  ASN263      0.2597
     48  O         20.8500   12.7410   30.5910 O.2   263  ASN263     -0.2718
     49  CB        19.5380   15.3180   30.3640 C.3   263  ASN263      0.1169
     50  CG        18.5410   15.2080   31.5370 C.2   263  ASN263      0.2627
     51  OD1       17.7420   14.2460   31.5810 O.2   263  ASN263     -0.2716
     52  ND2       18.5850   16.1580   32.4920 N.am  263  ASN263     -0.0877
     53  N         19.0230   11.7890   29.6830 N.am  264  MET264     -0.1979
     54  CA        19.3640   10.4690   30.2400 C.3   264  MET264      0.1605
     55  C         20.1420    9.5850   29.2770 C.2   264  MET264      0.2287
     56  O         20.0250    9.6900   28.0390 O.2   264  MET264     -0.2864
     57  CB        18.1300    9.7370   30.7550 C.3   264  MET264      0.0413
     58  CG        17.5060   10.4320   31.9620 C.3   264  MET264      0.0598
     59  SD        16.0570    9.5970   32.6530 S.3   264  MET264     -0.1393
     60  CE        16.8080    8.3570   33.6990 C.3   264  MET264      0.0692
     61  N         13.3410   10.4800   24.8460 N.3   278  PHE278     -0.1227
     62  CA        12.1110    9.6910   24.7840 C.3   278  PHE278      0.1736
     63  C         10.9650   10.5360   25.3090 C.2   278  PHE278      0.2596
     64  O         11.1760   11.4250   26.1450 O.2   278  PHE278     -0.2718
     65  CB        12.2540    8.4330   25.6310 C.3   278  PHE278      0.0547
     66  CG        12.5740    8.7050   27.1020 C.ar  278  PHE278     -0.0202
     67  CD1       11.5560    8.9650   28.0270 C.ar  278  PHE278     -0.0042
     68  CD2       13.8930    8.6760   27.5570 C.ar  278  PHE278     -0.0042
     69  CE1       11.8510    9.1760   29.3770 C.ar  278  PHE278     -0.0003
     70  CE2       14.1910    8.8780   28.9000 C.ar  278  PHE278     -0.0003
     71  CZ        13.1690    9.1440   29.8050 C.ar  278  PHE278     -0.0000
     72  N          9.7590   10.2410   24.8560 N.am  279  SER279     -0.1938
     73  CA         8.6010   11.0290   25.2570 C.3   279  SER279      0.2055
     74  C          7.4200   10.1320   25.4490 C.2   279  SER279      0.2644
     75  O          7.3760    9.0490   24.8940 O.2   279  SER279     -0.2714
     76  CB         8.2930   12.1130   24.2070 C.3   279  SER279      0.2130
     77  OG         8.0710   11.5590   22.9350 O.3   279  SER279     -0.2179
     78  N          6.4540   10.5750   26.2370 N.am  280  GLY280     -0.1939
     79  CA         5.2180    9.8180   26.3920 C.3   280  GLY280      0.2014
     80  C          4.0850   10.8120   26.3690 C.2   280  GLY280      0.2639
     81  O          3.8860   11.4850   25.3770 O.2   280  GLY280     -0.2714
     82  N          3.3420   10.8830   27.4680 N.am  281  TRP281     -0.1959
     83  CA         2.3600   11.9380   27.7290 C.3   281  TRP281      0.1771
     84  C          2.3420   12.1590   29.2170 C.2   281  TRP281      0.2619
     85  O          2.8920   11.3410   29.9870 O.2   281  TRP281     -0.2715
     86  CB         0.9570   11.6250   27.1400 C.3   281  TRP281      0.0590
     87  CG         0.3540   10.3200   27.5620 C.ar  281  TRP281      0.0006
     88  CD1       -0.2500   10.0100   28.7870 C.ar  281  TRP281      0.0946
     89  CD2        0.2610    9.0820   26.7640 C.ar  281  TRP281      0.0152
     90  NE1       -0.6750    8.7090   28.8010 N.ar  281  TRP281     -0.2442
     91  CE2       -0.4020    8.0950   27.6160 C.ar  281  TRP281      0.0810
     92  CE3        0.6490    8.7120   25.4680 C.ar  281  TRP281      0.0012
     93  CZ2       -0.6570    6.7920   27.1790 C.ar  281  TRP281      0.0191
     94  CZ3        0.3900    7.3900   25.0370 C.ar  281  TRP281      0.0001
     95  CH2       -0.2600    6.4570   25.8720 C.ar  281  TRP281      0.0015
     96  N          1.7420   13.2750   29.6380 N.am  282  TYR282     -0.1974
     97  CA         1.8240   13.7250   31.0030 C.3   282  TYR282      0.1639
     98  C          0.8150   13.0470   31.8870 C.2   282  TYR282      0.2290
     99  O         -0.3190   12.7430   31.4650 O.2   282  TYR282     -0.2864
    100  CB         1.5980   15.2490   31.0760 C.3   282  TYR282      0.0560
    101  CG         2.8670   16.0940   31.0850 C.ar  282  TYR282     -0.0198
    102  CD1        3.7970   15.9810   32.1180 C.ar  282  TYR282     -0.0009
    103  CD2        3.1110   17.0460   30.0760 C.ar  282  TYR282     -0.0009
    104  CE1        4.9530   16.7690   32.1440 C.ar  282  TYR282      0.0417
    105  CE2        4.2540   17.8430   30.0950 C.ar  282  TYR282      0.0417
    106  CZ         5.1710   17.7110   31.1330 C.ar  282  TYR282      0.1957
    107  OH         6.3200   18.4980   31.1720 O.3   282  TYR282     -0.2866
    108  N          1.9270   16.1560   37.2120 N.3   286  GLU286     -0.1245
    109  CA         3.2870   16.6480   36.9500 C.3   286  GLU286      0.1567
    110  C          3.2560   18.1660   36.6790 C.2   286  GLU286      0.2260
    111  O          4.1470   18.9350   37.1280 O.2   286  GLU286     -0.2867
    112  CB         3.8670   15.9570   35.7360 C.3   286  GLU286      0.0388
    113  CG         4.0680   14.4760   35.8920 C.3   286  GLU286      0.1160
    114  CD         4.5790   13.8900   34.5920 C.2   286  GLU286      0.3649
    115  OE1        5.8130   14.0700   34.3130 O.co2 286  GLU286     -0.2457
    116  OE2        3.7490   13.2710   33.8530 O.co2 286  GLU286     -0.2457
    117  N          3.3680   19.6880   40.4900 N.3   290  ARG290     -0.1245
    118  CA         4.8150   20.0030   40.6430 C.3   290  ARG290      0.1563
    119  C          5.2250   21.2780   39.9040 C.2   290  ARG290      0.2260
    120  O          5.6810   22.2380   40.5430 O.2   290  ARG290     -0.2867
    121  CB         5.7150   18.8230   40.2410 C.3   290  ARG290      0.0307
    122  CG         5.4210   17.5090   40.9660 C.3   290  ARG290      0.0489
    123  CD         5.5760   17.6350   42.4830 C.3   290  ARG290      0.2205
    124  NE         6.8540   18.2500   42.8320 N.pl3 290  ARG290     -0.0865
    125  CZ         8.0340   17.6530   42.7090 C.cat 290  ARG290      0.5346
    126  NH1        8.0860   16.3900   42.2960 N.pl3 290  ARG290      0.1354
    127  NH2        9.1660   18.3050   43.0150 N.pl3 290  ARG290      0.1354
    128  N          9.3550   26.2510   41.6330 N.3   297  ARG297     -0.1245
    129  CA         9.0050   26.1930   40.2220 C.3   297  ARG297      0.1563
    130  C          8.1330   27.4270   39.9690 C.2   297  ARG297      0.2260
    131  O          8.4840   28.4990   40.4330 O.2   297  ARG297     -0.2867
    132  CB         8.3180   24.8570   39.8780 C.3   297  ARG297      0.0307
    133  CG         9.2460   23.6430   40.0000 C.3   297  ARG297      0.0489
    134  CD        10.4070   23.6420   38.9770 C.3   297  ARG297      0.2205
    135  NE         9.8880   23.7060   37.6090 N.pl3 297  ARG297     -0.0865
    136  CZ         9.2990   22.6770   37.0030 C.cat 297  ARG297      0.5346
    137  NH1        9.2350   21.5040   37.6330 N.pl3 297  ARG297      0.1354
    138  NH2        8.8120   22.7910   35.7720 N.pl3 297  ARG297      0.1354
    139  N          8.3550    7.8660   44.1330 N.3   371  TRP371     -0.1241
    140  CA         8.0940    8.4430   42.8400 C.3   371  TRP371      0.1605
    141  C          6.8180    7.9990   42.2620 C.2   371  TRP371      0.2264
    142  O          6.2690    8.6940   41.4100 O.2   371  TRP371     -0.2867
    143  CB         9.2170    8.0980   41.8760 C.3   371  TRP371      0.0550
    144  CG        10.3380    9.1000   41.9110 C.ar  371  TRP371      0.0003
    145  CD1       11.2170    9.3570   42.9440 C.ar  371  TRP371      0.0946
    146  CD2       10.7430   10.0110   40.8330 C.ar  371  TRP371      0.0152
    147  NE1       12.1130   10.3330   42.5970 N.ar  371  TRP371     -0.2442
    148  CE2       11.8860   10.7660   41.3450 C.ar  371  TRP371      0.0810
    149  CE3       10.3010   10.2470   39.5290 C.ar  371  TRP371      0.0012
    150  CZ2       12.5410   11.7270   40.5750 C.ar  371  TRP371      0.0191
    151  CZ3       10.9630   11.2190   38.7680 C.ar  371  TRP371      0.0001
    152  CH2       12.0580   11.9340   39.2770 C.ar  371  TRP371      0.0015
    153  N         20.8890    8.5190   34.8820 N.3   399  TYR399     -0.1227
    154  CA        21.3440    9.8940   34.8670 C.3   399  TYR399      0.1736
    155  C         22.8240    9.8890   34.4230 C.2   399  TYR399      0.2595
    156  O         23.4880    8.8730   34.4940 O.2   399  TYR399     -0.2718
    157  CB        21.2030   10.5250   36.2530 C.3   399  TYR399      0.0548
    158  CG        19.7960   10.5070   36.8470 C.ar  399  TYR399     -0.0200
    159  CD1       18.6510   10.5440   36.0270 C.ar  399  TYR399     -0.0009
    160  CD2       19.6090   10.4960   38.2420 C.ar  399  TYR399     -0.0009
    161  CE1       17.3740   10.5650   36.5850 C.ar  399  TYR399      0.0417
    162  CE2       18.3360   10.5220   38.7900 C.ar  399  TYR399      0.0417
    163  CZ        17.2260   10.5630   37.9580 C.ar  399  TYR399      0.1957
    164  OH        15.9630   10.5700   38.4970 O.3   399  TYR399     -0.2866
    165  N         23.2820   11.0010   33.8760 N.am  400  GLN400     -0.1979
    166  CA        24.6430   11.1470   33.4250 C.3   400  GLN400      0.1601
    167  C         24.9720   12.5940   33.7360 C.2   400  GLN400      0.2287
    168  O         24.0750   13.4000   33.9210 O.2   400  GLN400     -0.2864
    169  CB        24.8080   10.8480   31.8980 C.3   400  GLN400      0.0394
    170  CG        23.8740   11.6380   30.9850 C.3   400  GLN400      0.0908
    171  CD        23.9730   11.2740   29.4940 C.2   400  GLN400      0.2608
    172  OE1       25.0190   10.8790   29.0040 O.2   400  GLN400     -0.2717
    173  NE2       22.8770   11.4780   28.7660 N.am  400  GLN400     -0.0878
    174  N         26.0120   16.5090   33.3070 N.3   402  ASP402     -0.1239
    175  CA        25.8390   17.5520   32.3100 C.3   402  ASP402      0.1674
    176  C         27.1040   17.7500   31.4700 C.2   402  ASP402      0.2266
    177  O         28.2070   17.6700   31.9970 O.2   402  ASP402     -0.2867
    178  CB        25.3950   18.8390   32.9840 C.3   402  ASP402      0.1410
    179  CG        24.0420   18.6860   33.6370 C.2   402  ASP402      0.3668
    180  OD1       23.1190   18.1010   33.0100 O.co2 402  ASP402     -0.2456
    181  OD2       23.9110   19.1140   34.7890 O.co2 402  ASP402     -0.2456
@<TRIPOS>BOND
     1    77    76    1
     2    76    73    1
     3    62    61    1
     4    62    63    1
     5    62    65    1
     6    72    73    1
     7    72    63   am
     8    75    74    2
     9    94    92   ar
    10    94    95   ar
    11    73    74    1
    12    63    64    2
    13    81    80    2
    14    74    78   am
    15    92    89   ar
    16    65    66    1
    17    95    93   ar
    18    78    79    1
    19    80    79    1
    20    80    82   am
    21    25    24    2
    22    24    23    1
    23    89    87   ar
    24    89    91   ar
    25    41    40    2
    26    31    37    1
    27    31    32    1
    28    66    68   ar
    29    66    67   ar
    30    86    87    1
    31    86    83    1
    32    93    91   ar
    33    37    36    1
    34    34    33    2
    35    33    32    1
    36    82    83    1
    37    68    70   ar
    38    87    88   ar
    39    40    39    1
    40    91    90   ar
    41    38    39    1
    42    83    84    1
    43    32    35    1
    44    23    26    1
    45    23    22    1
    46    67    69   ar
    47    56    55    2
    48    39    42    1
    49    36    35    1
    50    45    46    1
    51    26    27    1
    52   173   171   am
    53    88    90   ar
    54    70    71   ar
    55   172   171    2
    56    84    96   am
    57    84    85    2
    58    55    54    1
    59    46    47    1
    60    46    49    1
    61    69    71   ar
    62   171   170    1
    63    42    43    1
    64    42    44    1
    65    96    97    1
    66    29    28    2
    67    53    47   am
    68    53    54    1
    69    27    28    1
    70    47    48    2
    71   103   105   ar
    72   103   101   ar
    73   105   106   ar
    74    54    57    1
    75    49    50    1
    76    28    30   am
    77    57    58    1
    78   170   169    1
    79    97   100    1
    80    97    98    1
    81   100   101    1
    82   101   102   ar
    83   106   107    1
    84   106   104   ar
    85    99    98    2
    86   176   177    2
    87   176   175    1
    88    50    51    2
    89    50    52   am
    90   169   166    1
    91    58    59    1
    92   102   104   ar
    93   175   178    1
    94   175   174    1
    95    59    60    1
    96   178   179    1
    97   180   179   ar
    98    21    20    1
    99   166   167    1
   100   166   165    1
   101   179   181   ar
   102   167   168    2
   103   116   114   ar
   104   165   155   am
   105   115   114   ar
   106    20    17    1
   107   155   156    2
   108   155   154    1
   109   114   113    1
   110   154   153    1
   111   154   157    1
   112   112   113    1
   113   112   109    1
   114   138   136    1
   115    17    18    1
   116    17    16    1
   117   159   161   ar
   118   159   158   ar
   119    19    18    2
   120   157   158    1
   121   161   163   ar
   122   110   109    1
   123   110   111    2
   124   158   160   ar
   125   109   108    1
   126   136   135    2
   127   136   137    1
   128   135   134    1
   129   163   164    1
   130   163   162   ar
   131   160   162   ar
   132   151   152   ar
   133   151   149   ar
   134   134   133    1
   135   152   150   ar
   136   149   146   ar
   137   132   133    1
   138   132   129    1
   139   119   120    2
   140   119   118    1
   141   130   129    1
   142   130   131    2
   143   129   128    1
   144   121   118    1
   145   121   122    1
   146    15    13    1
   147   117   118    1
   148   150   148   ar
   149   146   148   ar
   150   146   144   ar
   151   122   123    1
   152   148   147   ar
   153   142   141    2
   154    14    13    1
   155    13    12    1
   156   143   144    1
   157   143   140    1
   158   144   145   ar
   159     4     3    2
   160   141   140    1
   161   126   125    1
   162     6     5    1
   163    12     9    1
   164   123   124    1
   165   147   145   ar
   166   125   124    2
   167   125   127    1
   168     9     8    1
   169     9    10    1
   170   140   139    1
   171     3     8   am
   172     3     2    1
   173    10    11    2
   174     5     2    1
   175     5     7    1
   176     2     1    1
