@<TRIPOS>MOLECULE
tmp/4cx3B03.pdb
 186 181 0 0 0
SMALL
GASTEIGER

@<TRIPOS>ATOM
      1  N         17.9120   12.2500   47.6370 N.3    38  VAL38      -0.1231
      2  CA        17.6910   11.6950   48.9700 C.3    38  VAL38       0.1692
      3  C         17.3820   12.8230   49.9860 C.2    38  VAL38       0.2591
      4  O         16.4300   12.7080   50.7450 O.2    38  VAL38      -0.2718
      5  CB        18.8770   10.8170   49.4290 C.3    38  VAL38       0.0266
      6  CG1       18.7040   10.3520   50.9060 C.3    38  VAL38       0.0020
      7  CG2       19.0430    9.6020   48.5190 C.3    38  VAL38       0.0020
      8  N         18.1510   13.9160   49.9520 N.am   39  LEU39      -0.1980
      9  CA        17.8910   15.1020   50.8070 C.3    39  LEU39       0.1596
     10  C         17.6150   16.3390   49.9730 C.2    39  LEU39       0.2287
     11  O         18.5360   17.0910   49.6700 O.2    39  LEU39      -0.2864
     12  CB        19.0930   15.4100   51.7000 C.3    39  LEU39       0.0297
     13  CG        19.6690   14.2780   52.5080 C.3    39  LEU39       0.0022
     14  CD1       21.0790   14.6260   52.9550 C.3    39  LEU39       0.0001
     15  CD2       18.7280   14.0620   53.6770 C.3    39  LEU39       0.0001
     16  N          7.5860    7.9820   52.3670 N.3   107  ARG107     -0.1231
     17  CA         8.5380    6.9310   52.0110 C.3   107  ARG107      0.1694
     18  C          8.2830    5.5570   52.6970 C.2   107  ARG107      0.2592
     19  O          9.0000    4.5760   52.4170 O.2   107  ARG107     -0.2718
     20  CB         9.9630    7.4130   52.2910 C.3   107  ARG107      0.0321
     21  CG        10.3560    8.5600   51.3770 C.3   107  ARG107      0.0489
     22  CD        11.7070    9.1520   51.7940 C.3   107  ARG107      0.2205
     23  NE        12.2720    9.9230   50.6840 N.pl3 107  ARG107     -0.0865
     24  CZ        13.4020   10.6310   50.7860 C.cat 107  ARG107      0.5346
     25  NH1       14.0490   10.6700   51.9410 N.pl3 107  ARG107      0.1354
     26  NH2       13.8880   11.2810   49.7440 N.pl3 107  ARG107      0.1354
     27  N          7.2370    5.4670   53.5270 N.am  108  CYS108     -0.1970
     28  CA         6.9470    4.2560   54.3060 C.3   108  CYS108      0.1712
     29  C          5.8860    3.3720   53.6800 C.2   108  CYS108      0.2296
     30  O          4.6990    3.7470   53.6030 O.2   108  CYS108     -0.2864
     31  CB         6.5700    4.5770   55.7760 C.3   108  CYS108      0.0983
     32  SG         6.2110    3.0690   56.7320 S.3   108  CYS108     -0.0798
     33  N         20.1760    3.9020   64.1530 N.3   171  GLN171     -0.1245
     34  CA        19.1080    2.9880   64.6110 C.3   171  GLN171      0.1566
     35  C         19.5240    2.4690   65.9950 C.2   171  GLN171      0.2260
     36  O         20.7330    2.3820   66.2890 O.2   171  GLN171     -0.2867
     37  CB        18.9100    1.7470   63.6900 C.3   171  GLN171      0.0367
     38  CG        18.6490    2.0090   62.2260 C.3   171  GLN171      0.0905
     39  CD        18.6100    0.7210   61.3830 C.2   171  GLN171      0.2608
     40  OE1       18.1100   -0.3430   61.8260 O.2   171  GLN171     -0.2717
     41  NE2       19.1270    0.8160   60.1690 N.am  171  GLN171     -0.0878
     42  N         22.4400   -1.7440   65.6330 N.3   174  ARG174     -0.1245
     43  CA        23.2030   -1.7950   64.3990 C.3   174  ARG174      0.1563
     44  C         24.5390   -2.4400   64.7030 C.2   174  ARG174      0.2260
     45  O         24.9700   -2.4520   65.8590 O.2   174  ARG174     -0.2867
     46  CB        23.4380   -0.3700   63.8580 C.3   174  ARG174      0.0307
     47  CG        22.3210    0.1540   62.9450 C.3   174  ARG174      0.0489
     48  CD        22.7820    1.2880   62.0690 C.3   174  ARG174      0.2205
     49  NE        22.7700    0.9240   60.6680 N.pl3 174  ARG174     -0.0865
     50  CZ        22.9740    1.7780   59.6700 C.cat 174  ARG174      0.5346
     51  NH1       23.1900    3.0690   59.9050 N.pl3 174  ARG174      0.1354
     52  NH2       22.9490    1.3350   58.4230 N.pl3 174  ARG174      0.1354
     53  N         14.0130   -3.3480   63.7080 N.3   258  PRO258     -0.2116
     54  CA        14.4630   -2.1580   62.9780 C.3   258  PRO258      0.1372
     55  C         13.9000   -0.9300   63.7060 C.2   258  PRO258      0.2244
     56  O         12.6760   -0.7690   63.8040 O.2   258  PRO258     -0.2868
     57  CB        13.8130   -2.3140   61.6000 C.3   258  PRO258      0.0268
     58  CG        12.5000   -3.0700   61.8830 C.3   258  PRO258      0.0207
     59  CD        12.7780   -3.9220   63.1280 C.3   258  PRO258      0.0892
     60  N         14.5420    3.1150   63.9200 N.3   260  VAL260     -0.1245
     61  CA        15.1400    4.3620   63.4320 C.3   260  VAL260      0.1561
     62  C         15.2460    5.3710   64.5940 C.2   260  VAL260      0.2260
     63  O         14.2560    5.6680   65.2370 O.2   260  VAL260     -0.2867
     64  CB        14.3120    4.9200   62.2830 C.3   260  VAL260      0.0252
     65  CG1       14.7460    6.3570   61.9290 C.3   260  VAL260      0.0019
     66  CG2       14.4430    3.9950   61.0060 C.3   260  VAL260      0.0019
     67  N         17.3300    8.4910   64.4550 N.3   262  ASN262     -0.1225
     68  CA        17.9650    9.7640   64.0810 C.3   262  ASN262      0.1785
     69  C         17.0760   10.8350   63.4620 C.2   262  ASN262      0.2597
     70  O         17.5810   11.8860   63.0060 O.2   262  ASN262     -0.2718
     71  CB        19.2060    9.5370   63.1890 C.3   262  ASN262      0.1169
     72  CG        18.8650    8.8750   61.8720 C.2   262  ASN262      0.2627
     73  OD1       17.7090    8.5080   61.6040 O.2   262  ASN262     -0.2716
     74  ND2       19.8680    8.7330   61.0330 N.am  262  ASN262     -0.0877
     75  N         15.7750   10.5900   63.4480 N.am  263  MET263     -0.1979
     76  CA        14.8240   11.5030   62.8150 C.3   263  MET263      0.1605
     77  C         14.2350   12.4790   63.8040 C.2   263  MET263      0.2287
     78  O         14.3440   12.2700   65.0120 O.2   263  MET263     -0.2864
     79  CB        13.7430   10.7380   62.0610 C.3   263  MET263      0.0413
     80  CG        14.4110    9.9820   60.8760 C.3   263  MET263      0.0598
     81  SD        13.2510    9.2530   59.7880 S.3   263  MET263     -0.1393
     82  CE        12.8470   10.6800   58.7330 C.3   263  MET263      0.0692
     83  N         11.7910    5.1210   66.8750 N.3   277  PHE277     -0.1227
     84  CA        10.5870    4.3720   66.5910 C.3   277  PHE277      0.1736
     85  C         10.9660    3.0400   65.9230 C.2   277  PHE277      0.2596
     86  O         12.0250    2.9250   65.3550 O.2   277  PHE277     -0.2718
     87  CB         9.6270    5.1980   65.7250 C.3   277  PHE277      0.0547
     88  CG        10.1970    5.5970   64.3570 C.ar  277  PHE277     -0.0202
     89  CD1       10.1770    4.7160   63.2840 C.ar  277  PHE277     -0.0042
     90  CD2       10.6700    6.8730   64.1400 C.ar  277  PHE277     -0.0042
     91  CE1       10.6660    5.0980   62.0330 C.ar  277  PHE277     -0.0003
     92  CE2       11.1920    7.2700   62.8900 C.ar  277  PHE277     -0.0003
     93  CZ        11.1720    6.3960   61.8360 C.ar  277  PHE277     -0.0000
     94  N         10.0890    2.0570   66.0140 N.am  278  SER278     -0.1938
     95  CA        10.3820    0.7240   65.5010 C.3   278  SER278      0.2055
     96  C          9.1330    0.0770   64.9540 C.2   278  SER278      0.2644
     97  O          8.0390    0.3540   65.4100 O.2   278  SER278     -0.2714
     98  CB        11.0520   -0.1630   66.5920 C.3   278  SER278      0.2130
     99  OG        10.2170   -0.3200   67.7370 O.3   278  SER278     -0.2179
    100  N          9.3070   -0.7710   63.9430 N.am  279  GLY279     -0.1939
    101  CA         8.2310   -1.6150   63.4630 C.3   279  GLY279      0.2014
    102  C          8.7620   -3.0440   63.3330 C.2   279  GLY279      0.2639
    103  O          9.2620   -3.6340   64.3150 O.2   279  GLY279     -0.2714
    104  N          8.6750   -3.5890   62.1240 N.am  280  TRP280     -0.1959
    105  CA         9.3290   -4.8680   61.7890 C.3   280  TRP280      0.1771
    106  C          9.8800   -4.8000   60.3660 C.2   280  TRP280      0.2619
    107  O          9.5000   -3.9230   59.5940 O.2   280  TRP280     -0.2715
    108  CB         8.4010   -6.0770   61.9470 C.3   280  TRP280      0.0590
    109  CG         7.0540   -5.9600   61.2550 C.ar  280  TRP280      0.0006
    110  CD1        6.7620   -6.2280   59.9340 C.ar  280  TRP280      0.0946
    111  CD2        5.8390   -5.5610   61.8590 C.ar  280  TRP280      0.0152
    112  NE1        5.4220   -6.0190   59.7000 N.ar  280  TRP280     -0.2442
    113  CE2        4.8350   -5.6030   60.8650 C.ar  280  TRP280      0.0810
    114  CE3        5.4910   -5.1620   63.1630 C.ar  280  TRP280      0.0012
    115  CZ2        3.4960   -5.2610   61.1280 C.ar  280  TRP280      0.0191
    116  CZ3        4.1540   -4.8270   63.4280 C.ar  280  TRP280      0.0001
    117  CH2        3.1750   -4.8960   62.4100 C.ar  280  TRP280      0.0015
    118  N         10.7780   -5.7150   60.0190 N.am  281  TYR281     -0.1974
    119  CA        11.4070   -5.6370   58.7120 C.3   281  TYR281      0.1639
    120  C         10.5440   -6.1090   57.5640 C.2   281  TYR281      0.2290
    121  O          9.7650   -7.0560   57.6950 O.2   281  TYR281     -0.2864
    122  CB        12.6850   -6.4700   58.6770 C.3   281  TYR281      0.0560
    123  CG        13.9250   -5.7200   59.1090 C.ar  281  TYR281     -0.0198
    124  CD1       14.4400   -4.6870   58.3260 C.ar  281  TYR281     -0.0009
    125  CD2       14.5780   -6.0410   60.2940 C.ar  281  TYR281     -0.0009
    126  CE1       15.6080   -3.9960   58.7040 C.ar  281  TYR281      0.0417
    127  CE2       15.7360   -5.3550   60.6980 C.ar  281  TYR281      0.0417
    128  CZ        16.2460   -4.3540   59.8830 C.ar  281  TYR281      0.1957
    129  OH        17.3810   -3.6790   60.2310 O.3   281  TYR281     -0.2866
    130  N         14.8360   -5.2250   52.9370 N.3   285  GLU285     -0.1245
    131  CA        15.7360   -4.2840   53.6220 C.3   285  GLU285      0.1567
    132  C         17.0480   -4.9800   54.0190 C.2   285  GLU285      0.2260
    133  O         18.1400   -4.4040   53.8370 O.2   285  GLU285     -0.2867
    134  CB        15.0870   -3.7030   54.8800 C.3   285  GLU285      0.0388
    135  CG        13.7690   -2.9540   54.6320 C.3   285  GLU285      0.1160
    136  CD        13.1550   -2.4180   55.9260 C.2   285  GLU285      0.3649
    137  OE1       13.7180   -1.4440   56.4690 O.co2 285  GLU285     -0.2457
    138  OE2       12.0880   -2.9150   56.3650 O.co2 285  GLU285     -0.2457
    139  N         19.2990   -4.7860   50.4200 N.3   289  ARG289     -0.1245
    140  CA        20.1810   -3.6540   50.7250 C.3   289  ARG289      0.1563
    141  C         21.3140   -3.9780   51.7230 C.2   289  ARG289      0.2260
    142  O         22.4900   -3.7030   51.4460 O.2   289  ARG289     -0.2867
    143  CB        19.3590   -2.4490   51.2260 C.3   289  ARG289      0.0307
    144  CG        18.1490   -2.0700   50.3160 C.3   289  ARG289      0.0489
    145  CD        18.5810   -1.5180   48.9360 C.3   289  ARG289      0.2205
    146  NE        19.6900   -0.5600   49.0060 N.pl3 289  ARG289     -0.0865
    147  CZ        19.5400    0.7210   49.3510 C.cat 289  ARG289      0.5346
    148  NH1       18.3190    1.1910   49.6560 N.pl3 289  ARG289      0.1354
    149  NH2       20.6080    1.5140   49.3990 N.pl3 289  ARG289      0.1354
    150  N         27.7460   -2.1670   51.5060 N.3   296  ARG296     -0.1245
    151  CA        27.2790   -2.7770   52.7720 C.3   296  ARG296      0.1563
    152  C         27.9820   -4.1330   52.9300 C.2   296  ARG296      0.2260
    153  O         29.1820   -4.2010   52.6680 O.2   296  ARG296     -0.2867
    154  CB        25.7480   -2.8620   52.7980 C.3   296  ARG296      0.0307
    155  CG        25.0390   -1.4570   52.7560 C.3   296  ARG296      0.0489
    156  CD        25.2300   -0.5760   54.0200 C.3   296  ARG296      0.2205
    157  NE        24.8440   -1.2230   55.2910 N.pl3 296  ARG296     -0.0865
    158  CZ        23.5890   -1.4500   55.6860 C.cat 296  ARG296      0.5346
    159  NH1       22.5560   -1.0830   54.9130 N.pl3 296  ARG296      0.1354
    160  NH2       23.3630   -2.0260   56.8660 N.pl3 296  ARG296      0.1354
    161  N         10.9530    5.4070   46.8420 N.3   371  TRP371     -0.1241
    162  CA        11.2230    4.6450   48.0460 C.3   371  TRP371      0.1605
    163  C         10.2660    3.4850   48.2770 C.2   371  TRP371      0.2264
    164  O         10.6510    2.4850   48.8850 O.2   371  TRP371     -0.2867
    165  CB        11.1390    5.5910   49.2770 C.3   371  TRP371      0.0550
    166  CG        12.4360    6.3490   49.4770 C.ar  371  TRP371      0.0003
    167  CD1       13.0510    7.1980   48.5960 C.ar  371  TRP371      0.0946
    168  CD2       13.2830    6.2580   50.6130 C.ar  371  TRP371      0.0152
    169  NE1       14.2310    7.6590   49.1370 N.ar  371  TRP371     -0.2442
    170  CE2       14.4010    7.0800   50.3690 C.ar  371  TRP371      0.0810
    171  CE3       13.2040    5.5530   51.8240 C.ar  371  TRP371      0.0012
    172  CZ2       15.4300    7.2340   51.3060 C.ar  371  TRP371      0.0191
    173  CZ3       14.2420    5.6970   52.7630 C.ar  371  TRP371      0.0001
    174  CH2       15.3300    6.5310   52.4920 C.ar  371  TRP371      0.0015
    175  N         14.4470   14.3610   58.3230 N.3   399  TYR399     -0.1241
    176  CA        15.8960   14.1350   58.4780 C.3   399  TYR399      0.1605
    177  C         16.4880   15.2590   59.3230 C.2   399  TYR399      0.2264
    178  O         15.9690   16.3750   59.3410 O.2   399  TYR399     -0.2867
    179  CB        16.5810   14.0290   57.0920 C.3   399  TYR399      0.0534
    180  CG        18.1020   13.9170   57.1420 C.ar  399  TYR399     -0.0201
    181  CD1       18.7350   12.6890   57.3740 C.ar  399  TYR399     -0.0009
    182  CD2       18.9200   15.0510   56.9480 C.ar  399  TYR399     -0.0009
    183  CE1       20.1700   12.5840   57.4290 C.ar  399  TYR399      0.0417
    184  CE2       20.3470   14.9550   56.9940 C.ar  399  TYR399      0.0417
    185  CZ        20.9490   13.7270   57.2440 C.ar  399  TYR399      0.1957
    186  OH        22.3370   13.6460   57.2910 O.3   399  TYR399     -0.2866
@<TRIPOS>BOND
     1   161   162    1
     2     1     2    1
     3   162   163    1
     4   162   165    1
     5   163   164    2
     6     7     5    1
     7   167   169   ar
     8   167   166   ar
     9   145   146    1
    10   145   144    1
    11     2     5    1
    12     2     3    1
    13   146   147    2
    14   169   170   ar
    15   165   166    1
    16   147   149    1
    17   147   148    1
    18     5     6    1
    19   166   168   ar
    20    11    10    2
    21    26    24    1
    22     8     3   am
    23     8     9    1
    24    10     9    1
    25     3     4    2
    26   144   143    1
    27   170   168   ar
    28   170   172   ar
    29   139   140    1
    30   168   171   ar
    31    23    24    2
    32    23    22    1
    33   140   143    1
    34   140   141    1
    35    24    25    1
    36     9    12    1
    37   172   174   ar
    38    21    22    1
    39    21    20    1
    40   142   141    2
    41   150   151    1
    42    12    13    1
    43   171   173   ar
    44    17    20    1
    45    17    16    1
    46    17    18    1
    47    19    18    2
    48   174   173   ar
    49    13    14    1
    50    13    15    1
    51   153   152    2
    52    18    27   am
    53   155   154    1
    54   155   156    1
    55   151   154    1
    56   151   152    1
    57   130   131    1
    58    27    28    1
    59    30    29    2
    60   131   132    1
    61   131   134    1
    62    29    28    1
    63   133   132    2
    64   156   157    1
    65    28    31    1
    66   135   134    1
    67   135   136    1
    68   159   158    1
    69   157   158    2
    70   158   160    1
    71    31    32    1
    72   136   138   ar
    73   136   137   ar
    74   182   184   ar
    75   182   180   ar
    76   184   185   ar
    77   179   180    1
    78   179   176    1
    79   180   181   ar
    80   185   186    1
    81   185   183   ar
    82   181   183   ar
    83   120   121    2
    84   120   119    1
    85   175   176    1
    86   124   126   ar
    87   124   123   ar
    88    52    50    1
    89   176   177    1
    90   122   119    1
    91   122   123    1
    92   126   128   ar
    93   119   118    1
    94    82    81    1
    95   123   125   ar
    96   177   178    2
    97   107   106    2
    98    50    51    1
    99    50    49    2
   100   112   110   ar
   101   112   113   ar
   102    81    80    1
   103   128   129    1
   104   128   127   ar
   105   110   109   ar
   106   118   106   am
   107    41    39   am
   108   125   127   ar
   109   106   105    1
   110    49    48    1
   111   113   115   ar
   112   113   111   ar
   113    80    79    1
   114    66    64    1
   115    74    72   am
   116   115   117   ar
   117   109   111   ar
   118   109   108    1
   119    39    40    2
   120    39    38    1
   121    57    58    1
   122    57    54    1
   123    73    72    2
   124   105   108    1
   125   105   104    1
   126    93    91   ar
   127    93    92   ar
   128   111   114   ar
   129    72    71    1
   130    58    59    1
   131    65    64    1
   132    91    89   ar
   133    79    76    1
   134    48    47    1
   135   104   102   am
   136    38    37    1
   137    64    61    1
   138   117   116   ar
   139    76    75    1
   140    76    77    1
   141    92    90   ar
   142    47    46    1
   143    54    55    1
   144    54    53    1
   145    70    69    2
   146    59    53    1
   147   114   116   ar
   148    71    68    1
   149    89    88   ar
   150   102   101    1
   151   102   103    2
   152    61    60    1
   153    61    62    1
   154    75    69   am
   155    69    68    1
   156   101   100    1
   157    37    34    1
   158    55    56    2
   159    77    78    2
   160    46    43    1
   161   100    96   am
   162    68    67    1
   163    90    88   ar
   164    33    34    1
   165    88    87    1
   166    43    44    1
   167    43    42    1
   168    62    63    2
   169    34    35    1
   170    44    45    2
   171    96    97    2
   172    96    95    1
   173    86    85    2
   174    95    94    1
   175    95    98    1
   176    87    84    1
   177    85    94   am
   178    85    84    1
   179    35    36    2
   180    84    83    1
   181    98    99    1
