@<TRIPOS>MOLECULE
tmp/4cx4B03.pdb
 126 118 0 0 0
SMALL
GASTEIGER

@<TRIPOS>ATOM
      1  N         17.9470   12.2830   47.6430 N.3    38  VAL38      -0.1231
      2  CA        17.7370   11.7000   48.9740 C.3    38  VAL38       0.1692
      3  C         17.4330   12.7960   50.0350 C.2    38  VAL38       0.2591
      4  O         16.4070   12.7350   50.7090 O.2    38  VAL38      -0.2718
      5  CB        18.9120   10.8120   49.3880 C.3    38  VAL38       0.0266
      6  CG1       18.7470   10.3300   50.8450 C.3    38  VAL38       0.0020
      7  CG2       19.0270    9.6300   48.4590 C.3    38  VAL38       0.0020
      8  N         18.2900   13.8150   50.1470 N.am   39  LEU39      -0.1980
      9  CA        17.9920   14.9650   51.0280 C.3    39  LEU39       0.1596
     10  C         17.7340   16.2170   50.1870 C.2    39  LEU39       0.2287
     11  O         18.6720   16.9390   49.8430 O.2    39  LEU39      -0.2864
     12  CB        19.1160   15.2390   52.0370 C.3    39  LEU39       0.0297
     13  CG        20.2720   14.2980   52.3500 C.3    39  LEU39       0.0022
     14  CD1       21.5300   14.7190   51.5890 C.3    39  LEU39       0.0001
     15  CD2       20.5640   14.3790   53.8280 C.3    39  LEU39       0.0001
     16  N          7.5660    8.0610   52.3930 N.3   107  ARG107     -0.1245
     17  CA         8.5190    7.0220   52.0520 C.3   107  ARG107      0.1563
     18  C          8.2700    5.6510   52.7370 C.2   107  ARG107      0.2260
     19  O          9.0270    4.6970   52.4900 O.2   107  ARG107     -0.2867
     20  CB         9.9510    7.5000   52.3300 C.3   107  ARG107      0.0307
     21  CG        10.3530    8.6410   51.4060 C.3   107  ARG107      0.0489
     22  CD        11.7060    9.2070   51.8020 C.3   107  ARG107      0.2205
     23  NE        12.2440    9.9830   50.6800 N.pl3 107  ARG107     -0.0865
     24  CZ        13.3860   10.6750   50.7400 C.cat 107  ARG107      0.5346
     25  NH1       14.0860   10.7180   51.8720 N.pl3 107  ARG107      0.1354
     26  NH2       13.8310   11.3210   49.6780 N.pl3 107  ARG107      0.1354
     27  N         20.1060    3.9250   64.1930 N.3   171  GLN171     -0.1245
     28  CA        19.0340    3.0070   64.6380 C.3   171  GLN171      0.1566
     29  C         19.4640    2.4710   65.9950 C.2   171  GLN171      0.2260
     30  O         20.6840    2.3760   66.2730 O.2   171  GLN171     -0.2867
     31  CB        18.8480    1.7820   63.7180 C.3   171  GLN171      0.0367
     32  CG        18.5410    2.0250   62.2810 C.3   171  GLN171      0.0905
     33  CD        18.4090    0.7160   61.4590 C.2   171  GLN171      0.2608
     34  OE1       17.9390   -0.3420   61.9610 O.2   171  GLN171     -0.2717
     35  NE2       18.7840    0.7940   60.2020 N.am  171  GLN171     -0.0878
     36  N         22.4370   -1.7030   65.6650 N.3   174  ARG174     -0.1245
     37  CA        23.2090   -1.7480   64.4540 C.3   174  ARG174      0.1563
     38  C         24.5470   -2.4020   64.7590 C.2   174  ARG174      0.2260
     39  O         24.9810   -2.4260   65.9100 O.2   174  ARG174     -0.2867
     40  CB        23.4460   -0.3180   63.9270 C.3   174  ARG174      0.0307
     41  CG        22.2600    0.2290   63.0940 C.3   174  ARG174      0.0489
     42  CD        22.6550    1.3090   62.1660 C.3   174  ARG174      0.2205
     43  NE        22.6820    0.8180   60.7940 N.pl3 174  ARG174     -0.0865
     44  CZ        22.8670    1.5930   59.7360 C.cat 174  ARG174      0.5346
     45  NH1       23.0240    2.9140   59.8780 N.pl3 174  ARG174      0.1354
     46  NH2       22.8770    1.0510   58.5270 N.pl3 174  ARG174      0.1354
     47  N         14.4100    3.1940   63.9640 N.3   260  VAL260     -0.1245
     48  CA        15.0320    4.4400   63.4740 C.3   260  VAL260      0.1561
     49  C         15.1300    5.4600   64.6230 C.2   260  VAL260      0.2260
     50  O         14.1190    5.8240   65.2280 O.2   260  VAL260     -0.2867
     51  CB        14.2610    5.0030   62.2950 C.3   260  VAL260      0.0252
     52  CG1       14.7270    6.4330   61.9330 C.3   260  VAL260      0.0019
     53  CG2       14.4500    4.0830   61.0240 C.3   260  VAL260      0.0019
     54  N         17.3210    8.5880   64.4630 N.3   262  ASN262     -0.1225
     55  CA        17.9560    9.8580   64.0960 C.3   262  ASN262      0.1785
     56  C         17.0590   10.9030   63.4790 C.2   262  ASN262      0.2597
     57  O         17.5530   11.9500   63.0010 O.2   262  ASN262     -0.2718
     58  CB        19.1600    9.6360   63.1580 C.3   262  ASN262      0.1169
     59  CG        18.7680    8.9080   61.8680 C.2   262  ASN262      0.2627
     60  OD1       17.5990    8.5480   61.6500 O.2   262  ASN262     -0.2716
     61  ND2       19.7420    8.6830   61.0240 N.am  262  ASN262     -0.0877
     62  N         15.7600   10.6350   63.4720 N.am  263  MET263     -0.1979
     63  CA        14.8020   11.5440   62.8520 C.3   263  MET263      0.1605
     64  C         14.1800   12.5060   63.8590 C.2   263  MET263      0.2287
     65  O         14.3000   12.2920   65.0630 O.2   263  MET263     -0.2864
     66  CB        13.7240   10.7490   62.0980 C.3   263  MET263      0.0413
     67  CG        14.3720   10.0510   60.8490 C.3   263  MET263      0.0598
     68  SD        13.1520    9.3300   59.8330 S.3   263  MET263     -0.1393
     69  CE        12.8170   10.7290   58.7370 C.3   263  MET263      0.0692
     70  N         14.8030   -5.2310   52.9110 N.3   285  GLU285     -0.1245
     71  CA        15.6940   -4.3060   53.6090 C.3   285  GLU285      0.1567
     72  C         16.9980   -4.9810   54.0230 C.2   285  GLU285      0.2260
     73  O         18.0640   -4.3840   53.8730 O.2   285  GLU285     -0.2867
     74  CB        15.0340   -3.7500   54.8690 C.3   285  GLU285      0.0388
     75  CG        13.7230   -2.9870   54.6010 C.3   285  GLU285      0.1160
     76  CD        13.1090   -2.4540   55.8960 C.2   285  GLU285      0.3649
     77  OE1       13.7130   -1.5190   56.4400 O.co2 285  GLU285     -0.2457
     78  OE2       11.9890   -2.8730   56.3270 O.co2 285  GLU285     -0.2457
     79  N         19.2780   -4.8420   50.3870 N.3   289  ARG289     -0.1245
     80  CA        20.1500   -3.6960   50.6890 C.3   289  ARG289      0.1563
     81  C         21.2780   -4.0050   51.7030 C.2   289  ARG289      0.2260
     82  O         22.4480   -3.7670   51.4240 O.2   289  ARG289     -0.2867
     83  CB        19.3190   -2.4920   51.1990 C.3   289  ARG289      0.0307
     84  CG        18.0760   -2.0960   50.3170 C.3   289  ARG289      0.0489
     85  CD        18.4690   -1.5470   48.9270 C.3   289  ARG289      0.2205
     86  NE        19.6080   -0.6330   48.9840 N.pl3 289  ARG289     -0.0865
     87  CZ        19.4830    0.6500   49.3370 C.cat 289  ARG289      0.5346
     88  NH1       18.2770    1.1380   49.6330 N.pl3 289  ARG289      0.1354
     89  NH2       20.5490    1.4410   49.3890 N.pl3 289  ARG289      0.1354
     90  N         27.7380   -2.1660   51.5370 N.3   296  ARG296     -0.1245
     91  CA        27.2980   -2.7890   52.8040 C.3   296  ARG296      0.1563
     92  C         27.9680   -4.1490   52.9480 C.2   296  ARG296      0.2260
     93  O         29.1530   -4.2610   52.6630 O.2   296  ARG296     -0.2867
     94  CB        25.7630   -2.8800   52.8690 C.3   296  ARG296      0.0307
     95  CG        25.0650   -1.5050   52.7940 C.3   296  ARG296      0.0489
     96  CD        25.2060   -0.6320   54.0740 C.3   296  ARG296      0.2205
     97  NE        24.7880   -1.2960   55.3240 N.pl3 296  ARG296     -0.0865
     98  CZ        23.5190   -1.4980   55.6990 C.cat 296  ARG296      0.5346
     99  NH1       22.5150   -1.0770   54.9250 N.pl3 296  ARG296      0.1354
    100  NH2       23.2490   -2.0860   56.8780 N.pl3 296  ARG296      0.1354
    101  N         10.9000    5.4150   46.8620 N.3   371  TRP371     -0.1241
    102  CA        11.1730    4.6440   48.0670 C.3   371  TRP371      0.1605
    103  C         10.2140    3.4780   48.2870 C.2   371  TRP371      0.2264
    104  O         10.5970    2.4320   48.8620 O.2   371  TRP371     -0.2867
    105  CB        11.1010    5.6070   49.2950 C.3   371  TRP371      0.0550
    106  CG        12.4450    6.3350   49.5250 C.ar  371  TRP371      0.0003
    107  CD1       13.0930    7.1990   48.6770 C.ar  371  TRP371      0.0946
    108  CD2       13.2640    6.2140   50.6780 C.ar  371  TRP371      0.0152
    109  NE1       14.2640    7.6400   49.2560 N.ar  371  TRP371     -0.2442
    110  CE2       14.3990    7.0290   50.4770 C.ar  371  TRP371      0.0810
    111  CE3       13.1370    5.5060   51.8860 C.ar  371  TRP371      0.0012
    112  CZ2       15.4120    7.1410   51.4420 C.ar  371  TRP371      0.0191
    113  CZ3       14.1490    5.6170   52.8520 C.ar  371  TRP371      0.0001
    114  CH2       15.2580    6.4290   52.6190 C.ar  371  TRP371      0.0015
    115  N         14.3990   14.5180   58.4290 N.3   399  TYR399     -0.1241
    116  CA        15.8330   14.3140   58.5860 C.3   399  TYR399      0.1605
    117  C         16.4100   15.4430   59.4340 C.2   399  TYR399      0.2264
    118  O         15.8280   16.5240   59.5040 O.2   399  TYR399     -0.2867
    119  CB        16.5240   14.2480   57.2140 C.3   399  TYR399      0.0534
    120  CG        17.8880   13.6230   57.3010 C.ar  399  TYR399     -0.0201
    121  CD1       18.0150   12.2530   57.5070 C.ar  399  TYR399     -0.0009
    122  CD2       19.0520   14.3970   57.2250 C.ar  399  TYR399     -0.0009
    123  CE1       19.2750   11.6500   57.6190 C.ar  399  TYR399      0.0417
    124  CE2       20.3320   13.8020   57.3410 C.ar  399  TYR399      0.0417
    125  CZ        20.4120   12.4220   57.5270 C.ar  399  TYR399      0.1957
    126  OH        21.6110   11.7750   57.6370 O.3   399  TYR399     -0.2866
@<TRIPOS>BOND
     1   101   102    1
     2     1     2    1
     3   102   103    1
     4   102   105    1
     5   103   104    2
     6     7     5    1
     7   107   109   ar
     8   107   106   ar
     9    85    86    1
    10    85    84    1
    11     2     5    1
    12     2     3    1
    13    86    87    2
    14   109   110   ar
    15   105   106    1
    16    87    89    1
    17    87    88    1
    18     5     6    1
    19   106   108   ar
    20    26    24    1
    21    11    10    2
    22     3     8   am
    23     3     4    2
    24     8     9    1
    25    10     9    1
    26    84    83    1
    27    79    80    1
    28   110   108   ar
    29   110   112   ar
    30   108   111   ar
    31    23    24    2
    32    23    22    1
    33    80    83    1
    34    80    81    1
    35    24    25    1
    36     9    12    1
    37    21    22    1
    38    21    20    1
    39    82    81    2
    40   112   114   ar
    41    90    91    1
    42    14    13    1
    43   111   113   ar
    44    12    13    1
    45    17    20    1
    46    17    16    1
    47    17    18    1
    48    13    15    1
    49    19    18    2
    50   114   113   ar
    51    93    92    2
    52    95    94    1
    53    95    96    1
    54    91    94    1
    55    91    92    1
    56    70    71    1
    57    71    72    1
    58    71    74    1
    59    73    72    2
    60    96    97    1
    61    75    74    1
    62    75    76    1
    63    99    98    1
    64    97    98    2
    65    98   100    1
    66    76    78   ar
    67    76    77   ar
    68   119   120    1
    69   119   116    1
    70   122   120   ar
    71   122   124   ar
    72   120   121   ar
    73   124   125   ar
    74   121   123   ar
    75   125   123   ar
    76   125   126    1
    77   115   116    1
    78    46    44    1
    79   116   117    1
    80    69    68    1
    81   117   118    2
    82    44    45    1
    83    44    43    2
    84    68    67    1
    85    35    33   am
    86    43    42    1
    87    67    66    1
    88    61    59   am
    89    53    51    1
    90    33    34    2
    91    33    32    1
    92    60    59    2
    93    59    58    1
    94    52    51    1
    95    66    63    1
    96    42    41    1
    97    32    31    1
    98    51    48    1
    99    63    62    1
   100    63    64    1
   101    57    56    2
   102    41    40    1
   103    58    55    1
   104    62    56   am
   105    48    47    1
   106    48    49    1
   107    56    55    1
   108    31    28    1
   109    64    65    2
   110    40    37    1
   111    55    54    1
   112    27    28    1
   113    37    38    1
   114    37    36    1
   115    49    50    2
   116    28    29    1
   117    38    39    2
   118    29    30    2
