@<TRIPOS>MOLECULE
tmp/4cx7B03.pdb
 205 201 0 0 0
SMALL
GASTEIGER

@<TRIPOS>ATOM
      1  N        -13.6860  -57.6450   42.9740 N.3    31  MET31      -0.1230
      2  CA       -14.0230  -58.7040   43.9480 C.3    31  MET31       0.1702
      3  C        -15.1050  -58.2650   44.8980 C.2    31  MET31       0.2593
      4  O        -16.1610  -58.9140   45.0500 O.2    31  MET31      -0.2718
      5  CB       -12.7990  -59.1700   44.7670 C.3    31  MET31       0.0401
      6  CG       -11.8650  -60.0450   43.9460 C.3    31  MET31       0.0596
      7  SD       -10.9490  -61.3120   44.8180 S.3    31  MET31      -0.1393
      8  CE       -12.1940  -62.5760   45.0070 C.3    31  MET31       0.0692
      9  N        -14.8430  -57.1250   45.5120 N.am   32  THR32      -0.1953
     10  CA       -15.6060  -56.7740   46.6600 C.3    32  THR32       0.1897
     11  C        -16.0930  -55.3180   46.5110 C.2    32  THR32       0.2313
     12  O        -15.6060  -54.4320   47.1670 O.2    32  THR32      -0.2863
     13  CB       -14.7880  -57.2140   47.9060 C.3    32  THR32       0.1794
     14  OG1      -15.3270  -56.6300   49.0760 O.3    32  THR32      -0.2208
     15  CG2      -13.2390  -56.9090   47.7630 C.3    32  THR32       0.0378
     16  N        -23.5740  -65.2810   43.6180 N.3   110  ARG110     -0.1231
     17  CA       -22.2670  -65.9070   43.3250 C.3   110  ARG110      0.1694
     18  C        -22.1800  -67.3470   43.8000 C.2   110  ARG110      0.2592
     19  O        -21.1340  -67.9780   43.6950 O.2   110  ARG110     -0.2718
     20  CB       -21.0910  -65.1260   43.9390 C.3   110  ARG110      0.0321
     21  CG       -21.0330  -63.6300   43.6380 C.3   110  ARG110      0.0489
     22  CD       -19.7430  -63.0100   44.1710 C.3   110  ARG110      0.2205
     23  NE       -19.2280  -61.9000   43.3540 N.pl3 110  ARG110     -0.0865
     24  CZ       -18.4700  -60.9080   43.8350 C.cat 110  ARG110      0.5346
     25  NH1      -18.1480  -60.8820   45.1240 N.pl3 110  ARG110      0.1354
     26  NH2      -18.0260  -59.9340   43.0510 N.pl3 110  ARG110      0.1354
     27  N        -23.2580  -67.8800   44.3470 N.am  111  CYS111     -0.1970
     28  CA       -23.1490  -69.2140   44.9030 C.3   111  CYS111      0.1712
     29  C        -23.7100  -70.2320   43.9230 C.2   111  CYS111      0.2296
     30  O        -24.9160  -70.2950   43.6910 O.2   111  CYS111     -0.2864
     31  CB       -23.8530  -69.3150   46.2510 C.3   111  CYS111      0.0983
     32  SG       -23.9510  -71.0050   46.8530 S.3   111  CYS111     -0.0798
     33  N        -12.6880  -64.0890   58.3710 N.3   173  ALA173     -0.1231
     34  CA       -13.4260  -64.2090   57.1160 C.3   173  ALA173      0.1694
     35  C        -14.0840  -65.6020   56.9380 C.2   173  ALA173      0.2591
     36  O        -15.2120  -65.6870   56.4750 O.2   173  ALA173     -0.2718
     37  CB       -12.5660  -63.8190   55.9360 C.3   173  ALA173      0.0304
     38  N        -13.4120  -66.6840   57.3300 N.am  174  GLN174     -0.1979
     39  CA       -14.0770  -68.0090   57.5000 C.3   174  GLN174      0.1601
     40  C        -13.8380  -68.5950   58.8850 C.2   174  GLN174      0.2287
     41  O        -13.0110  -68.0830   59.6650 O.2   174  GLN174     -0.2864
     42  CB       -13.6260  -69.0430   56.4630 C.3   174  GLN174      0.0394
     43  CG       -13.7180  -68.5750   55.0280 C.3   174  GLN174      0.0908
     44  CD       -12.3990  -68.0340   54.5130 C.2   174  GLN174      0.2608
     45  OE1      -11.3850  -68.7620   54.5060 O.2   174  GLN174     -0.2717
     46  NE2      -12.3990  -66.7680   54.0510 N.am  174  GLN174     -0.0878
     47  N         -9.6290  -71.6460   59.0150 N.3   177  ARG177     -0.1245
     48  CA        -8.6470  -71.2340   57.9780 C.3   177  ARG177      0.1563
     49  C         -7.2120  -71.3440   58.4710 C.2   177  ARG177      0.2260
     50  O         -6.9670  -71.1440   59.6470 O.2   177  ARG177     -0.2867
     51  CB        -8.9160  -69.8150   57.4940 C.3   177  ARG177      0.0307
     52  CG        -7.7720  -69.1670   56.7360 C.3   177  ARG177      0.0489
     53  CD        -8.3060  -68.0650   55.8350 C.3   177  ARG177      0.2205
     54  NE        -8.5610  -68.6230   54.5170 N.pl3 177  ARG177     -0.0865
     55  CZ        -8.0580  -68.1870   53.3610 C.cat 177  ARG177      0.5346
     56  NH1       -7.2750  -67.1110   53.2590 N.pl3 177  ARG177      0.1354
     57  NH2       -8.3880  -68.8510   52.2700 N.pl3 177  ARG177      0.1354
     58  N         -8.9660  -78.6760   55.3880 N.3   258  TYR258     -0.1241
     59  CA       -10.1760  -78.8030   56.2060 C.3   258  TYR258      0.1605
     60  C        -11.4180  -79.1860   55.4010 C.2   258  TYR258      0.2264
     61  O        -11.4720  -78.8940   54.2050 O.2   258  TYR258     -0.2867
     62  CB       -10.4420  -77.5280   56.9960 C.3   258  TYR258      0.0534
     63  CG       -10.1740  -76.2070   56.3110 C.ar  258  TYR258     -0.0201
     64  CD1      -11.1570  -75.5490   55.5710 C.ar  258  TYR258     -0.0009
     65  CD2       -8.9620  -75.5680   56.4660 C.ar  258  TYR258     -0.0009
     66  CE1      -10.9180  -74.3120   54.9710 C.ar  258  TYR258      0.0417
     67  CE2       -8.7100  -74.3280   55.8620 C.ar  258  TYR258      0.0417
     68  CZ        -9.6900  -73.7050   55.1190 C.ar  258  TYR258      0.1957
     69  OH        -9.4050  -72.4710   54.5710 O.3   258  TYR258     -0.2866
     70  N        -16.2900  -75.5850   54.6320 N.3   261  PRO261     -0.2116
     71  CA       -16.1580  -74.1930   54.1920 C.3   261  PRO261      0.1372
     72  C        -17.2920  -73.3670   54.8090 C.2   261  PRO261      0.2244
     73  O        -18.4690  -73.5840   54.4790 O.2   261  PRO261     -0.2868
     74  CB       -16.3410  -74.3230   52.6970 C.3   261  PRO261      0.0268
     75  CG       -17.3280  -75.4520   52.5470 C.3   261  PRO261      0.0207
     76  CD       -17.1110  -76.3830   53.7060 C.3   261  PRO261      0.0892
     77  N        -18.4930  -69.3080   55.8000 N.3   263  VAL263     -0.1245
     78  CA       -18.2350  -67.8730   55.7330 C.3   263  VAL263      0.1561
     79  C        -18.7010  -67.1610   57.0120 C.2   263  VAL263      0.2260
     80  O        -19.8950  -67.2270   57.3230 O.2   263  VAL263     -0.2867
     81  CB       -18.9940  -67.3070   54.5350 C.3   263  VAL263      0.0252
     82  CG1      -18.7500  -65.8120   54.3620 C.3   263  VAL263      0.0019
     83  CG2      -18.5990  -68.0790   53.3040 C.3   263  VAL263      0.0019
     84  N        -22.3930  -69.0570   57.8570 N.3   280  PHE280     -0.1227
     85  CA       -22.9900  -70.1480   57.1340 C.3   280  PHE280      0.1736
     86  C        -21.9140  -71.0600   56.5130 C.2   280  PHE280      0.2595
     87  O        -20.7810  -70.6300   56.2880 O.2   280  PHE280     -0.2718
     88  CB       -23.9700  -69.5920   56.0950 C.3   280  PHE280      0.0547
     89  CG       -23.4200  -68.4730   55.2850 C.ar  280  PHE280     -0.0202
     90  CD1      -23.4930  -67.1640   55.7480 C.ar  280  PHE280     -0.0042
     91  CD2      -22.8350  -68.7180   54.0630 C.ar  280  PHE280     -0.0042
     92  CE1      -22.9650  -66.1040   55.0050 C.ar  280  PHE280     -0.0003
     93  CE2      -22.3120  -67.6790   53.3070 C.ar  280  PHE280     -0.0003
     94  CZ       -22.3740  -66.3630   53.7700 C.ar  280  PHE280     -0.0000
     95  N        -22.2740  -72.3200   56.2760 N.am  281  ASN281     -0.1960
     96  CA       -21.4120  -73.2990   55.6370 C.3   281  ASN281      0.1819
     97  C        -22.2300  -74.1090   54.6730 C.2   281  ASN281      0.2622
     98  O        -23.4430  -74.2770   54.8410 O.2   281  ASN281     -0.2715
     99  CB       -20.8340  -74.2830   56.6630 C.3   281  ASN281      0.1195
    100  CG       -21.8660  -75.3210   57.1480 C.2   281  ASN281      0.2630
    101  OD1      -22.5650  -75.1160   58.1500 O.2   281  ASN281     -0.2716
    102  ND2      -21.9830  -76.4210   56.4160 N.am  281  ASN281     -0.0877
    103  N        -21.5500  -74.6480   53.6820 N.am  282  GLY282     -0.1940
    104  CA       -22.1090  -75.6540   52.7890 C.3   282  GLY282      0.2014
    105  C        -21.0030  -76.6880   52.6980 C.2   282  GLY282      0.2639
    106  O        -20.2920  -76.9190   53.6810 O.2   282  GLY282     -0.2714
    107  N        -20.8250  -77.2970   51.5350 N.am  283  TRP283     -0.1959
    108  CA       -19.7540  -78.2340   51.4170 C.3   283  TRP283      0.1771
    109  C        -18.8640  -77.8390   50.2590 C.2   283  TRP283      0.2620
    110  O        -19.2140  -76.9300   49.5470 O.2   283  TRP283     -0.2715
    111  CB       -20.3080  -79.6330   51.3380 C.3   283  TRP283      0.0590
    112  CG       -21.1630  -79.8920   50.2130 C.ar  283  TRP283      0.0006
    113  CD1      -20.8020  -79.9370   48.9100 C.ar  283  TRP283      0.0946
    114  CD2      -22.5290  -80.2390   50.2630 C.ar  283  TRP283      0.0152
    115  NE1      -21.8840  -80.2680   48.1200 N.ar  283  TRP283     -0.2442
    116  CE2      -22.9570  -80.4650   48.9320 C.ar  283  TRP283      0.0810
    117  CE3      -23.4480  -80.3550   51.2950 C.ar  283  TRP283      0.0012
    118  CZ2      -24.2480  -80.7870   48.6090 C.ar  283  TRP283      0.0191
    119  CZ3      -24.7460  -80.6700   50.9690 C.ar  283  TRP283      0.0001
    120  CH2      -25.1370  -80.8800   49.6330 C.ar  283  TRP283      0.0015
    121  N        -17.6940  -78.4520   50.0970 N.am  284  TYR284     -0.1960
    122  CA       -16.7360  -77.9210   49.1120 C.3   284  TYR284      0.1771
    123  C        -16.9750  -78.3410   47.6720 C.2   284  TYR284      0.2619
    124  O        -17.4650  -79.4440   47.3730 O.2   284  TYR284     -0.2715
    125  CB       -15.3250  -78.3450   49.4660 C.3   284  TYR284      0.0574
    126  CG       -14.5230  -77.3250   50.1930 C.ar  284  TYR284     -0.0198
    127  CD1      -14.1110  -76.1890   49.5720 C.ar  284  TYR284     -0.0009
    128  CD2      -14.1450  -77.5080   51.5080 C.ar  284  TYR284     -0.0009
    129  CE1      -13.3430  -75.2380   50.2330 C.ar  284  TYR284      0.0417
    130  CE2      -13.3740  -76.5580   52.1810 C.ar  284  TYR284      0.0417
    131  CZ       -12.9760  -75.4200   51.5300 C.ar  284  TYR284      0.1957
    132  OH       -12.2110  -74.4570   52.1420 O.3   284  TYR284     -0.2866
    133  N        -16.5810  -77.4780   46.7580 N.am  285  MET285     -0.1977
    134  CA       -16.4580  -77.9160   45.3870 C.3   285  MET285      0.1605
    135  C        -14.9790  -78.2430   45.1000 C.2   285  MET285      0.2287
    136  O        -14.0860  -77.4150   45.3720 O.2   285  MET285     -0.2864
    137  CB       -16.9850  -76.8360   44.4670 C.3   285  MET285      0.0413
    138  CG       -17.1640  -77.3520   43.0710 C.3   285  MET285      0.0598
    139  SD       -17.7160  -76.1750   41.8310 S.3   285  MET285     -0.1393
    140  CE       -16.5380  -74.8070   41.9770 C.3   285  MET285      0.0692
    141  N        -12.0480  -75.6060   44.4270 N.3   288  GLU288     -0.1245
    142  CA       -11.6650  -74.4350   45.1800 C.3   288  GLU288      0.1567
    143  C        -10.5100  -74.8050   46.0990 C.2   288  GLU288      0.2260
    144  O         -9.6650  -73.9460   46.4680 O.2   288  GLU288     -0.2867
    145  CB       -12.8280  -73.7220   45.8590 C.3   288  GLU288      0.0388
    146  CG       -14.0620  -74.5720   46.0880 C.3   288  GLU288      0.1160
    147  CD       -15.0600  -73.9030   47.0360 C.2   288  GLU288      0.3649
    148  OE1      -14.7030  -72.8650   47.6730 O.co2 288  GLU288     -0.2457
    149  OE2      -16.1890  -74.4280   47.1610 O.co2 288  GLU288     -0.2457
    150  N         -7.4820  -73.5680   43.3750 N.3   292  ARG292     -0.1231
    151  CA        -7.2550  -72.2810   44.0190 C.3   292  ARG292      0.1694
    152  C         -6.3620  -72.3930   45.2150 C.2   292  ARG292      0.2592
    153  O         -5.3200  -71.7690   45.2750 O.2   292  ARG292     -0.2718
    154  CB        -8.5710  -71.6360   44.4730 C.3   292  ARG292      0.0321
    155  CG        -9.5500  -71.4120   43.3550 C.3   292  ARG292      0.0489
    156  CD        -8.8970  -70.6370   42.2410 C.3   292  ARG292      0.2205
    157  NE        -8.6070  -69.2980   42.7200 N.pl3 292  ARG292     -0.0865
    158  CZ        -9.5170  -68.3470   42.7180 C.cat 292  ARG292      0.5346
    159  NH1      -10.7610  -68.6500   42.2500 N.pl3 292  ARG292      0.1354
    160  NH2       -9.1890  -67.1380   43.1710 N.pl3 292  ARG292      0.1354
    161  N         -6.8110  -73.1470   46.2050 N.am  293  ASP293     -0.1974
    162  CA        -6.1270  -73.1890   47.4670 C.3   293  ASP293      0.1709
    163  C         -4.7050  -73.7280   47.3000 C.2   293  ASP293      0.2293
    164  O         -3.7380  -73.2390   47.9280 O.2   293  ASP293     -0.2864
    165  CB        -6.9320  -74.0680   48.3820 C.3   293  ASP293      0.1436
    166  CG        -8.1180  -73.3730   48.8990 C.2   293  ASP293      0.3671
    167  OD1       -8.0710  -72.1330   48.9070 O.co2 293  ASP293     -0.2456
    168  OD2       -9.0730  -74.0460   49.3360 O.co2 293  ASP293     -0.2456
    169  N         -1.5080  -68.3550   47.1880 N.3   299  ARG299     -0.1245
    170  CA        -1.9900  -69.3610   48.1240 C.3   299  ARG299      0.1563
    171  C         -0.9210  -70.4110   48.3440 C.2   299  ARG299      0.2260
    172  O          0.2510  -70.0370   48.4370 O.2   299  ARG299     -0.2867
    173  CB        -3.3060  -69.9730   47.6570 C.3   299  ARG299      0.0307
    174  CG        -4.4130  -68.9410   47.5940 C.3   299  ARG299      0.0489
    175  CD        -4.5360  -68.2260   48.9260 C.3   299  ARG299      0.2205
    176  NE        -5.1230  -69.0990   49.9450 N.pl3 299  ARG299     -0.0865
    177  CZ        -6.4120  -69.4050   49.9740 C.cat 299  ARG299      0.5346
    178  NH1       -7.1960  -68.8770   49.0420 N.pl3 299  ARG299      0.1354
    179  NH2       -6.9140  -70.2140   50.9110 N.pl3 299  ARG299      0.1354
    180  N        -18.0320  -65.3970   38.8750 N.3   374  TRP374     -0.1241
    181  CA       -17.8580  -66.2510   40.0300 C.3   374  TRP374      0.1605
    182  C        -18.4360  -67.6150   39.7740 C.2   374  TRP374      0.2264
    183  O        -17.9800  -68.5830   40.3560 O.2   374  TRP374     -0.2867
    184  CB       -18.4890  -65.6330   41.2710 C.3   374  TRP374      0.0550
    185  CG       -17.5550  -64.6790   41.9500 C.ar  374  TRP374      0.0003
    186  CD1      -17.0290  -63.5010   41.4370 C.ar  374  TRP374      0.0946
    187  CD2      -17.0160  -64.8140   43.2690 C.ar  374  TRP374      0.0152
    188  NE1      -16.1940  -62.9170   42.3610 N.ar  374  TRP374     -0.2442
    189  CE2      -16.1680  -63.7040   43.4910 C.ar  374  TRP374      0.0810
    190  CE3      -17.1680  -65.7710   44.2930 C.ar  374  TRP374      0.0012
    191  CZ2      -15.4760  -63.5350   44.6860 C.ar  374  TRP374      0.0191
    192  CZ3      -16.4770  -65.5900   45.4890 C.ar  374  TRP374      0.0001
    193  CH2      -15.6520  -64.4800   45.6720 C.ar  374  TRP374      0.0015
    194  N        -21.3630  -57.9440   51.9750 N.3   402  TYR402     -0.1241
    195  CA       -19.9930  -58.0280   52.5310 C.3   402  TYR402      0.1605
    196  C        -19.8340  -56.8400   53.4580 C.2   402  TYR402      0.2264
    197  O        -20.5900  -55.8860   53.3340 O.2   402  TYR402     -0.2867
    198  CB       -18.9180  -57.9350   51.4380 C.3   402  TYR402      0.0534
    199  CG       -18.9430  -59.0040   50.3760 C.ar  402  TYR402     -0.0201
    200  CD1      -18.4120  -60.2690   50.6180 C.ar  402  TYR402     -0.0009
    201  CD2      -19.5130  -58.7440   49.1220 C.ar  402  TYR402     -0.0009
    202  CE1      -18.4570  -61.2650   49.6460 C.ar  402  TYR402      0.0417
    203  CE2      -19.5860  -59.7270   48.1380 C.ar  402  TYR402      0.0417
    204  CZ       -19.0410  -60.9960   48.3840 C.ar  402  TYR402      0.1957
    205  OH       -19.0790  -61.9780   47.3750 O.3   402  TYR402     -0.2866
@<TRIPOS>BOND
     1   180   181    1
     2   182   181    1
     3   182   183    2
     4   181   184    1
     5   184   185    1
     6   186   185   ar
     7   186   188   ar
     8   139   140    1
     9   139   138    1
    10   185   187   ar
    11   156   157    1
    12   156   155    1
    13   159   158    1
    14   188   189   ar
    15   158   157    2
    16   158   160    1
    17     1     2    1
    18    26    24    1
    19   138   137    1
    20   187   189   ar
    21   187   190   ar
    22    17    16    1
    23    17    18    1
    24    17    20    1
    25    23    24    2
    26    23    22    1
    27   155   154    1
    28   150   151    1
    29   189   191   ar
    30    21    20    1
    31    21    22    1
    32    30    29    2
    33    19    18    2
    34    18    27   am
    35    24    25    1
    36    29    28    1
    37     6     5    1
    38     6     7    1
    39     2     5    1
    40     2     3    1
    41   151   154    1
    42   151   152    1
    43   190   192   ar
    44    27    28    1
    45   141   142    1
    46   137   134    1
    47   191   193   ar
    48     7     8    1
    49     3     4    2
    50     3     9   am
    51    28    31    1
    52   135   136    2
    53   135   134    1
    54   142   145    1
    55   142   143    1
    56   152   153    2
    57   152   161   am
    58   134   133    1
    59   192   193   ar
    60     9    10    1
    61   145   146    1
    62   146   147    1
    63   143   144    2
    64   161   162    1
    65    31    32    1
    66    11    10    1
    67    11    12    2
    68    10    13    1
    69   133   123   am
    70   147   149   ar
    71   147   148   ar
    72   169   170    1
    73   163   162    1
    74   163   164    2
    75   124   123    2
    76   205   204    1
    77   162   165    1
    78   174   173    1
    79   174   175    1
    80   173   170    1
    81   123   122    1
    82    15    13    1
    83    13    14    1
    84   115   113   ar
    85   115   116   ar
    86   170   171    1
    87   203   204   ar
    88   203   201   ar
    89   171   172    2
    90   165   166    1
    91   204   202   ar
    92   118   116   ar
    93   118   120   ar
    94   166   167   ar
    95   166   168   ar
    96   113   112   ar
    97   175   176    1
    98   116   114   ar
    99   178   177    1
   100   122   125    1
   101   122   121    1
   102   201   199   ar
   103   125   126    1
   104   110   109    2
   105   127   126   ar
   106   127   129   ar
   107   120   119   ar
   108   202   200   ar
   109   176   177    2
   110   177   179    1
   111   121   109   am
   112   126   128   ar
   113   112   114   ar
   114   112   111    1
   115   129   131   ar
   116   109   108    1
   117   114   117   ar
   118   199   200   ar
   119   199   198    1
   120   119   117   ar
   121   111   108    1
   122   108   107    1
   123   198   195    1
   124   128   130   ar
   125   131   132    1
   126   131   130   ar
   127   107   105   am
   128   194   195    1
   129    57    55    1
   130   195   196    1
   131    75    74    1
   132    75    76    1
   133    74    71    1
   134   105   104    1
   135   105   106    2
   136   104   103    1
   137    56    55    1
   138    83    81    1
   139    93    94   ar
   140    93    91   ar
   141   197   196    2
   142    55    54    2
   143   103    97   am
   144    76    70    1
   145    94    92   ar
   146    46    44   am
   147    91    89   ar
   148    71    70    1
   149    71    72    1
   150    61    60    2
   151    82    81    1
   152    73    72    2
   153    45    44    2
   154    44    43    1
   155    54    53    1
   156    81    78    1
   157    69    68    1
   158    97    98    2
   159    97    96    1
   160    66    68   ar
   161    66    64   ar
   162    92    90   ar
   163    43    42    1
   164    68    67   ar
   165    89    90   ar
   166    89    88    1
   167    58    59    1
   168    60    59    1
   169    64    63   ar
   170    96    95    1
   171    96    99    1
   172    78    77    1
   173    78    79    1
   174    53    52    1
   175    67    65   ar
   176    37    34    1
   177    88    85    1
   178    59    62    1
   179    95    86   am
   180    87    86    2
   181    63    65   ar
   182    63    62    1
   183   102   100   am
   184    42    39    1
   185    36    35    2
   186    86    85    1
   187    99   100    1
   188    52    51    1
   189    35    34    1
   190    35    38   am
   191    79    80    2
   192    34    33    1
   193    85    84    1
   194   100   101    2
   195    38    39    1
   196    51    48    1
   197    39    40    1
   198    48    49    1
   199    48    47    1
   200    49    50    2
   201    40    41    2
