@<TRIPOS>MOLECULE
tmp/4cx9A00.pdb
 209 200 0 0 0
SMALL
GASTEIGER

@<TRIPOS>ATOM
      1  N          7.2410   31.0830   11.4410 N.3     9  ILE9       -0.1245
      2  CA         6.6640   30.2470   12.4580 C.3     9  ILE9        0.1561
      3  C          5.1500   30.0440   12.2960 C.2     9  ILE9        0.2260
      4  O          4.6310   28.9060   12.3320 O.2     9  ILE9       -0.2867
      5  CB         6.9660   30.8150   13.8760 C.3     9  ILE9        0.0252
      6  CG1        8.4510   30.6780   14.1440 C.3     9  ILE9        0.0019
      7  CG2        6.2090   30.0530   14.9250 C.3     9  ILE9        0.0019
      8  CD1        8.9600   31.5810   15.2980 C.3     9  ILE9        0.0001
      9  N          4.4110   27.6670    9.1990 N.3    12  ARG12      -0.1231
     10  CA         4.5520   26.2330    9.3930 C.3    12  ARG12       0.1694
     11  C          3.5140   25.7010   10.3840 C.2    12  ARG12       0.2591
     12  O          3.0000   24.5970   10.2310 O.2    12  ARG12      -0.2718
     13  CB         6.0070   25.8710    9.8060 C.3    12  ARG12       0.0321
     14  CG         6.4170   26.2540   11.2410 C.3    12  ARG12       0.0489
     15  CD         7.8910   26.6020   11.2980 C.3    12  ARG12       0.2205
     16  NE         8.3730   26.7530   12.6810 N.pl3  12  ARG12      -0.0865
     17  CZ         9.5500   27.3240   12.9680 C.cat  12  ARG12       0.5346
     18  NH1       10.2890   27.8550   12.0220 N.pl3  12  ARG12       0.1354
     19  NH2        9.9520   27.3910   14.2210 N.pl3  12  ARG12       0.1354
     20  N          3.2080   26.4750   11.4290 N.am   13  GLN13      -0.1979
     21  CA         2.1830   26.0890   12.4180 C.3    13  GLN13       0.1601
     22  C          0.8090   25.9210   11.7520 C.2    13  GLN13       0.2287
     23  O          0.0980   24.9400   12.0000 O.2    13  GLN13      -0.2864
     24  CB         2.1060   27.0770   13.5770 C.3    13  GLN13       0.0394
     25  CG         3.3060   26.9580   14.5120 C.3    13  GLN13       0.0908
     26  CD         3.3180   27.9580   15.6420 C.2    13  GLN13       0.2608
     27  OE1        2.6870   29.0130   15.5600 O.2    13  GLN13      -0.2717
     28  NE2        4.1170   27.6620   16.6670 N.am   13  GLN13      -0.0878
     29  N          0.7960   22.6970    9.6810 N.3    16  PHE16      -0.1227
     30  CA         0.6340   21.5120   10.5040 C.3    16  PHE16       0.1736
     31  C         -0.7770   21.3630   11.0900 C.2    16  PHE16       0.2596
     32  O         -1.2790   20.2480   11.2390 O.2    16  PHE16      -0.2718
     33  CB         1.7200   21.4570   11.6310 C.3    16  PHE16       0.0547
     34  CG         3.0830   21.0240   11.1370 C.ar   16  PHE16      -0.0202
     35  CD1        3.2510   19.7860   10.5270 C.ar   16  PHE16      -0.0042
     36  CD2        4.1920   21.8440   11.3380 C.ar   16  PHE16      -0.0042
     37  CE1        4.5260   19.3880   10.0840 C.ar   16  PHE16      -0.0003
     38  CE2        5.4290   21.4500   10.8760 C.ar   16  PHE16      -0.0003
     39  CZ         5.5670   20.2330   10.2580 C.ar   16  PHE16      -0.0000
     40  N         -1.4170   22.4480   11.4800 N.am   17  GLY17      -0.1957
     41  CA        -2.7550   22.3730   11.9510 C.3    17  GLY17       0.1869
     42  C         -3.7050   21.8040   10.9120 C.2    17  GLY17       0.2309
     43  O         -4.5560   20.9800   11.2390 O.2    17  GLY17      -0.2863
     44  N         -2.8030   19.8600    8.3770 N.3    19  ILE19      -0.1231
     45  CA        -2.4210   18.4520    8.2570 C.3    19  ILE19       0.1692
     46  C         -3.1160   17.6700    9.3430 C.2    19  ILE19       0.2591
     47  O         -3.6890   16.5940    9.0860 O.2    19  ILE19      -0.2718
     48  CB        -0.8890   18.3140    8.3630 C.3    19  ILE19       0.0266
     49  CG1       -0.2530   18.8300    7.0920 C.3    19  ILE19       0.0019
     50  CG2       -0.5000   16.8770    8.6080 C.3    19  ILE19       0.0020
     51  CD1        1.2530   19.0170    7.1830 C.3    19  ILE19       0.0001
     52  N         -3.0620   18.1410   10.5800 N.am   20  ALA20      -0.1980
     53  CA        -3.5970   17.3680   11.6980 C.3    20  ALA20       0.1597
     54  C         -5.1200   17.1890   11.6090 C.2    20  ALA20       0.2287
     55  O         -5.6590   16.1390   11.9700 O.2    20  ALA20      -0.2864
     56  CB        -3.2250   18.0070   13.0010 C.3    20  ALA20       0.0319
     57  N         -5.5870   14.5350    8.6760 N.3    23  PHE23      -0.1241
     58  CA        -5.0830   13.2340    9.1570 C.3    23  PHE23       0.1605
     59  C         -5.9630   12.6710   10.2610 C.2    23  PHE23       0.2264
     60  O         -6.2210   11.4650   10.3250 O.2    23  PHE23      -0.2867
     61  CB        -3.6180   13.3900    9.5790 C.3    23  PHE23       0.0534
     62  CG        -2.8960   12.0900    9.7410 C.ar   23  PHE23      -0.0203
     63  CD1       -2.5550   11.3350    8.6340 C.ar   23  PHE23      -0.0042
     64  CD2       -2.5290   11.6480   10.9910 C.ar   23  PHE23      -0.0042
     65  CE1       -1.9090   10.1360    8.7490 C.ar   23  PHE23      -0.0003
     66  CE2       -1.8610   10.4510   11.1300 C.ar   23  PHE23      -0.0003
     67  CZ        -1.5500    9.6980   10.0030 C.ar   23  PHE23      -0.0000
     68  N         -3.6010   15.7650    2.7410 N.3    48  VAL48      -0.1245
     69  CA        -2.3780   15.5430    3.5120 C.3    48  VAL48       0.1561
     70  C         -1.1410   15.4610    2.6520 C.2    48  VAL48       0.2260
     71  O         -0.1010   16.0170    2.9880 O.2    48  VAL48      -0.2867
     72  CB        -2.4990   14.3320    4.4760 C.3    48  VAL48       0.0252
     73  CG1       -1.2090   14.0900    5.2400 C.3    48  VAL48       0.0019
     74  CG2       -3.6000   14.6150    5.5090 C.3    48  VAL48       0.0019
     75  N         10.9310   26.6230    8.2320 N.3    59  PHE59      -0.1241
     76  CA        12.0110   26.3190    9.1720 C.3    59  PHE59       0.1605
     77  C         13.3260   27.0470    8.8750 C.2    59  PHE59       0.2264
     78  O         14.3840   26.4580    8.6110 O.2    59  PHE59      -0.2867
     79  CB        12.1760   24.8180    9.3030 C.3    59  PHE59       0.0534
     80  CG        11.0120   24.1710   10.0380 C.ar   59  PHE59      -0.0203
     81  CD1       11.0200   24.0580   11.4020 C.ar   59  PHE59      -0.0042
     82  CD2        9.9010   23.6610    9.3480 C.ar   59  PHE59      -0.0042
     83  CE1        9.9900   23.5030   12.1160 C.ar   59  PHE59      -0.0003
     84  CE2        8.8600   23.0660   10.0740 C.ar   59  PHE59      -0.0003
     85  CZ         8.8990   22.9770   11.4590 C.ar   59  PHE59      -0.0000
     86  N          7.2260   29.3060   19.4520 N.3    68  THR68      -0.1203
     87  CA         7.4110   28.0630   18.6780 C.3    68  THR68       0.1994
     88  C          7.6970   26.8840   19.5640 C.2    68  THR68       0.2618
     89  O          8.2840   27.0050   20.6600 O.2    68  THR68      -0.2717
     90  CB         8.4930   28.2470   17.5890 C.3    68  THR68       0.1784
     91  OG1        8.5480   27.0610   16.7890 O.3    68  THR68      -0.2211
     92  CG2        9.8970   28.4480   18.2050 C.3    68  THR68       0.0376
     93  N          7.2700   25.7070   19.1030 N.am   69  GLU69      -0.1965
     94  CA         7.6310   24.4470   19.6990 C.3    69  GLU69       0.1733
     95  C          8.7060   23.6930   18.9450 C.2    69  GLU69       0.2616
     96  O          8.9930   22.5280   19.2650 O.2    69  GLU69      -0.2715
     97  CB         6.3820   23.5350   19.8150 C.3    69  GLU69       0.0429
     98  CG         5.1510   24.1980   20.4230 C.3    69  GLU69       0.1163
     99  CD         5.4050   24.6200   21.8500 C.2    69  GLU69       0.3649
    100  OE1        5.8680   23.7540   22.6330 O.co2  69  GLU69      -0.2457
    101  OE2        5.1830   25.8270   22.1480 O.co2  69  GLU69      -0.2457
    102  N          9.2930   24.3400   17.9500 N.am   70  ALA70      -0.1977
    103  CA        10.4060   23.7720   17.1910 C.3    70  ALA70       0.1597
    104  C         11.6520   23.8590   18.0550 C.2    70  ALA70       0.2287
    105  O         11.9680   24.9400   18.5530 O.2    70  ALA70      -0.2864
    106  CB        10.6060   24.5110   15.8760 C.3    70  ALA70       0.0319
    107  N         16.7170   21.0410   15.3380 N.3    74  ILE74      -0.1245
    108  CA        16.4230   21.1170   13.9000 C.3    74  ILE74       0.1561
    109  C         17.5740   21.6300   13.0760 C.2    74  ILE74       0.2260
    110  O         17.8970   21.0670   12.0650 O.2    74  ILE74      -0.2867
    111  CB        15.1360   21.9230   13.6470 C.3    74  ILE74       0.0252
    112  CG1       13.9510   21.1750   14.3020 C.3    74  ILE74       0.0019
    113  CG2       14.9230   22.1450   12.1340 C.3    74  ILE74       0.0019
    114  CD1       12.6830   21.9730   14.2250 C.3    74  ILE74       0.0001
    115  N         16.5230   16.2230    9.7200 N.3    81  PHE81      -0.1241
    116  CA        15.2040   16.8380    9.6440 C.3    81  PHE81       0.1605
    117  C         14.6480   16.7780    8.2230 C.2    81  PHE81       0.2264
    118  O         13.4640   16.4330    8.0670 O.2    81  PHE81      -0.2867
    119  CB        15.2730   18.3030   10.1270 C.3    81  PHE81       0.0534
    120  CG        13.9390   18.9960   10.2100 C.ar   81  PHE81      -0.0203
    121  CD1       13.1020   18.7840   11.2850 C.ar   81  PHE81      -0.0042
    122  CD2       13.5210   19.8710    9.2060 C.ar   81  PHE81      -0.0042
    123  CE1       11.8830   19.4650   11.3990 C.ar   81  PHE81      -0.0003
    124  CE2       12.3180   20.5260    9.3030 C.ar   81  PHE81      -0.0003
    125  CZ        11.5170   20.3480   10.4110 C.ar   81  PHE81      -0.0000
    126  N         13.6730   13.2610    7.2040 N.3    84  LYS84      -0.1231
    127  CA        12.3920   12.9340    7.8320 C.3    84  LYS84       0.1693
    128  C         11.2420   13.6310    7.0940 C.2    84  LYS84       0.2591
    129  O         10.1810   13.0360    6.8620 O.2    84  LYS84      -0.2718
    130  CB        12.3740   13.3110    9.3150 C.3    84  LYS84       0.0285
    131  CG        13.1410   12.3300   10.1880 C.3    84  LYS84       0.0035
    132  CD        12.9010   12.7150   11.6340 C.3    84  LYS84       0.0206
    133  CE        13.7350   11.9890   12.6970 C.3    84  LYS84       0.1093
    134  NZ        13.9990   10.5720   12.4700 N.3    84  LYS84      -0.1314
    135  N         11.4260   14.9160    6.8010 N.am   85  MET85      -0.1979
    136  CA        10.3890   15.6680    6.0970 C.3    85  MET85       0.1605
    137  C         10.0890   15.0840    4.7140 C.2    85  MET85       0.2287
    138  O          8.9110   14.9480    4.3390 O.2    85  MET85      -0.2864
    139  CB        10.7810   17.1180    5.9400 C.3    85  MET85       0.0413
    140  CG         9.6360   17.9790    5.4260 C.3    85  MET85       0.0598
    141  SD         8.2450   18.2050    6.5730 S.3    85  MET85      -0.1393
    142  CE         8.9490   19.3650    7.7460 C.3    85  MET85       0.0692
    143  N          8.2960   11.8570    5.0640 N.3    88  PHE88      -0.1241
    144  CA         6.8800   12.1650    5.3840 C.3    88  PHE88       0.1605
    145  C          6.0820   12.4270    4.1130 C.2    88  PHE88       0.2264
    146  O          5.0080   11.8600    3.9150 O.2    88  PHE88      -0.2867
    147  CB         6.8140   13.3640    6.3490 C.3    88  PHE88       0.0534
    148  CG         5.4410   13.9650    6.5240 C.ar   88  PHE88      -0.0203
    149  CD1        4.3120   13.1980    6.7430 C.ar   88  PHE88      -0.0042
    150  CD2        5.2960   15.3520    6.6010 C.ar   88  PHE88      -0.0042
    151  CE1        3.0850   13.7650    6.9180 C.ar   88  PHE88      -0.0003
    152  CE2        4.0700   15.9180    6.8180 C.ar   88  PHE88      -0.0003
    153  CZ         2.9650   15.1490    6.9960 C.ar   88  PHE88      -0.0000
    154  N          2.4470    6.6290    7.7850 N.3   114  THR114     -0.1218
    155  CA         2.4470    8.1280    7.8040 C.3   114  THR114      0.1862
    156  C          2.4510    8.6300    9.2460 C.2   114  THR114      0.2287
    157  O          3.2170    9.5320    9.5960 O.2   114  THR114     -0.2866
    158  CB         1.2570    8.6920    7.0320 C.3   114  THR114      0.1770
    159  OG1        1.2740    8.1450    5.7290 O.3   114  THR114     -0.2211
    160  CG2        1.2910   10.1860    6.9580 C.3   114  THR114      0.0375
    161  N          5.8910    8.6760   10.6720 N.3   117  SER117     -0.1202
    162  CA         6.5780    9.9110   10.2630 C.3   117  SER117      0.2020
    163  C          6.2950   11.0600   11.2490 C.2   117  SER117      0.2619
    164  O          7.2090   11.7330   11.6740 O.2   117  SER117     -0.2717
    165  CB         6.2260   10.3430    8.8360 C.3   117  SER117      0.2103
    166  OG         6.9660    9.5970    7.8760 O.3   117  SER117     -0.2182
    167  N          5.0320   11.2790   11.5920 N.am  118  CYS118     -0.1969
    168  CA         4.6880   12.3100   12.5360 C.3   118  CYS118      0.1712
    169  C          5.4210   12.0860   13.8530 C.2   118  CYS118      0.2296
    170  O          6.0110   13.0480   14.3880 O.2   118  CYS118     -0.2864
    171  CB         3.1940   12.3680   12.8700 C.3   118  CYS118      0.0983
    172  SG         1.9860   12.1480   11.5600 S.3   118  CYS118     -0.0798
    173  N          9.4070   12.4550   13.8830 N.3   121  CYS121     -0.1221
    174  CA         9.8660   13.7920   13.9410 C.3   121  CYS121      0.1808
    175  C          9.5170   14.5550   15.2130 C.2   121  CYS121      0.2601
    176  O         10.3750   15.2360   15.8000 O.2   121  CYS121     -0.2717
    177  CB         9.4200   14.5030   12.6720 C.3   121  CYS121      0.0970
    178  SG        10.1380   16.1270   12.5350 S.3   121  CYS121     -0.0800
    179  N          8.2720   14.4410   15.6620 N.am  122  HIS122     -0.1975
    180  CA         7.8370   14.9700   16.9290 C.3   122  HIS122      0.1656
    181  C          8.8230   14.6520   18.0630 C.2   122  HIS122      0.2291
    182  O          9.2210   15.5330   18.8200 O.2   122  HIS122     -0.2864
    183  CB         6.4570   14.3810   17.2230 C.3   122  HIS122      0.0771
    184  CG         5.9480   14.6930   18.5880 C.ar  122  HIS122      0.0820
    185  ND1        6.2250   13.8860   19.6710 N.ar  122  HIS122     -0.2267
    186  CD2        5.1710   15.6980   19.0460 C.ar  122  HIS122      0.1154
    187  CE1        5.6530   14.4000   20.7480 C.ar  122  HIS122      0.1986
    188  NE2        5.0150   15.5040   20.3960 N.ar  122  HIS122     -0.2212
    189  N         12.2960   16.5320   17.3350 N.3   125  TYR125     -0.1227
    190  CA        12.4370   17.9350   16.9330 C.3   125  TYR125      0.1736
    191  C         11.3850   18.9160   17.4870 C.2   125  TYR125      0.2595
    192  O         11.4700   20.1260   17.2130 O.2   125  TYR125     -0.2718
    193  CB        12.4660   17.9890   15.4070 C.3   125  TYR125      0.0548
    194  CG        13.6900   17.3730   14.8620 C.ar  125  TYR125     -0.0200
    195  CD1       14.9370   17.9150   15.1310 C.ar  125  TYR125     -0.0009
    196  CD2       13.6420   16.2150   14.0840 C.ar  125  TYR125     -0.0009
    197  CE1       16.0880   17.3020   14.6480 C.ar  125  TYR125      0.0417
    198  CE2       14.8000   15.6230   13.5540 C.ar  125  TYR125      0.0417
    199  CZ        16.0260   16.1860   13.8190 C.ar  125  TYR125      0.1957
    200  OH        17.1900   15.5910   13.3560 O.3   125  TYR125     -0.2866
    201  N         10.3970   18.4160   18.2250 N.am  126  LYS126     -0.1980
    202  CA         9.3160   19.2480   18.8150 C.3   126  LYS126      0.1596
    203  C          9.3400   19.1600   20.3180 C.2   126  LYS126      0.2287
    204  O          9.5030   18.0780   20.8700 O.2   126  LYS126     -0.2864
    205  CB         7.9330   18.8200   18.3020 C.3   126  LYS126      0.0298
    206  CG         6.8130   19.7940   18.6160 C.3   126  LYS126      0.0038
    207  CD         5.4890   19.3370   18.0060 C.3   126  LYS126      0.0206
    208  CE         4.3760   20.3170   18.2400 C.3   126  LYS126      0.1093
    209  NZ         3.7920   20.2180   19.6140 N.3   126  LYS126     -0.1314
@<TRIPOS>BOND
     1    70    71    2
     2    70    69    1
     3    68    69    1
     4    69    72    1
     5   146   145    2
     6   145   144    1
     7   138   137    2
     8    72    73    1
     9    72    74    1
    10   137   136    1
    11   143   144    1
    12   144   147    1
    13   140   139    1
    14   140   141    1
    15   159   158    1
    16   139   136    1
    17   136   135    1
    18   147   148    1
    19   148   150   ar
    20   148   149   ar
    21   141   142    1
    22   150   152   ar
    23   149   151   ar
    24   135   128   am
    25   152   153   ar
    26   129   128    2
    27   151   153   ar
    28   160   158    1
    29   158   155    1
    30    49    51    1
    31    49    48    1
    32   128   127    1
    33   126   127    1
    34   154   155    1
    35   155   156    1
    36   127   130    1
    37   166   165    1
    38   118   117    2
    39   117   116    1
    40    75    76    1
    41    45    48    1
    42    45    44    1
    43    45    46    1
    44    48    50    1
    45    78    77    2
    46    63    65   ar
    47    63    62   ar
    48    57    58    1
    49    65    67   ar
    50   165   162    1
    51    77    76    1
    52    47    46    2
    53    58    61    1
    54    58    59    1
    55    76    79    1
    56     9    10    1
    57   122   124   ar
    58   122   120   ar
    59   156   157    2
    60    79    80    1
    61   124   125   ar
    62   130   131    1
    63    46    52   am
    64    82    80   ar
    65    82    84   ar
    66    10    13    1
    67    10    11    1
    68    61    62    1
    69   116   115    1
    70   116   119    1
    71    29    30    1
    72    62    64   ar
    73    13    14    1
    74    67    66   ar
    75    80    81   ar
    76    84    85   ar
    77    37    39   ar
    78    37    35   ar
    79   119   120    1
    80   131   132    1
    81   120   121   ar
    82    12    11    2
    83    39    38   ar
    84    59    60    2
    85   162   161    1
    86   162   163    1
    87    11    20   am
    88   125   123   ar
    89    30    31    1
    90    30    33    1
    91    35    34   ar
    92    52    53    1
    93    38    36   ar
    94    42    43    2
    95    42    41    1
    96    64    66   ar
    97    31    32    2
    98    31    40   am
    99    34    36   ar
   100    34    33    1
   101    14    15    1
   102   163   167   am
   103   163   164    2
   104   121   123   ar
   105    15    16    1
   106    81    83   ar
   107    20    21    1
   108     1     2    1
   109    85    83   ar
   110    40    41    1
   111   172   171    1
   112   167   168    1
   113    54    53    1
   114    54    55    2
   115   132   133    1
   116    53    56    1
   117    22    23    2
   118    22    21    1
   119    18    17    1
   120   110   109    2
   121   113   111    1
   122     3     4    2
   123     3     2    1
   124    21    24    1
   125     2     5    1
   126   134   133    1
   127   178   177    1
   128   168   171    1
   129   168   169    1
   130   177   174    1
   131    16    17    2
   132    17    19    1
   133   109   108    1
   134   200   199    1
   135   198   199   ar
   136   198   196   ar
   137    24    25    1
   138   111   108    1
   139   111   112    1
   140   199   197   ar
   141   169   170    2
   142     5     6    1
   143     5     7    1
   144   173   174    1
   145   108   107    1
   146   174   175    1
   147   196   194   ar
   148     6     8    1
   149   114   112    1
   150    25    26    1
   151   197   195   ar
   152   194   195   ar
   153   194   193    1
   154   175   179   am
   155   175   176    2
   156   193   190    1
   157    27    26    2
   158    26    28   am
   159   179   180    1
   160   106   103    1
   161    91    90    1
   162   180   183    1
   163   180   181    1
   164   190   189    1
   165   190   191    1
   166   103   102    1
   167   103   104    1
   168   192   191    2
   169   183   184    1
   170   191   201   am
   171    90    92    1
   172    90    87    1
   173   102    95   am
   174   207   208    1
   175   207   206    1
   176   104   105    2
   177   181   182    2
   178   201   202    1
   179   208   209    1
   180   205   206    1
   181   205   202    1
   182   184   186   ar
   183   184   185   ar
   184    87    86    1
   185    87    88    1
   186   202   203    1
   187    95    96    2
   188    95    94    1
   189   186   188   ar
   190    93    88   am
   191    93    94    1
   192    88    89    2
   193   185   187   ar
   194    94    97    1
   195    97    98    1
   196   203   204    2
   197   188   187   ar
   198    98    99    1
   199    99   101   ar
   200    99   100   ar
