@<TRIPOS>MOLECULE
tmp/4cxaA00.pdb
 199 190 0 0 0
SMALL
GASTEIGER

@<TRIPOS>ATOM
      1  N         14.0830  -21.4160    6.9950 N.3    16  ILE16      -0.1231
      2  CA        13.1520  -22.0610    7.9180 C.3    16  ILE16       0.1696
      3  C         11.7120  -21.5990    7.6820 C.2    16  ILE16       0.2632
      4  O         10.7650  -22.3700    7.8590 O.2    16  ILE16      -0.2714
      5  CB        13.5690  -21.8100    9.3700 C.3    16  ILE16       0.0266
      6  CG1       14.9330  -22.4510    9.6180 C.3    16  ILE16       0.0019
      7  CG2       12.5680  -22.4010   10.3300 C.3    16  ILE16       0.0020
      8  CD1       15.3840  -22.3730   11.0460 C.3    16  ILE16       0.0001
      9  N         11.5500  -20.3480    7.2590 N.am   17  GLY17      -0.1718
     10  CA        10.2290  -19.8340    6.9430 C.2    17  GLY17       0.1480
     11  C         10.1470  -18.3600    6.6040 C.2    17  GLY17       0.2820
     12  O         11.0030  -17.5660    6.9910 O.2    17  GLY17      -0.2669
     13  N          9.0890  -18.0020    5.8780 N.am   18  GLU18      -0.1929
     14  CA         8.8410  -16.6190    5.4930 C.3    18  GLU18       0.1736
     15  C          8.0320  -15.8550    6.5370 C.2    18  GLU18       0.2617
     16  O          6.8780  -16.1860    6.8120 O.2    18  GLU18      -0.2715
     17  CB         8.1250  -16.5750    4.1390 C.3    18  GLU18       0.0429
     18  CG         8.8270  -17.3070    3.0240 C.3    18  GLU18       0.1163
     19  CD         8.1280  -17.1360    1.6840 C.2    18  GLU18       0.3649
     20  OE1        6.8870  -16.9670    1.6560 O.co2  18  GLU18      -0.2457
     21  OE2        8.8290  -17.1730    0.6520 O.co2  18  GLU18      -0.2457
     22  N          8.6470  -14.8220    7.1040 N.am   19  GLY19      -0.1940
     23  CA         8.0060  -13.9970    8.1110 C.3    19  GLY19       0.2014
     24  C          7.5470  -12.6540    7.5750 C.2    19  GLY19       0.2640
     25  O          7.6400  -12.3870    6.3750 O.2    19  GLY19      -0.2714
     26  N          7.0370  -11.8100    8.4700 N.am   20  THR20      -0.1936
     27  CA         6.6250  -10.4560    8.1110 C.3    20  THR20       0.2028
     28  C          7.8470   -9.6400    7.7180 C.2    20  THR20       0.2642
     29  O          7.7930   -8.7660    6.8460 O.2    20  THR20      -0.2714
     30  CB         5.9220   -9.7500    9.2920 C.3    20  THR20       0.1808
     31  OG1        5.1310  -10.6920   10.0290 O.3    20  THR20      -0.2208
     32  CG2        5.0500   -8.6050    8.8030 C.3    20  THR20       0.0379
     33  N          8.9600   -9.9900    8.3530 N.am   21  TYR21      -0.1973
     34  CA        10.2590   -9.3830    8.1160 C.3    21  TYR21       0.1639
     35  C         10.7240   -9.5700    6.6890 C.2    21  TYR21       0.2290
     36  O         11.2540   -8.6570    6.0550 O.2    21  TYR21      -0.2864
     37  CB        11.3090  -10.0150    9.0310 C.3    21  TYR21       0.0560
     38  CG        11.4290   -9.4780   10.4360 C.ar   21  TYR21      -0.0198
     39  CD1       10.3520   -8.8970   11.0950 C.ar   21  TYR21      -0.0009
     40  CD2       12.6370   -9.5790   11.1130 C.ar   21  TYR21      -0.0009
     41  CE1       10.4860   -8.4230   12.3900 C.ar   21  TYR21       0.0417
     42  CE2       12.7790   -9.1110   12.3940 C.ar   21  TYR21       0.0417
     43  CZ        11.7070   -8.5350   13.0300 C.ar   21  TYR21       0.1957
     44  OH        11.8690   -8.0790   14.3130 O.3    21  TYR21      -0.2866
     45  N         13.3700  -16.1970    7.5480 N.3    24  VAL24      -0.1245
     46  CA        14.1280  -16.6360    8.7170 C.3    24  VAL24       0.1561
     47  C         15.0810  -17.7590    8.3180 C.2    24  VAL24       0.2260
     48  O         14.6680  -18.7330    7.6880 O.2    24  VAL24      -0.2867
     49  CB        13.2050  -17.1260    9.8510 C.3    24  VAL24       0.0252
     50  CG1       13.9930  -17.2840   11.1400 C.3    24  VAL24       0.0019
     51  CG2       12.0510  -16.1620   10.0540 C.3    24  VAL24       0.0019
     52  N         19.4200  -18.7750   14.9490 N.3    37  ALA37      -0.1245
     53  CA        18.3480  -18.3520   14.0500 C.3    37  ALA37       0.1562
     54  C         18.5270  -16.8920   13.6290 C.2    37  ALA37       0.2260
     55  O         18.8080  -16.0310   14.4620 O.2    37  ALA37      -0.2867
     56  CB        16.9970  -18.5520   14.7010 C.3    37  ALA37       0.0290
     57  N         16.6860  -13.6510   11.7290 N.3    39  LYS39      -0.1245
     58  CA        15.5160  -13.0090   11.1270 C.3    39  LYS39       0.1561
     59  C         15.9050  -11.7760   10.3020 C.2    39  LYS39       0.2260
     60  O         16.4660  -10.8160   10.8280 O.2    39  LYS39      -0.2867
     61  CB        14.4830  -12.6390   12.1970 C.3    39  LYS39       0.0271
     62  CG        13.3680  -13.6720   12.3150 C.3    39  LYS39       0.0035
     63  CD        12.1450  -13.1510   13.0530 C.3    39  LYS39       0.0206
     64  CE        12.3480  -13.1810   14.5500 C.3    39  LYS39       0.1093
     65  NZ        11.0660  -13.0270   15.2840 N.3    39  LYS39      -0.1314
     66  N         12.2210  -16.7030   24.3750 N.3    70  VAL70      -0.1245
     67  CA        13.3390  -16.7150   23.4360 C.3    70  VAL70       0.1561
     68  C         14.2690  -15.5130   23.5850 C.2    70  VAL70       0.2260
     69  O         13.8630  -14.3630   23.4210 O.2    70  VAL70      -0.2867
     70  CB        12.8470  -16.8030   21.9680 C.3    70  VAL70       0.0252
     71  CG1       11.8610  -15.6960   21.6410 C.3    70  VAL70       0.0019
     72  CG2       14.0300  -16.7580   21.0160 C.3    70  VAL70       0.0019
     73  N         18.9990  -15.1430   17.3120 N.3    94  PHE94      -0.1227
     74  CA        18.3940  -15.8670   18.4290 C.3    94  PHE94       0.1736
     75  C         19.0910  -17.1760   18.7770 C.2    94  PHE94       0.2595
     76  O         20.0490  -17.5950   18.1290 O.2    94  PHE94      -0.2718
     77  CB        16.9240  -16.1650   18.1360 C.3    94  PHE94       0.0547
     78  CG        16.0910  -14.9430   17.9470 C.ar   94  PHE94      -0.0202
     79  CD1       15.5770  -14.2640   19.0380 C.ar   94  PHE94      -0.0042
     80  CD2       15.8380  -14.4580   16.6790 C.ar   94  PHE94      -0.0042
     81  CE1       14.8120  -13.1340   18.8650 C.ar   94  PHE94      -0.0003
     82  CE2       15.0800  -13.3270   16.5000 C.ar   94  PHE94      -0.0003
     83  CZ        14.5620  -12.6640   17.5920 C.ar   94  PHE94      -0.0000
     84  N         18.5750  -17.8110   19.8210 N.am   95  GLU95      -0.1965
     85  CA        18.8990  -19.1850   20.1500 C.3    95  GLU95       0.1733
     86  C         18.3900  -20.0180   18.9920 C.2    95  GLU95       0.2616
     87  O         17.5190  -19.5620   18.2510 O.2    95  GLU95      -0.2715
     88  CB        18.1900  -19.6020   21.4340 C.3    95  GLU95       0.0429
     89  CG        18.5310  -18.7810   22.6560 C.3    95  GLU95       0.1163
     90  CD        17.4840  -18.9470   23.7370 C.2    95  GLU95       0.3649
     91  OE1       16.2840  -18.9540   23.3850 O.co2  95  GLU95      -0.2457
     92  OE2       17.8500  -19.0680   24.9250 O.co2  95  GLU95      -0.2457
     93  N         18.8940  -21.2300   18.8160 N.am   96  TYR96      -0.1960
     94  CA        18.3160  -22.0450   17.7630 C.3    96  TYR96       0.1771
     95  C         17.4120  -23.0830   18.3830 C.2    96  TYR96       0.2619
     96  O         17.8100  -23.8200   19.2850 O.2    96  TYR96      -0.2715
     97  CB        19.3560  -22.7390   16.8940 C.3    96  TYR96       0.0574
     98  CG        18.6780  -23.4520   15.7480 C.ar   96  TYR96      -0.0198
     99  CD1       18.0150  -22.7310   14.7630 C.ar   96  TYR96      -0.0009
    100  CD2       18.6410  -24.8400   15.6820 C.ar   96  TYR96      -0.0009
    101  CE1       17.3710  -23.3680   13.7210 C.ar   96  TYR96       0.0417
    102  CE2       17.9950  -25.4880   14.6400 C.ar   96  TYR96       0.0417
    103  CZ        17.3610  -24.7450   13.6630 C.ar   96  TYR96       0.1957
    104  OH        16.7150  -25.3730   12.6230 O.3    96  TYR96      -0.2866
    105  N         16.1940  -23.1480   17.8700 N.am   97  MET97      -0.1977
    106  CA        15.2410  -24.1370   18.3190 C.3    97  MET97       0.1605
    107  C         14.9230  -25.0290   17.1410 C.2    97  MET97       0.2287
    108  O         14.5830  -24.5550   16.0570 O.2    97  MET97      -0.2864
    109  CB        13.9730  -23.4780   18.8680 C.3    97  MET97       0.0413
    110  CG        14.2260  -22.4700   19.9720 C.3    97  MET97       0.0598
    111  SD        14.9330  -23.2370   21.4420 S.3    97  MET97      -0.1393
    112  CE        13.4880  -24.0440   22.1220 C.3    97  MET97       0.0692
    113  N          8.9570  -26.2300   15.9970 N.3   100  ASP100     -0.1239
    114  CA         7.8370  -25.4810   16.5770 C.3   100  ASP100      0.1674
    115  C          6.6100  -26.3970   16.5950 C.2   100  ASP100      0.2266
    116  O          6.5280  -27.3460   15.8120 O.2   100  ASP100     -0.2867
    117  CB         7.5320  -24.1900   15.8080 C.3   100  ASP100      0.1410
    118  CG         7.0240  -24.4480   14.4090 C.2   100  ASP100      0.3668
    119  OD1        7.3470  -25.5140   13.8570 O.co2 100  ASP100     -0.2456
    120  OD2        6.2970  -23.5920   13.8630 O.co2 100  ASP100     -0.2456
    121  N         -0.2560  -12.6610   19.9140 N.3   140  ASP140     -0.1239
    122  CA        -0.1460  -13.4700   18.6970 C.3   140  ASP140      0.1674
    123  C          0.3320  -14.8790   19.0210 C.2   140  ASP140      0.2266
    124  O          1.2460  -15.3970   18.3840 O.2   140  ASP140     -0.2867
    125  CB         0.7930  -12.8180   17.6730 C.3   140  ASP140      0.1410
    126  CG         0.6450  -13.4200   16.2760 C.2   140  ASP140      0.3668
    127  OD1       -0.3880  -14.0780   16.0170 O.co2 140  ASP140     -0.2456
    128  OD2        1.5580  -13.2390   15.4400 O.co2 140  ASP140     -0.2456
    129  N          0.1980  -18.6260   18.8090 N.3   142  LYS142     -0.1245
    130  CA        -0.3010  -19.7100   17.9870 C.3   142  LYS142      0.1561
    131  C          0.7200  -20.8300   18.0880 C.2   142  LYS142      0.2260
    132  O          1.8010  -20.6260   18.6370 O.2   142  LYS142     -0.2867
    133  CB        -0.5000  -19.2430   16.5400 C.3   142  LYS142      0.0271
    134  CG         0.7070  -18.5010   15.9600 C.3   142  LYS142      0.0035
    135  CD         0.4170  -17.8360   14.6100 C.3   142  LYS142      0.0206
    136  CE         0.1050  -18.8420   13.5110 C.3   142  LYS142      0.1093
    137  NZ        -0.0660  -18.1740   12.1870 N.3   142  LYS142     -0.1314
    138  N          2.4170  -22.0890   15.7710 N.3   144  SER144     -0.1202
    139  CA         3.5290  -21.7090   14.9160 C.3   144  SER144      0.2020
    140  C          4.5080  -20.7640   15.6050 C.2   144  SER144      0.2618
    141  O          5.6360  -20.5920   15.1470 O.2   144  SER144     -0.2717
    142  CB         2.9890  -21.0570   13.6430 C.3   144  SER144      0.2103
    143  OG         3.9800  -20.2740   13.0070 O.3   144  SER144     -0.2182
    144  N          4.0830  -20.1660   16.7120 N.am  145  ASN145     -0.1974
    145  CA         4.9320  -19.2330   17.4460 C.3   145  ASN145      0.1688
    146  C          5.4770  -19.7980   18.7500 C.2   145  ASN145      0.2292
    147  O          6.1050  -19.0780   19.5290 O.2   145  ASN145     -0.2864
    148  CB         4.1660  -17.9440   17.7310 C.3   145  ASN145      0.1181
    149  CG         4.0750  -17.0490   16.5190 C.2   145  ASN145      0.2629
    150  OD1        4.8990  -17.1310   15.6090 O.2   145  ASN145     -0.2716
    151  ND2        3.0690  -16.1850   16.4970 N.am  145  ASN145     -0.0877
    152  N          8.1100  -22.3280   20.1260 N.3   147  LEU147     -0.1245
    153  CA         9.2540  -23.1270   19.7080 C.3   147  LEU147      0.1561
    154  C          9.5870  -24.2100   20.7270 C.2   147  LEU147      0.2260
    155  O          9.2930  -24.0740   21.9160 O.2   147  LEU147     -0.2867
    156  CB        10.4750  -22.2340   19.4830 C.3   147  LEU147      0.0270
    157  CG        10.2580  -20.9750   18.6420 C.3   147  LEU147      0.0019
    158  CD1       11.5630  -20.2210   18.4690 C.3   147  LEU147      0.0001
    159  CD2        9.6560  -21.3210   17.2910 C.3   147  LEU147      0.0001
    160  N          7.9480  -17.4860   21.3340 N.3   157  ALA157     -0.1231
    161  CA         8.5850  -16.6460   20.3190 C.3   157  ALA157      0.1694
    162  C          7.6410  -15.6300   19.6710 C.2   157  ALA157      0.2592
    163  O          6.4530  -15.5790   19.9890 O.2   157  ALA157     -0.2718
    164  CB         9.2130  -17.5200   19.2480 C.3   157  ALA157      0.0304
    165  N          8.1980  -14.8290   18.7610 N.am  158  ASP158     -0.1974
    166  CA         7.4510  -13.8400   17.9780 C.3   158  ASP158      0.1709
    167  C          6.7530  -12.7920   18.8420 C.2   158  ASP158      0.2293
    168  O          5.5720  -12.9200   19.1660 O.2   158  ASP158     -0.2864
    169  CB         6.4220  -14.5290   17.0790 C.3   158  ASP158      0.1436
    170  CG         5.7710  -13.5700   16.0970 C.2   158  ASP158      0.3671
    171  OD1        6.3540  -12.4980   15.8300 O.co2 158  ASP158     -0.2456
    172  OD2        4.6750  -13.8900   15.5870 O.co2 158  ASP158     -0.2456
    173  N          9.4110  -27.3860   11.1530 N.3   319  HIS319     -0.1226
    174  CA         8.8600  -26.0440   11.2740 C.3   319  HIS319      0.1752
    175  C          7.5590  -25.8460   10.4810 C.2   319  HIS319      0.2596
    176  O          7.0730  -26.7700    9.8340 O.2   319  HIS319     -0.2718
    177  CB         9.9250  -25.0280   10.8970 C.3   319  HIS319      0.0759
    178  CG        11.0040  -24.9160   11.9280 C.ar  319  HIS319      0.0818
    179  ND1       12.2870  -25.3750   11.7230 N.ar  319  HIS319     -0.2268
    180  CD2       10.9740  -24.4380   13.1940 C.ar  319  HIS319      0.1154
    181  CE1       13.0080  -25.1560   12.8080 C.ar  319  HIS319      0.1986
    182  NE2       12.2340  -24.5930   13.7180 N.ar  319  HIS319     -0.2212
    183  N          7.0160  -24.6310   10.5230 N.am  320  GLU320     -0.1965
    184  CA         5.7630  -24.3020    9.8360 C.3   320  GLU320      0.1733
    185  C          5.8760  -24.2700    8.3120 C.2   320  GLU320      0.2616
    186  O          5.0750  -24.9010    7.6200 O.2   320  GLU320     -0.2715
    187  CB         5.2290  -22.9530   10.3270 C.3   320  GLU320      0.0429
    188  CG         3.8150  -22.6420    9.8560 C.3   320  GLU320      0.1163
    189  CD         3.5140  -21.1570    9.8560 C.2   320  GLU320      0.3649
    190  OE1        4.4320  -20.3670    9.5470 O.co2 320  GLU320     -0.2457
    191  OE2        2.3620  -20.7800   10.1570 O.co2 320  GLU320     -0.2457
    192  N          6.8460  -23.5230    7.7890 N.am  321  LEU321     -0.1977
    193  CA         7.0270  -23.4380    6.3430 C.3   321  LEU321      0.1596
    194  C          7.3230  -24.8120    5.7730 C.2   321  LEU321      0.2287
    195  O          6.7830  -25.1940    4.7370 O.2   321  LEU321     -0.2864
    196  CB         8.1590  -22.4790    5.9750 C.3   321  LEU321      0.0297
    197  CG         8.4920  -22.4580    4.4800 C.3   321  LEU321      0.0022
    198  CD1        7.3820  -21.7700    3.6960 C.3   321  LEU321      0.0001
    199  CD2        9.8480  -21.8230    4.1870 C.3   321  LEU321      0.0001
@<TRIPOS>BOND
     1    21    19   ar
     2    20    19   ar
     3    19    18    1
     4    18    17    1
     5   198   197    1
     6    17    14    1
     7   199   197    1
     8   197   196    1
     9   195   194    2
    10    14    13    1
    11    14    15    1
    12   194   193    1
    13    13    11   am
    14   196   193    1
    15    36    35    2
    16   193   192    1
    17    25    24    2
    18    15    16    2
    19    15    22   am
    20    11    10    1
    21    11    12    2
    22    35    34    1
    23    29    28    2
    24    10     9    2
    25     1     2    1
    26    22    23    1
    27     9     3    1
    28    45    46    1
    29    24    23    1
    30    24    26   am
    31   186   185    2
    32     3     4    2
    33     3     2    1
    34    48    47    2
    35    28    27    1
    36    28    33   am
    37   192   185   am
    38     2     5    1
    39    27    26    1
    40    27    30    1
    41    34    33    1
    42    34    37    1
    43   185   184    1
    44    47    46    1
    45    46    49    1
    46    32    30    1
    47    37    38    1
    48    30    31    1
    49     5     6    1
    50     5     7    1
    51   190   189   ar
    52     6     8    1
    53   176   175    2
    54   184   187    1
    55   184   183    1
    56    49    51    1
    57    49    50    1
    58   188   189    1
    59   188   187    1
    60   189   191   ar
    61    59    60    2
    62    59    58    1
    63    38    39   ar
    64    38    40   ar
    65   175   183   am
    66   175   174    1
    67   177   174    1
    68   177   178    1
    69    39    41   ar
    70    40    42   ar
    71    58    57    1
    72    58    61    1
    73   173   174    1
    74   179   178   ar
    75   179   181   ar
    76   178   180   ar
    77   137   136    1
    78    61    62    1
    79    62    63    1
    80    41    43   ar
    81    42    43   ar
    82   104   103    1
    83   181   182   ar
    84   143   142    1
    85    43    44    1
    86    63    64    1
    87   180   182   ar
    88   136   135    1
    89    54    53    1
    90    54    55    2
    91   142   139    1
    92   103   101   ar
    93   103   102   ar
    94   101    99   ar
    95   119   118   ar
    96   120   118   ar
    97    53    56    1
    98    53    52    1
    99   118   117    1
   100    64    65    1
   101   135   134    1
   102   102   100   ar
   103    99    98   ar
   104   139   140    1
   105   139   138    1
   106   141   140    2
   107   128   126   ar
   108   172   170   ar
   109   140   144   am
   110   150   149    2
   111   100    98   ar
   112    98    97    1
   113   117   114    1
   114   116   115    2
   115   171   170   ar
   116   134   133    1
   117   113   114    1
   118   127   126   ar
   119   108   107    2
   120   170   169    1
   121   126   125    1
   122   151   149   am
   123    82    80   ar
   124    82    83   ar
   125   149   148    1
   126   133   130    1
   127   114   115    1
   128    80    78   ar
   129   144   145    1
   130    97    94    1
   131   169   166    1
   132   107   106    1
   133   159   157    1
   134    73    74    1
   135   145   148    1
   136   145   146    1
   137    83    81   ar
   138   125   122    1
   139    94    95    1
   140    94    93    1
   141   105   106    1
   142   105    95   am
   143    78    77    1
   144    78    79   ar
   145   166   165    1
   146   166   167    1
   147   130   131    1
   148   130   129    1
   149   131   132    2
   150    76    75    2
   151    77    74    1
   152    87    86    2
   153   106   109    1
   154    95    96    2
   155   124   123    2
   156    74    75    1
   157   158   157    1
   158   157   156    1
   159   122   123    1
   160   122   121    1
   161   146   147    2
   162   165   162   am
   163    75    84   am
   164    93    86   am
   165   167   168    2
   166    81    79   ar
   167   109   110    1
   168    86    85    1
   169   164   161    1
   170   156   153    1
   171   162   163    2
   172   162   161    1
   173   153   152    1
   174   153   154    1
   175    84    85    1
   176   110   111    1
   177    85    88    1
   178   161   160    1
   179   154   155    2
   180    72    70    1
   181    88    89    1
   182   111   112    1
   183    71    70    1
   184    70    67    1
   185    89    90    1
   186    91    90   ar
   187    69    68    2
   188    67    68    1
   189    67    66    1
   190    90    92   ar
