@<TRIPOS>MOLECULE
tmp/4cxgC00.pdb
 87 81 0 0 0
SMALL
GASTEIGER

@<TRIPOS>ATOM
      1  N        515.1540  435.5420  505.9730 N.3    73  PHE73      -0.1241
      2  CA       516.4520  435.1140  506.4810 C.3    73  PHE73       0.1605
      3  C        517.4040  436.2920  506.5520 C.2    73  PHE73       0.2264
      4  O        517.5660  437.0100  505.5670 O.2    73  PHE73      -0.2867
      5  CB       517.0490  434.0410  505.5730 C.3    73  PHE73       0.0534
      6  CG       516.1740  432.8440  505.3960 C.ar   73  PHE73      -0.0203
      7  CD1      515.1770  432.8280  504.4240 C.ar   73  PHE73      -0.0042
      8  CD2      516.3350  431.7320  506.1950 C.ar   73  PHE73      -0.0042
      9  CE1      514.3600  431.7140  504.2560 C.ar   73  PHE73      -0.0003
     10  CE2      515.5270  430.6110  506.0320 C.ar   73  PHE73      -0.0003
     11  CZ       514.5380  430.6070  505.0670 C.ar   73  PHE73      -0.0000
     12  N        513.5600  424.7100  500.4410 N.3   235  GLN235     -0.1231
     13  CA       512.6120  425.5900  501.0910 C.3   235  GLN235      0.1698
     14  C        511.9090  426.5040  500.0600 C.2   235  GLN235      0.2592
     15  O        510.7420  426.8720  500.2190 O.2   235  GLN235     -0.2718
     16  CB       513.3440  426.3700  502.1970 C.3   235  GLN235      0.0381
     17  CG       513.2250  427.8810  502.1860 C.3   235  GLN235      0.0905
     18  CD       511.8570  428.3530  502.6280 C.2   235  GLN235      0.2608
     19  OE1      511.0440  427.5560  503.1050 O.2   235  GLN235     -0.2717
     20  NE2      511.5800  429.6440  502.4350 N.am  235  GLN235     -0.0878
     21  N        512.6190  426.8560  499.0000 N.am  236  ASN236     -0.1974
     22  CA       512.0300  427.6450  497.9180 C.3   236  ASN236      0.1688
     23  C        512.9070  427.5310  496.6830 C.2   236  ASN236      0.2292
     24  O        514.0600  427.1340  496.7730 O.2   236  ASN236     -0.2864
     25  CB       511.8650  429.1110  498.3200 C.3   236  ASN236      0.1181
     26  CG       510.6370  429.7600  497.6880 C.2   236  ASN236      0.2629
     27  OD1      510.1610  429.3510  496.6250 O.2   236  ASN236     -0.2716
     28  ND2      510.1270  430.7960  498.3390 N.am  236  ASN236     -0.0877
     29  N        514.1280  429.8170  493.3960 N.3   238  TYR238     -0.1241
     30  CA       514.1300  431.0700  492.6670 C.3   238  TYR238      0.1605
     31  C        514.6470  430.8640  491.2430 C.2   238  TYR238      0.2264
     32  O        515.2860  429.8490  490.9450 O.2   238  TYR238     -0.2867
     33  CB       514.9760  432.1090  493.4000 C.3   238  TYR238      0.0534
     34  CG       514.4410  432.4730  494.7600 C.ar  238  TYR238     -0.0201
     35  CD1      513.5170  433.4960  494.9060 C.ar  238  TYR238     -0.0009
     36  CD2      514.8450  431.7780  495.9050 C.ar  238  TYR238     -0.0009
     37  CE1      513.0120  433.8380  496.1490 C.ar  238  TYR238      0.0417
     38  CE2      514.3410  432.1070  497.1630 C.ar  238  TYR238      0.0417
     39  CZ       513.4250  433.1420  497.2730 C.ar  238  TYR238      0.1957
     40  OH       512.9140  433.4980  498.4980 O.3   238  TYR238     -0.2866
     41  N        516.8560  433.0750  488.6500 N.3   240  ILE240     -0.1245
     42  CA       517.6270  434.2900  488.8570 C.3   240  ILE240      0.1561
     43  C        518.4940  434.6290  487.6610 C.2   240  ILE240      0.2260
     44  O        519.2630  433.7830  487.1940 O.2   240  ILE240     -0.2867
     45  CB       518.4790  434.1920  490.1330 C.3   240  ILE240      0.0252
     46  CG1      517.5860  433.9380  491.3430 C.3   240  ILE240      0.0019
     47  CG2      519.3030  435.4580  490.3400 C.3   240  ILE240      0.0019
     48  CD1      518.2680  434.2120  492.6660 C.3   240  ILE240      0.0001
     49  N        517.6690  428.5260  491.0580 N.3   246  VAL246     -0.1245
     50  CA       518.3880  428.2910  492.2830 C.3   246  VAL246      0.1561
     51  C        517.4500  427.8630  493.4120 C.2   246  VAL246      0.2260
     52  O        516.6630  428.6510  493.9480 O.2   246  VAL246     -0.2867
     53  CB       519.3700  429.4620  492.6240 C.3   246  VAL246      0.0252
     54  CG1      519.1050  430.6570  491.7500 C.3   246  VAL246      0.0019
     55  CG2      519.3690  429.8250  494.1120 C.3   246  VAL246      0.0019
     56  N        516.8960  426.9300  497.2400 N.3   248  VAL248     -0.1245
     57  CA       517.4600  427.3980  498.4860 C.3   248  VAL248      0.1561
     58  C        517.1220  426.3270  499.5210 C.2   248  VAL248      0.2260
     59  O        516.1320  425.6140  499.3560 O.2   248  VAL248     -0.2867
     60  CB       516.9010  428.7820  498.8750 C.3   248  VAL248      0.0252
     61  CG1      517.3900  429.1980  500.2430 C.3   248  VAL248      0.0019
     62  CG2      517.3560  429.8230  497.8730 C.3   248  VAL248      0.0019
     63  N        525.7500  430.1090  497.2310 N.3   277  GLU277     -0.1245
     64  CA       525.7600  431.3760  497.9280 C.3   277  GLU277      0.1567
     65  C        525.1200  431.2640  499.3070 C.2   277  GLU277      0.2260
     66  O        524.0210  430.7310  499.4470 O.2   277  GLU277     -0.2867
     67  CB       525.0420  432.4450  497.0940 C.3   277  GLU277      0.0388
     68  CG       524.6750  433.7240  497.8430 C.3   277  GLU277      0.1160
     69  CD       523.1670  433.8780  497.9790 C.2   277  GLU277      0.3649
     70  OE1      522.5340  432.9780  498.5490 O.co2 277  GLU277     -0.2457
     71  OE2      522.6510  434.8670  497.4590 O.co2 277  GLU277     -0.2457
     72  N        524.7200  436.1400  500.3000 N.3   280  TYR280     -0.1241
     73  CA       525.3290  436.9330  499.2310 C.3   280  TYR280      0.1605
     74  C        526.8370  436.7090  499.0730 C.2   280  TYR280      0.2264
     75  O        527.4700  437.2890  498.1950 O.2   280  TYR280     -0.2867
     76  CB       524.9570  438.4180  499.3610 C.3   280  TYR280      0.0534
     77  CG       523.4570  438.6420  499.4080 C.ar  280  TYR280     -0.0201
     78  CD1      522.6520  438.2980  498.3300 C.ar  280  TYR280     -0.0009
     79  CD2      522.8430  439.1670  500.5420 C.ar  280  TYR280     -0.0009
     80  CE1      521.2810  438.4820  498.3660 C.ar  280  TYR280      0.0417
     81  CE2      521.4690  439.3580  500.5890 C.ar  280  TYR280      0.0417
     82  CZ       520.6900  439.0130  499.4960 C.ar  280  TYR280      0.1957
     83  OH       519.3200  439.1970  499.5250 O.3   280  TYR280     -0.2866
     84  N        521.6860  429.1710  498.7880 N.3   293  GLY293     -0.1225
     85  CA       521.1010  429.0450  497.4690 C.3   293  GLY293      0.1811
     86  C        522.1180  428.4030  496.5480 C.2   293  GLY293      0.2280
     87  O        523.2780  428.8130  496.5410 O.2   293  GLY293     -0.2866
@<TRIPOS>BOND
     1    44    43    2
     2    43    42    1
     3    41    42    1
     4    42    45    1
     5    45    47    1
     6    45    46    1
     7    32    31    2
     8    49    50    1
     9    31    30    1
    10    46    48    1
    11    54    53    1
    12    50    53    1
    13    50    51    1
    14    53    55    1
    15    30    29    1
    16    30    33    1
    17    33    34    1
    18    51    52    2
    19    34    35   ar
    20    34    36   ar
    21    35    37   ar
    22    36    38   ar
    23    37    39   ar
    24    87    86    2
    25    86    85    1
    26    27    26    2
    27    23    24    2
    28    23    22    1
    29    67    68    1
    30    67    64    1
    31    38    39   ar
    32    63    64    1
    33    56    57    1
    34    39    40    1
    35    71    69   ar
    36    85    84    1
    37    26    25    1
    38    26    28   am
    39    68    69    1
    40    62    60    1
    41    22    25    1
    42    22    21    1
    43    64    65    1
    44    69    70   ar
    45    75    74    2
    46    78    80   ar
    47    78    77   ar
    48    80    82   ar
    49    57    60    1
    50    57    58    1
    51    60    61    1
    52    21    14   am
    53    74    73    1
    54    73    76    1
    55    73    72    1
    56    65    66    2
    57    59    58    2
    58    76    77    1
    59    77    79   ar
    60    82    83    1
    61    82    81   ar
    62    14    15    2
    63    14    13    1
    64    12    13    1
    65    79    81   ar
    66    13    16    1
    67    17    16    1
    68    17    18    1
    69    20    18   am
    70    18    19    2
    71     9     7   ar
    72     9    11   ar
    73     7     6   ar
    74    11    10   ar
    75     6     5    1
    76     6     8   ar
    77     4     3    2
    78     5     2    1
    79     1     2    1
    80    10     8   ar
    81     2     3    1
