@<TRIPOS>MOLECULE
tmp/4cxkB00.pdb
 84 81 0 0 0
SMALL
GASTEIGER

@<TRIPOS>ATOM
      1  N        -72.3280    0.8970    9.0200 N.3   140  TYR140     -0.1241
      2  CA       -71.8470    2.1700    8.5760 C.3   140  TYR140      0.1605
      3  C        -72.8580    3.2690    8.9180 C.2   140  TYR140      0.2264
      4  O        -72.6640    4.4010    8.5170 O.2   140  TYR140     -0.2867
      5  CB       -71.5720    2.1160    7.0600 C.3   140  TYR140      0.0534
      6  CG       -70.2960    1.3940    6.7310 C.ar  140  TYR140     -0.0201
      7  CD1      -69.0720    2.0260    6.8850 C.ar  140  TYR140     -0.0009
      8  CD2      -70.2910    0.0600    6.3090 C.ar  140  TYR140     -0.0009
      9  CE1      -67.8970    1.3530    6.6330 C.ar  140  TYR140      0.0417
     10  CE2      -69.1080   -0.6040    6.0510 C.ar  140  TYR140      0.0417
     11  CZ       -67.9120    0.0380    6.2090 C.ar  140  TYR140      0.1957
     12  OH       -66.7180   -0.6530    5.9840 O.3   140  TYR140     -0.2866
     13  N        -67.9150   -4.6560    5.9520 N.3   213  ALA213     -0.1231
     14  CA       -66.5290   -4.4750    6.4200 C.3   213  ALA213      0.1679
     15  C        -65.7130   -3.5900    5.4710 C.2   213  ALA213      0.2434
     16  O        -66.1030   -3.4150    4.2850 O.2   213  ALA213     -0.2733
     17  CB       -65.8190   -5.8100    6.5530 C.3   213  ALA213      0.0304
     18  N        -64.5980   -2.9940    5.9810 N.am  214  PRO214     -0.2718
     19  CA       -63.7150   -2.1680    5.1840 C.3   214  PRO214      0.1535
     20  C        -63.1600   -2.9290    3.9840 C.2   214  PRO214      0.2598
     21  O        -62.6480   -4.0390    4.1260 O.2   214  PRO214     -0.2715
     22  CB       -62.5810   -1.8090    6.1580 C.3   214  PRO214      0.0310
     23  CG       -63.1100   -1.9990    7.5160 C.3   214  PRO214      0.0237
     24  CD       -64.1640   -3.0790    7.4060 C.3   214  PRO214      0.0939
     25  N        -63.2770   -2.3430    2.7880 N.am  215  ARG215     -0.1978
     26  CA       -62.8590   -3.0230    1.5310 C.3   215  ARG215      0.1597
     27  C        -61.4220   -3.5260    1.5640 C.2   215  ARG215      0.2287
     28  O        -61.0830   -4.6180    0.9960 O.2   215  ARG215     -0.2864
     29  CB       -63.1440   -2.0970    0.2570 C.3   215  ARG215      0.0334
     30  CG       -62.9170   -2.8410   -1.0670 C.3   215  ARG215      0.0492
     31  CD       -63.5060   -2.2880   -2.3910 C.3   215  ARG215      0.2205
     32  NE       -64.9650   -2.0370   -2.4920 N.pl3 215  ARG215     -0.0865
     33  CZ       -65.9110   -2.8790   -2.9810 C.cat 215  ARG215      0.5346
     34  NH1      -65.6470   -4.1000   -3.4080 N.pl3 215  ARG215      0.1354
     35  NH2      -67.1810   -2.5050   -2.9860 N.pl3 215  ARG215      0.1354
     36  N        -61.5590   -6.7870    3.2360 N.3   218  VAL218     -0.1245
     37  CA       -62.2910   -7.7970    2.4300 C.3   218  VAL218      0.1561
     38  C        -61.3860   -8.3500    1.2910 C.2   218  VAL218      0.2260
     39  O        -61.3680   -9.5760    0.9870 O.2   218  VAL218     -0.2867
     40  CB       -63.5720   -7.2120    1.8020 C.3   218  VAL218      0.0252
     41  CG1      -64.2420   -8.2740    0.9200 C.3   218  VAL218      0.0019
     42  CG2      -64.5730   -6.7060    2.8410 C.3   218  VAL218      0.0019
     43  N        -68.3340  -14.1640   -1.9430 N.3   275  ARG275     -0.1245
     44  CA       -68.0240  -12.7830   -1.5100 C.3   275  ARG275      0.1563
     45  C        -68.6120  -12.4630   -0.1240 C.2   275  ARG275      0.2260
     46  O        -67.9940  -11.7680    0.6740 O.2   275  ARG275     -0.2867
     47  CB       -68.4990  -11.7970   -2.5930 C.3   275  ARG275      0.0307
     48  CG       -68.2210  -10.3360   -2.2770 C.3   275  ARG275      0.0489
     49  CD       -66.7580  -10.0220   -2.0510 C.3   275  ARG275      0.2205
     50  NE       -65.9020  -10.4600   -3.1490 N.pl3 275  ARG275     -0.0865
     51  CZ       -65.7500   -9.8540   -4.3110 C.cat 275  ARG275      0.5346
     52  NH1      -66.4620   -8.7620   -4.6390 N.pl3 275  ARG275      0.1354
     53  NH2      -64.9070  -10.4290   -5.1950 N.pl3 275  ARG275      0.1354
     54  N        -70.3800   -4.6470   -4.9970 N.3   346  ASN346     -0.1225
     55  CA       -70.8400   -3.8300   -3.8480 C.3   346  ASN346      0.1785
     56  C        -71.0600   -4.5400   -2.5360 C.2   346  ASN346      0.2597
     57  O        -71.0350   -3.9230   -1.5030 O.2   346  ASN346     -0.2718
     58  CB       -72.0890   -3.1050   -4.2340 C.3   346  ASN346      0.1169
     59  CG       -72.2580   -1.8380   -3.4650 C.2   346  ASN346      0.2627
     60  OD1      -71.3630   -1.0100   -3.4030 O.2   346  ASN346     -0.2716
     61  ND2      -73.3510   -1.7460   -2.7550 N.am  346  ASN346     -0.0877
     62  N        -71.1580   -5.8640   -2.5660 N.am  347  ILE347     -0.1966
     63  CA       -71.3370   -6.6480   -1.3310 C.3   347  ILE347      0.1727
     64  C        -70.2630   -6.3480   -0.3180 C.2   347  ILE347      0.2617
     65  O        -69.0990   -6.4400   -0.6300 O.2   347  ILE347     -0.2715
     66  CB       -71.3070   -8.1620   -1.6380 C.3   347  ILE347      0.0290
     67  CG1      -72.5300   -8.5660   -2.4370 C.3   347  ILE347      0.0022
     68  CG2      -71.2150   -9.0030   -0.3520 C.3   347  ILE347      0.0023
     69  CD1      -72.4240   -9.9720   -3.0440 C.3   347  ILE347      0.0001
     70  N        -70.6800   -5.9730    0.8890 N.am  348  GLY348     -0.1940
     71  CA       -69.7920   -5.6360    1.9900 C.3   348  GLY348      0.2014
     72  C        -69.8050   -4.1230    2.2680 C.2   348  GLY348      0.2640
     73  O        -69.3110   -3.6700    3.3120 O.2   348  GLY348     -0.2714
     74  N        -70.2560   -3.3020    1.3130 N.am  349  SER349     -0.1935
     75  CA       -70.2340   -1.8540    1.5090 C.3   349  SER349      0.2055
     76  C        -71.5670   -1.3910    2.2360 C.2   349  SER349      0.2642
     77  O        -72.5050   -2.1870    2.4280 O.2   349  SER349     -0.2714
     78  CB       -69.9750   -1.1470    0.1570 C.3   349  SER349      0.2130
     79  OG       -71.1430   -1.2400   -0.6400 O.3   349  SER349     -0.2179
     80  N        -71.6350   -0.1150    2.6560 N.am  350  ALA350     -0.1977
     81  CA       -72.7710    0.4120    3.4010 C.3   350  ALA350      0.1597
     82  C        -74.1740    0.1830    2.7670 C.2   350  ALA350      0.2287
     83  O        -75.1860   -0.0070    3.5010 O.2   350  ALA350     -0.2864
     84  CB       -72.5460    1.8890    3.6760 C.3   350  ALA350      0.0319
@<TRIPOS>BOND
     1    53    51    1
     2    54    55    1
     3    52    51    1
     4    51    50    2
     5    58    55    1
     6    58    59    1
     7    55    56    1
     8    59    60    2
     9    59    61   am
    10    34    33    1
    11    50    49    1
    12    69    67    1
    13    35    33    1
    14    33    32    2
    15    47    48    1
    16    47    44    1
    17    62    56   am
    18    62    63    1
    19    56    57    2
    20    32    31    1
    21    67    66    1
    22    31    30    1
    23    48    49    1
    24    43    44    1
    25    66    63    1
    26    66    68    1
    27    44    45    1
    28    63    64    1
    29    30    29    1
    30    79    78    1
    31    65    64    2
    32    64    70   am
    33    45    46    2
    34    78    75    1
    35    29    26    1
    36    70    71    1
    37    41    40    1
    38    39    38    2
    39    28    27    2
    40    38    37    1
    41    74    75    1
    42    74    72   am
    43    75    76    1
    44    26    27    1
    45    26    25    1
    46    40    37    1
    47    40    42    1
    48    71    72    1
    49    76    77    2
    50    76    80   am
    51    72    73    2
    52    37    36    1
    53    80    81    1
    54    82    81    1
    55    82    83    2
    56    25    20   am
    57    81    84    1
    58    20    21    2
    59    20    19    1
    60    16    15    2
    61    19    18    1
    62    19    22    1
    63    15    18   am
    64    15    14    1
    65    13    14    1
    66    18    24    1
    67    12    11    1
    68    10    11   ar
    69    10     8   ar
    70    22    23    1
    71    11     9   ar
    72     8     6   ar
    73    14    17    1
    74     9     7   ar
    75     6     7   ar
    76     6     5    1
    77     5     2    1
    78    24    23    1
    79     4     3    2
    80     2     3    1
    81     2     1    1
