@<TRIPOS>MOLECULE
tmp/4cxoA01.pdb
 102 97 0 0 0
SMALL
GASTEIGER

@<TRIPOS>ATOM
      1  N         30.7210  -12.3250  -29.4970 N.3    30  PRO30      -0.2116
      2  CA        31.9060  -11.9720  -30.2730 C.3    30  PRO30       0.1372
      3  C         33.0760  -12.8810  -29.9480 C.2    30  PRO30       0.2244
      4  O         33.0740  -13.5580  -28.9190 O.2    30  PRO30      -0.2868
      5  CB        32.2030  -10.5350  -29.8340 C.3    30  PRO30       0.0268
      6  CG        31.6070  -10.4250  -28.4790 C.3    30  PRO30       0.0207
      7  CD        30.3890  -11.2960  -28.4980 C.3    30  PRO30       0.0892
      8  N         36.0300  -12.0740  -28.9760 N.3    32  SER32      -0.1217
      9  CA        36.8010  -11.5820  -27.8380 C.3    32  SER32       0.1889
     10  C         36.2800  -12.1170  -26.5100 C.2    32  SER32       0.2288
     11  O         37.0090  -12.1160  -25.5160 O.2    32  SER32      -0.2866
     12  CB        36.8060  -10.0520  -27.8080 C.3    32  SER32       0.2089
     13  OG        35.4850   -9.5460  -27.8250 O.3    32  SER32      -0.2183
     14  N         30.5670  -11.1270  -20.6670 N.3    40  LEU40      -0.1245
     15  CA        29.8720   -9.9550  -21.1840 C.3    40  LEU40       0.1561
     16  C         28.5420   -9.6650  -20.4990 C.2    40  LEU40       0.2260
     17  O         27.7430   -8.8560  -20.9840 O.2    40  LEU40      -0.2867
     18  CB        29.6720  -10.1020  -22.6880 C.3    40  LEU40       0.0270
     19  CG        30.9530   -9.9390  -23.5050 C.3    40  LEU40       0.0019
     20  CD1       30.6920  -10.4010  -24.9250 C.3    40  LEU40       0.0001
     21  CD2       31.4080   -8.4940  -23.4880 C.3    40  LEU40       0.0001
     22  N         27.9430   -6.0570  -19.8210 N.3    43  TRP43      -0.1241
     23  CA        27.9990   -5.1580  -20.9800 C.3    43  TRP43       0.1605
     24  C         26.8910   -4.1030  -20.9550 C.2    43  TRP43       0.2264
     25  O         27.1420   -2.9180  -21.2070 O.2    43  TRP43      -0.2867
     26  CB        27.9690   -5.9560  -22.2850 C.3    43  TRP43       0.0550
     27  CG        27.8390   -5.1020  -23.5110 C.ar   43  TRP43       0.0003
     28  CD1       28.8490   -4.5040  -24.2030 C.ar   43  TRP43       0.0946
     29  CD2       26.6240   -4.7220  -24.1680 C.ar   43  TRP43       0.0152
     30  NE1       28.3430   -3.7880  -25.2490 N.ar   43  TRP43      -0.2442
     31  CE2       26.9800   -3.9120  -25.2600 C.ar   43  TRP43       0.0810
     32  CE3       25.2750   -4.9970  -23.9470 C.ar   43  TRP43       0.0012
     33  CZ2       26.0340   -3.3680  -26.1240 C.ar   43  TRP43       0.0191
     34  CZ3       24.3260   -4.4500  -24.8090 C.ar   43  TRP43       0.0001
     35  CH2       24.7120   -3.6490  -25.8840 C.ar   43  TRP43       0.0015
     36  N         27.5880   -1.0670  -19.1560 N.3    46  ARG46      -0.1245
     37  CA        28.6340   -0.2640  -19.7620 C.3    46  ARG46       0.1563
     38  C         28.1430    0.5570  -20.9680 C.2    46  ARG46       0.2260
     39  O         28.9330    1.2690  -21.5840 O.2    46  ARG46      -0.2867
     40  CB        29.8120   -1.1730  -20.1280 C.3    46  ARG46       0.0307
     41  CG        30.6020   -1.6380  -18.9040 C.3    46  ARG46       0.0489
     42  CD        31.3190   -2.9760  -19.0910 C.3    46  ARG46       0.2205
     43  NE        31.6890   -3.2850  -20.4780 N.pl3  46  ARG46      -0.0865
     44  CZ        31.7530   -4.5120  -21.0060 C.cat  46  ARG46       0.5346
     45  NH1       31.4740   -5.6080  -20.2910 N.pl3  46  ARG46       0.1354
     46  NH2       32.0930   -4.6460  -22.2810 N.pl3  46  ARG46       0.1354
     47  N         24.0270    4.5900  -24.6390 N.3    51  TYR51      -0.1241
     48  CA        22.6600    4.3260  -25.0520 C.3    51  TYR51       0.1605
     49  C         21.7590    4.8480  -23.9480 C.2    51  TYR51       0.2264
     50  O         21.2460    4.0770  -23.1200 O.2    51  TYR51      -0.2867
     51  CB        22.4170    2.8240  -25.2330 C.3    51  TYR51       0.0534
     52  CG        23.1080    2.1250  -26.3880 C.ar   51  TYR51      -0.0201
     53  CD1       23.6290    2.8220  -27.4760 C.ar   51  TYR51      -0.0009
     54  CD2       23.1630    0.7400  -26.4220 C.ar   51  TYR51      -0.0009
     55  CE1       24.2230    2.1520  -28.5370 C.ar   51  TYR51       0.0417
     56  CE2       23.7580    0.0560  -27.4780 C.ar   51  TYR51       0.0417
     57  CZ        24.2860    0.7670  -28.5310 C.ar   51  TYR51       0.1957
     58  OH        24.8720    0.0960  -29.5830 O.3    51  TYR51      -0.2866
     59  N         16.1870  -12.5100  -35.3310 N.3    99  TYR99      -0.1241
     60  CA        16.7540  -11.1870  -35.5900 C.3    99  TYR99       0.1605
     61  C         16.4460  -10.8340  -36.9940 C.2    99  TYR99       0.2264
     62  O         16.4700  -11.6290  -37.9330 O.2    99  TYR99      -0.2867
     63  CB        18.2540  -11.3560  -35.4460 C.3    99  TYR99       0.0534
     64  CG        19.0510  -10.1800  -36.0590 C.ar   99  TYR99      -0.0201
     65  CD1       19.2900   -9.0610  -35.2690 C.ar   99  TYR99      -0.0009
     66  CD2       19.5880  -10.2690  -37.2700 C.ar   99  TYR99      -0.0009
     67  CE1       20.0520   -7.9580  -35.8390 C.ar   99  TYR99       0.0417
     68  CE2       20.3180   -9.2170  -37.8610 C.ar   99  TYR99       0.0417
     69  CZ        20.5280   -8.1500  -37.1430 C.ar   99  TYR99       0.1957
     70  OH        21.2920   -7.0820  -37.6630 O.3    99  TYR99      -0.2866
     71  N         20.2350   -5.8780  -33.7760 N.3   103  ASN103     -0.1240
     72  CA        21.4970   -6.5230  -33.5220 C.3   103  ASN103      0.1653
     73  C         21.2270   -7.5700  -32.4560 C.2   103  ASN103      0.2266
     74  O         20.9210   -7.2320  -31.3060 O.2   103  ASN103     -0.2867
     75  CB        22.5100   -5.4760  -33.0880 C.3   103  ASN103      0.1155
     76  CG        23.8560   -6.0540  -32.7410 C.2   103  ASN103      0.2627
     77  OD1       23.9630   -7.1680  -32.2250 O.2   103  ASN103     -0.2716
     78  ND2       24.9080   -5.2830  -33.0260 N.am  103  ASN103     -0.0877
     79  N         23.2400   -9.8000  -31.1910 N.3   105  THR105     -0.1203
     80  CA        24.2900   -9.8940  -30.1820 C.3   105  THR105      0.1994
     81  C         23.9030   -8.9950  -29.0160 C.2   105  THR105      0.2617
     82  O         23.9090   -9.4310  -27.8560 O.2   105  THR105     -0.2717
     83  CB        25.6740   -9.5000  -30.7260 C.3   105  THR105      0.1784
     84  OG1       26.1000  -10.4700  -31.6870 O.3   105  THR105     -0.2211
     85  CG2       26.6870   -9.4690  -29.6080 C.3   105  THR105      0.0376
     86  N         23.5420   -7.7510  -29.3090 N.am  106  GLU106     -0.1979
     87  CA        23.0280   -6.8640  -28.2490 C.3   106  GLU106      0.1602
     88  C         21.7910   -7.4380  -27.5570 C.2   106  GLU106      0.2287
     89  O         21.6680   -7.3650  -26.3150 O.2   106  GLU106     -0.2864
     90  CB        22.7240   -5.4700  -28.7960 C.3   106  GLU106      0.0415
     91  CG        23.9840   -4.7270  -29.2090 C.3   106  GLU106      0.1163
     92  CD        23.7570   -3.2620  -29.5430 C.2   106  GLU106      0.3649
     93  OE1       22.6080   -2.7830  -29.5880 O.co2 106  GLU106     -0.2457
     94  OE2       24.7610   -2.5760  -29.7510 O.co2 106  GLU106     -0.2457
     95  N         22.9500   -9.9830  -25.0830 N.3   109  LEU109     -0.1245
     96  CA        23.6240   -9.3370  -23.9520 C.3   109  LEU109      0.1561
     97  C         22.6650   -8.5800  -23.0510 C.2   109  LEU109      0.2260
     98  O         22.8190   -8.5850  -21.8180 O.2   109  LEU109     -0.2867
     99  CB        24.7390   -8.4170  -24.4430 C.3   109  LEU109      0.0270
    100  CG        25.8460   -9.1460  -25.2010 C.3   109  LEU109      0.0019
    101  CD1       26.9590   -8.1830  -25.5670 C.3   109  LEU109      0.0001
    102  CD2       26.3950  -10.3290  -24.4260 C.3   109  LEU109      0.0001
@<TRIPOS>BOND
     1    62    61    2
     2    68    66   ar
     3    68    69   ar
     4    70    69    1
     5    66    64   ar
     6    69    67   ar
     7    61    60    1
     8    64    63    1
     9    64    65   ar
    10    67    65   ar
    11    60    63    1
    12    60    59    1
    13    71    72    1
    14    72    75    1
    15    72    73    1
    16    75    76    1
    17    78    76   am
    18    76    77    2
    19    73    74    2
    20    84    83    1
    21    79    80    1
    22    83    80    1
    23    83    85    1
    24     2     3    1
    25     2     5    1
    26     2     1    1
    27    80    81    1
    28     3     4    2
    29     5     6    1
    30    94    92   ar
    31    93    92   ar
    32    58    57    1
    33    92    91    1
    34     1     7    1
    35    86    81   am
    36    86    87    1
    37    91    90    1
    38    81    82    2
    39     8     9    1
    40    90    87    1
    41    55    57   ar
    42    55    53   ar
    43    57    56   ar
    44     7     6    1
    45    87    88    1
    46     9    12    1
    47     9    10    1
    48    13    12    1
    49    88    89    2
    50    56    54   ar
    51    53    52   ar
    52    10    11    2
    53    54    52   ar
    54    52    51    1
    55    33    35   ar
    56    33    31   ar
    57    35    34   ar
    58   101   100    1
    59    31    30   ar
    60    31    29   ar
    61    30    28   ar
    62    51    48    1
    63   100    99    1
    64   100   102    1
    65    95    96    1
    66    48    47    1
    67    48    49    1
    68    20    19    1
    69    34    32   ar
    70    99    96    1
    71    28    27   ar
    72    29    32   ar
    73    29    27   ar
    74    96    97    1
    75    49    50    2
    76    27    26    1
    77    19    21    1
    78    19    18    1
    79    97    98    2
    80    18    15    1
    81    26    23    1
    82    46    44    1
    83    39    38    2
    84    25    24    2
    85    15    14    1
    86    15    16    1
    87    44    43    2
    88    44    45    1
    89    17    16    2
    90    23    24    1
    91    23    22    1
    92    38    37    1
    93    43    42    1
    94    40    37    1
    95    40    41    1
    96    37    36    1
    97    42    41    1
