@<TRIPOS>MOLECULE
tmp/4cxoA05.pdb
 97 94 0 0 0
SMALL
GASTEIGER

@<TRIPOS>ATOM
      1  N          2.4800   -4.7590  -14.2230 N.3    70  TYR70      -0.1241
      2  CA         3.0880   -4.2510  -15.4560 C.3    70  TYR70       0.1605
      3  C          2.4090   -2.9800  -15.9800 C.2    70  TYR70       0.2264
      4  O          3.0700   -1.9810  -16.2470 O.2    70  TYR70      -0.2867
      5  CB         3.0810   -5.3280  -16.5520 C.3    70  TYR70       0.0534
      6  CG         3.8080   -4.9250  -17.8310 C.ar   70  TYR70      -0.0201
      7  CD1        3.1650   -4.1780  -18.8130 C.ar   70  TYR70      -0.0009
      8  CD2        5.1270   -5.3070  -18.0660 C.ar   70  TYR70      -0.0009
      9  CE1        3.8130   -3.8100  -19.9800 C.ar   70  TYR70       0.0417
     10  CE2        5.7870   -4.9430  -19.2320 C.ar   70  TYR70       0.0417
     11  CZ         5.1210   -4.1980  -20.1860 C.ar   70  TYR70       0.1957
     12  OH         5.7570   -3.8350  -21.3360 O.3    70  TYR70      -0.2866
     13  N          5.1730    3.7030  -21.6740 N.3    81  LYS81      -0.1231
     14  CA         4.8590    2.3350  -21.2720 C.3    81  LYS81       0.1693
     15  C          5.8640    1.3450  -21.8500 C.2    81  LYS81       0.2593
     16  O          6.2840    1.4830  -22.9940 O.2    81  LYS81      -0.2718
     17  CB         3.4480    1.9620  -21.7300 C.3    81  LYS81       0.0285
     18  CG         2.9930    0.5690  -21.3090 C.3    81  LYS81       0.0035
     19  CD         1.7010    0.1870  -22.0160 C.3    81  LYS81       0.0206
     20  CE         1.2270   -1.1920  -21.6020 C.3    81  LYS81       0.1093
     21  NZ         0.9300   -1.2210  -20.1520 N.3    81  LYS81      -0.1314
     22  N          6.2340    0.3470  -21.0530 N.am   82  GLY82      -0.1942
     23  CA         7.1740   -0.6860  -21.4810 C.3    82  GLY82       0.2014
     24  C          8.6300   -0.4300  -21.1180 C.2    82  GLY82       0.2638
     25  O          9.4700   -1.3310  -21.2170 O.2    82  GLY82      -0.2714
     26  N          8.9520    0.7750  -20.6750 N.am   83  ARG83      -0.1977
     27  CA        10.3490    1.1260  -20.4710 C.3    83  ARG83       0.1597
     28  C         10.7760    0.8440  -19.0360 C.2    83  ARG83       0.2287
     29  O         10.9520    1.7360  -18.2260 O.2    83  ARG83      -0.2864
     30  CB        10.5830    2.5660  -20.8940 C.3    83  ARG83       0.0334
     31  CG        10.1590    2.7750  -22.3460 C.3    83  ARG83       0.0492
     32  CD        10.9600    3.8530  -23.0440 C.3    83  ARG83       0.2205
     33  NE        12.3750    3.4980  -23.1610 N.pl3  83  ARG83      -0.0865
     34  CZ        12.8930    2.7170  -24.1090 C.cat  83  ARG83       0.5346
     35  NH1       12.1240    2.1790  -25.0470 N.pl3  83  ARG83       0.1354
     36  NH2       14.2010    2.4690  -24.1140 N.pl3  83  ARG83       0.1354
     37  N          9.6690   -4.8890  -19.3620 N.3    87  GLY87      -0.1225
     38  CA         9.4020   -4.5520  -20.7710 C.3    87  GLY87       0.1811
     39  C         10.5960   -4.8660  -21.6520 C.2    87  GLY87       0.2280
     40  O         10.4460   -5.3480  -22.7700 O.2    87  GLY87      -0.2866
     41  N         10.7980   -8.5800  -22.2910 N.3    90  TYR90      -0.1227
     42  CA         9.8500   -8.9300  -23.3540 C.3    90  TYR90       0.1736
     43  C         10.3870   -8.5420  -24.7270 C.2    90  TYR90       0.2595
     44  O         10.3370   -9.3250  -25.6630 O.2    90  TYR90      -0.2718
     45  CB         8.5210   -8.2240  -23.1370 C.3    90  TYR90       0.0548
     46  CG         7.6360   -8.8030  -22.0690 C.ar   90  TYR90      -0.0200
     47  CD1        7.2460  -10.1470  -22.0970 C.ar   90  TYR90      -0.0009
     48  CD2        7.1020   -7.9920  -21.0810 C.ar   90  TYR90      -0.0009
     49  CE1        6.3760  -10.6590  -21.1500 C.ar   90  TYR90       0.0417
     50  CE2        6.2290   -8.5000  -20.1250 C.ar   90  TYR90       0.0417
     51  CZ         5.8750   -9.8270  -20.1610 C.ar   90  TYR90       0.1957
     52  OH         5.0150  -10.3200  -19.2060 O.3    90  TYR90      -0.2866
     53  N         10.9090   -7.3280  -24.8220 N.am   91  ASN91      -0.1974
     54  CA        11.4910   -6.7980  -26.0480 C.3    91  ASN91       0.1688
     55  C         12.6030   -7.6580  -26.6200 C.2    91  ASN91       0.2292
     56  O         12.5280   -8.1160  -27.7710 O.2    91  ASN91      -0.2864
     57  CB        12.0520   -5.4310  -25.7350 C.3    91  ASN91       0.1181
     58  CG        12.4840   -4.6540  -26.9570 C.2    91  ASN91       0.2629
     59  OD1       12.0880   -4.9220  -28.0900 O.2    91  ASN91      -0.2716
     60  ND2       13.3260   -3.6500  -26.6990 N.am   91  ASN91      -0.0877
     61  N         11.7470  -11.2210  -27.6080 N.3    94  THR94      -0.1203
     62  CA        10.9950  -11.2710  -28.8510 C.3    94  THR94       0.1994
     63  C         11.9460  -11.1410  -30.0270 C.2    94  THR94       0.2617
     64  O         11.8350  -11.8680  -31.0130 O.2    94  THR94      -0.2717
     65  CB         9.9120  -10.1850  -28.8880 C.3    94  THR94       0.1784
     66  OG1        8.9650  -10.4470  -27.8520 O.3    94  THR94      -0.2211
     67  CG2        9.1880  -10.1840  -30.2370 C.3    94  THR94       0.0376
     68  N         12.9110  -10.2430  -29.9090 N.am   95  GLN95      -0.1979
     69  CA        13.9050  -10.0770  -30.9600 C.3    95  GLN95       0.1601
     70  C         14.6610  -11.3730  -31.2110 C.2    95  GLN95       0.2287
     71  O         14.8420  -11.7760  -32.3530 O.2    95  GLN95      -0.2864
     72  CB        14.8790   -8.9540  -30.6150 C.3    95  GLN95       0.0394
     73  CG        14.2190   -7.5860  -30.5370 C.3    95  GLN95       0.0908
     74  CD        15.1650   -6.5290  -30.0240 C.2    95  GLN95       0.2608
     75  OE1       16.3820   -6.6390  -30.2010 O.2    95  GLN95      -0.2717
     76  NE2       14.6200   -5.4970  -29.3770 N.am   95  GLN95      -0.0878
     77  N         15.8620   -6.6000  -38.0840 N.3   101  GLU101     -0.1231
     78  CA        16.3260   -5.2050  -38.0510 C.3   101  GLU101      0.1699
     79  C         17.2510   -4.9210  -36.8590 C.2   101  GLU101      0.2592
     80  O         17.8790   -3.8630  -36.7840 O.2   101  GLU101     -0.2718
     81  CB        15.1360   -4.2300  -38.0520 C.3   101  GLU101      0.0402
     82  CG        14.2220   -4.2770  -36.8310 C.3   101  GLU101      0.1161
     83  CD        13.5490   -2.9460  -36.5070 C.2   101  GLU101      0.3649
     84  OE1       14.1740   -1.8740  -36.6980 O.co2 101  GLU101     -0.2457
     85  OE2       12.3840   -2.9630  -36.0450 O.co2 101  GLU101     -0.2457
     86  N         17.3340   -5.8760  -35.9440 N.am  102  TYR102     -0.1976
     87  CA        18.0120   -5.6750  -34.6690 C.3   102  TYR102      0.1639
     88  C         19.3270   -6.4200  -34.5780 C.2   102  TYR102      0.2290
     89  O         19.5200   -7.4550  -35.2030 O.2   102  TYR102     -0.2864
     90  CB        17.0900   -6.1140  -33.5400 C.3   102  TYR102      0.0560
     91  CG        15.9370   -5.1680  -33.2900 C.ar  102  TYR102     -0.0198
     92  CD1       16.1700   -3.8590  -32.8870 C.ar  102  TYR102     -0.0009
     93  CD2       14.6160   -5.5910  -33.4230 C.ar  102  TYR102     -0.0009
     94  CE1       15.1240   -2.9890  -32.6450 C.ar  102  TYR102      0.0417
     95  CE2       13.5610   -4.7280  -33.1700 C.ar  102  TYR102      0.0417
     96  CZ        13.8260   -3.4260  -32.7710 C.ar  102  TYR102      0.1957
     97  OH        12.7970   -2.5440  -32.5090 O.3   102  TYR102     -0.2866
@<TRIPOS>BOND
     1    77    78    1
     2    81    78    1
     3    81    82    1
     4    78    79    1
     5    79    80    2
     6    79    86   am
     7    82    83    1
     8    84    83   ar
     9    83    85   ar
    10    86    87    1
    11    89    88    2
    12    87    88    1
    13    87    90    1
    14    90    91    1
    15    93    91   ar
    16    93    95   ar
    17    91    92   ar
    18    95    96   ar
    19    92    94   ar
    20    96    94   ar
    21    96    97    1
    22    71    70    2
    23    70    69    1
    24    64    63    2
    25    69    72    1
    26    69    68    1
    27    72    73    1
    28    73    74    1
    29    67    65    1
    30    75    74    2
    31    63    68   am
    32    63    62    1
    33    74    76   am
    34    65    62    1
    35    65    66    1
    36    62    61    1
    37    59    58    2
    38    56    55    2
    39    58    60   am
    40    58    57    1
    41    55    54    1
    42    54    57    1
    43    54    53    1
    44    44    43    2
    45    35    34    1
    46    53    43   am
    47    43    42    1
    48    36    34    1
    49    34    33    2
    50    42    45    1
    51    42    41    1
    52    33    32    1
    53    45    46    1
    54    32    31    1
    55    16    15    2
    56    40    39    2
    57    31    30    1
    58    47    46   ar
    59    47    49   ar
    60    46    48   ar
    61    19    20    1
    62    19    18    1
    63    15    14    1
    64    15    22   am
    65    17    18    1
    66    17    14    1
    67    13    14    1
    68    39    38    1
    69    20    21    1
    70    23    24    1
    71    23    22    1
    72    12    11    1
    73    25    24    2
    74    49    51   ar
    75    24    26   am
    76    48    50   ar
    77    30    27    1
    78    38    37    1
    79    26    27    1
    80    27    28    1
    81    11     9   ar
    82    11    10   ar
    83    51    50   ar
    84    51    52    1
    85     9     7   ar
    86    10     8   ar
    87    28    29    2
    88     7     6   ar
    89     8     6   ar
    90     6     5    1
    91     5     2    1
    92     4     3    2
    93     3     2    1
    94     2     1    1
