@<TRIPOS>MOLECULE
tmp/4cxoA03.pdb
 130 126 0 0 0
SMALL
GASTEIGER

@<TRIPOS>ATOM
      1  N         24.9130    2.3330  -20.4780 N.3    48  LYS48      -0.1231
      2  CA        23.8750    3.1760  -19.9170 C.3    48  LYS48       0.1693
      3  C         23.9700    4.6170  -20.3670 C.2    48  LYS48       0.2592
      4  O         22.9530    5.2950  -20.4330 O.2    48  LYS48      -0.2718
      5  CB        23.9180    3.1800  -18.3890 C.3    48  LYS48       0.0285
      6  CG        23.3930    1.9280  -17.7490 C.3    48  LYS48       0.0035
      7  CD        23.5140    2.0590  -16.2430 C.3    48  LYS48       0.0206
      8  CE        23.0330    0.8070  -15.5600 C.3    48  LYS48       0.1093
      9  NZ        22.8490    1.0000  -14.1060 N.3    48  LYS48      -0.1314
     10  N         25.1800    5.1050  -20.6310 N.am   49  PHE49      -0.1976
     11  CA        25.3310    6.4920  -21.0400 C.3    49  PHE49       0.1639
     12  C         25.4420    6.6260  -22.5440 C.2    49  PHE49       0.2290
     13  O         24.8830    7.5470  -23.1320 O.2    49  PHE49      -0.2864
     14  CB        26.4820    7.1330  -20.2810 C.3    49  PHE49       0.0560
     15  CG        26.1850    7.2700  -18.8170 C.ar   49  PHE49      -0.0200
     16  CD1       25.3240    8.2590  -18.3800 C.ar   49  PHE49      -0.0042
     17  CD2       26.6810    6.3580  -17.8990 C.ar   49  PHE49      -0.0042
     18  CE1       24.9960    8.3760  -17.0510 C.ar   49  PHE49      -0.0003
     19  CE2       26.3610    6.4640  -16.5530 C.ar   49  PHE49      -0.0003
     20  CZ        25.5220    7.4760  -16.1300 C.ar   49  PHE49      -0.0000
     21  N         18.9490    3.2860  -19.8880 N.3    55  SER55      -0.1217
     22  CA        19.1960    3.3820  -18.4510 C.3    55  SER55       0.1889
     23  C         18.0020    2.9190  -17.6050 C.2    55  SER55       0.2288
     24  O         18.1740    2.1460  -16.6540 O.2    55  SER55      -0.2866
     25  CB        19.6110    4.8040  -18.0800 C.3    55  SER55       0.2089
     26  OG        19.8840    4.8880  -16.7020 O.3    55  SER55      -0.2183
     27  N         16.9550   -1.0120  -16.6890 N.3    58  HIS58      -0.1226
     28  CA        17.5770   -1.8760  -15.6920 C.3    58  HIS58       0.1752
     29  C         16.7230   -2.1550  -14.4810 C.2    58  HIS58       0.2596
     30  O         17.0680   -3.0270  -13.6710 O.2    58  HIS58      -0.2718
     31  CB        18.9070   -1.2950  -15.2430 C.3    58  HIS58       0.0759
     32  CG        19.9370   -1.3100  -16.3150 C.ar   58  HIS58       0.0818
     33  ND1       21.0500   -2.1130  -16.2510 N.ar   58  HIS58      -0.2268
     34  CD2       20.0080   -0.6600  -17.5030 C.ar   58  HIS58       0.1154
     35  CE1       21.7810   -1.9400  -17.3350 C.ar   58  HIS58       0.1986
     36  NE2       21.1680   -1.0650  -18.1140 N.ar   58  HIS58      -0.2212
     37  N         15.6240   -1.4260  -14.3360 N.am   59  TYR59      -0.1962
     38  CA        14.8490   -1.5000  -13.0970 C.3    59  TYR59       0.1771
     39  C         13.3620   -1.2290  -13.2980 C.2    59  TYR59       0.2619
     40  O         12.9050   -0.9460  -14.4130 O.2    59  TYR59      -0.2715
     41  CB        15.4370   -0.5350  -12.0590 C.3    59  TYR59       0.0574
     42  CG        15.4670    0.8970  -12.5080 C.ar   59  TYR59      -0.0198
     43  CD1       14.3350    1.6980  -12.4140 C.ar   59  TYR59      -0.0009
     44  CD2       16.6240    1.4560  -13.0340 C.ar   59  TYR59      -0.0009
     45  CE1       14.3440    3.0100  -12.8480 C.ar   59  TYR59       0.0417
     46  CE2       16.6450    2.7700  -13.4680 C.ar   59  TYR59       0.0417
     47  CZ        15.5000    3.5380  -13.3710 C.ar   59  TYR59       0.1957
     48  OH        15.5070    4.8330  -13.8020 O.3    59  TYR59      -0.2866
     49  N         12.6300   -1.3340  -12.1910 N.am   60  ILE60      -0.1963
     50  CA        11.2130   -0.9940  -12.1010 C.3    60  ILE60       0.1727
     51  C         11.0330   -0.1800  -10.8490 C.2    60  ILE60       0.2616
     52  O         11.5940   -0.5240   -9.8130 O.2    60  ILE60      -0.2715
     53  CB        10.3440   -2.2640  -11.9670 C.3    60  ILE60       0.0290
     54  CG1       10.3320   -3.0270  -13.2850 C.3    60  ILE60       0.0022
     55  CG2        8.9160   -1.9190  -11.5680 C.3    60  ILE60       0.0023
     56  CD1        9.8010   -4.4460  -13.2010 C.3    60  ILE60       0.0001
     57  N         10.2450    0.8860  -10.9410 N.am   61  ASN61      -0.1972
     58  CA         9.8140    1.6400   -9.7730 C.3    61  ASN61       0.1688
     59  C          8.3540    1.3690   -9.4860 C.2    61  ASN61       0.2292
     60  O          7.5200    1.3560  -10.3950 O.2    61  ASN61      -0.2864
     61  CB         9.9810    3.1360   -9.9930 C.3    61  ASN61       0.1181
     62  CG        11.4270    3.5980   -9.9380 C.2    61  ASN61       0.2629
     63  OD1       11.7760    4.5790  -10.5760 O.2    61  ASN61      -0.2716
     64  ND2       12.2580    2.9190   -9.1670 N.am   61  ASN61      -0.0877
     65  N         10.3290    7.5280  -16.4000 N.3    77  GLU77      -0.1245
     66  CA         9.9270    8.7820  -15.7610 C.3    77  GLU77       0.1567
     67  C          9.1610    9.6840  -16.7260 C.2    77  GLU77       0.2260
     68  O          8.3520   10.5000  -16.2910 O.2    77  GLU77      -0.2867
     69  CB        11.1440    9.5180  -15.1900 C.3    77  GLU77       0.0388
     70  CG        11.7960    8.8020  -14.0030 C.3    77  GLU77       0.1160
     71  CD        12.7290    7.6710  -14.4320 C.2    77  GLU77       0.3649
     72  OE1       13.3030    7.7090  -15.5860 O.co2  77  GLU77      -0.2457
     73  OE2       12.9400    6.6770  -13.6410 O.co2  77  GLU77      -0.2457
     74  N         15.9560   -4.8590   -5.0440 N.3   122  LEU122     -0.1231
     75  CA        15.8520   -3.4150   -5.0690 C.3   122  LEU122      0.1693
     76  C         15.8400   -2.8470   -6.4830 C.2   122  LEU122      0.2592
     77  O         15.7020   -1.6510   -6.6560 O.2   122  LEU122     -0.2718
     78  CB        16.9450   -2.7750   -4.2130 C.3   122  LEU122      0.0284
     79  CG        16.7340   -2.9460   -2.7160 C.3   122  LEU122      0.0019
     80  CD1       17.8950   -2.3640   -1.9310 C.3   122  LEU122      0.0001
     81  CD2       15.4190   -2.3300   -2.2880 C.3   122  LEU122      0.0001
     82  N         15.9420   -3.6990   -7.4980 N.am  123  HIS123     -0.1976
     83  CA        15.6620   -3.2720   -8.8600 C.3   123  HIS123      0.1656
     84  C         14.1710   -3.2970   -9.1970 C.2   123  HIS123      0.2291
     85  O         13.7860   -2.9420  -10.2940 O.2   123  HIS123     -0.2864
     86  CB        16.4370   -4.1280   -9.8600 C.3   123  HIS123      0.0771
     87  CG        17.8400   -3.6700  -10.0540 C.ar  123  HIS123      0.0820
     88  ND1       18.3170   -3.2480  -11.2710 N.ar  123  HIS123     -0.2267
     89  CD2       18.8530   -3.5080   -9.1740 C.ar  123  HIS123      0.1154
     90  CE1       19.5730   -2.8630  -11.1400 C.ar  123  HIS123      0.1986
     91  NE2       19.9120   -2.9870   -9.8690 N.ar  123  HIS123     -0.2212
     92  N         14.5480    5.8320   -4.8560 N.3   130  LYS130     -0.1231
     93  CA        15.3170    5.4210   -6.0280 C.3   130  LYS130      0.1693
     94  C         15.8780    4.0140   -5.8430 C.2   130  LYS130      0.2592
     95  O         17.0650    3.7640   -6.0280 O.2   130  LYS130     -0.2718
     96  CB        16.4260    6.4380   -6.3300 C.3   130  LYS130      0.0285
     97  CG        15.9320    7.7750   -6.8720 C.3   130  LYS130      0.0035
     98  CD        15.5350    7.6800   -8.3410 C.3   130  LYS130      0.0206
     99  CE        14.0300    7.8220   -8.5420 C.3   130  LYS130      0.1093
    100  NZ        13.5110    9.1890   -8.2280 N.3   130  LYS130     -0.1314
    101  N         15.0010    3.0960   -5.4740 N.am  131  GLY131     -0.1957
    102  CA        15.3820    1.7030   -5.2650 C.3   131  GLY131      0.1869
    103  C         16.4360    1.4990   -4.1950 C.2   131  GLY131      0.2309
    104  O         17.3140    0.6500   -4.3150 O.2   131  GLY131     -0.2863
    105  N         18.6680    3.6890   -3.3090 N.3   133  ASN133     -0.1240
    106  CA        19.8710    4.4620   -3.5260 C.3   133  ASN133      0.1653
    107  C         19.9970    5.6480   -2.5740 C.2   133  ASN133      0.2266
    108  O         21.1030    6.0630   -2.2550 O.2   133  ASN133     -0.2867
    109  CB        19.9780    4.9020   -4.9870 C.3   133  ASN133      0.1155
    110  CG        20.5810    3.8290   -5.8640 C.2   133  ASN133      0.2627
    111  OD1       21.7760    3.5650   -5.7840 O.2   133  ASN133     -0.2716
    112  ND2       19.7620    3.1980   -6.6940 N.am  133  ASN133     -0.0877
    113  N         20.9370    0.1690   -1.8100 N.3   147  HIS147     -0.1241
    114  CA        20.9310   -0.4420   -3.1340 C.3   147  HIS147      0.1621
    115  C         22.2660   -1.1350   -3.4430 C.2   147  HIS147      0.2264
    116  O         22.2950   -2.2860   -3.8980 O.2   147  HIS147     -0.2867
    117  CB        20.5920    0.5820   -4.2010 C.3   147  HIS147      0.0745
    118  CG        20.4610   -0.0140   -5.5570 C.ar  147  HIS147      0.0817
    119  ND1       19.2500   -0.3990   -6.0930 N.ar  147  HIS147     -0.2268
    120  CD2       21.4040   -0.3800   -6.4480 C.ar  147  HIS147      0.1154
    121  CE1       19.4540   -0.9360   -7.2830 C.ar  147  HIS147      0.1986
    122  NE2       20.7540   -0.9450   -7.5150 N.ar  147  HIS147     -0.2212
    123  N         23.3720   -4.8120   -4.5650 N.3   151  ASP151     -0.1239
    124  CA        24.0750   -5.0450   -5.8310 C.3   151  ASP151      0.1674
    125  C         25.3980   -5.7950   -5.6340 C.2   151  ASP151      0.2266
    126  O         25.7490   -6.6600   -6.4480 O.2   151  ASP151     -0.2867
    127  CB        24.4100   -3.7250   -6.5280 C.3   151  ASP151      0.1410
    128  CG        23.3280   -3.2340   -7.4710 C.2   151  ASP151      0.3668
    129  OD1       22.3450   -3.9420   -7.7630 O.co2 151  ASP151     -0.2456
    130  OD2       23.4900   -2.0860   -7.9420 O.co2 151  ASP151     -0.2456
@<TRIPOS>BOND
     1    13    12    2
     2    12    11    1
     3    11    10    1
     4    11    14    1
     5    10     3   am
     6     1     2    1
     7     4     3    2
     8     3     2    1
     9    14    15    1
    10     2     5    1
    11    21    22    1
    12    15    16   ar
    13    15    17   ar
    14    22    25    1
    15    22    23    1
    16     5     6    1
    17    16    18   ar
    18    36    34   ar
    19    36    35   ar
    20    25    26    1
    21    17    19   ar
    22     6     7    1
    23    23    24    2
    24    34    32   ar
    25    35    33   ar
    26    18    20   ar
    27    67    68    2
    28    67    66    1
    29    27    28    1
    30    19    20   ar
    31    65    66    1
    32    32    33   ar
    33    32    31    1
    34     7     8    1
    35    66    69    1
    36    28    31    1
    37    28    29    1
    38    72    71   ar
    39     8     9    1
    40    69    70    1
    41    29    37   am
    42    29    30    2
    43    71    70    1
    44    71    73   ar
    45    40    39    2
    46    37    38    1
    47    48    47    1
    48    46    47   ar
    49    46    44   ar
    50    47    45   ar
    51    39    38    1
    52    39    49   am
    53    54    56    1
    54    54    53    1
    55    38    41    1
    56    44    42   ar
    57    45    43   ar
    58    42    43   ar
    59    42    41    1
    60    49    50    1
    61    50    53    1
    62    50    51    1
    63    53    55    1
    64    88    90   ar
    65    88    87   ar
    66    90    91   ar
    67    57    51   am
    68    57    58    1
    69    51    52    2
    70    63    62    2
    71    60    59    2
    72    85    84    2
    73    87    86    1
    74    87    89   ar
    75    61    62    1
    76    61    58    1
    77    62    64   am
    78    91    89   ar
    79    86    83    1
    80    58    59    1
    81    84    83    1
    82    83    82    1
    83    99    98    1
    84    99   100    1
    85    98    97    1
    86   130   128   ar
    87   129   128   ar
    88   122   121   ar
    89   122   120   ar
    90    82    76   am
    91   128   127    1
    92   121   119   ar
    93    97    96    1
    94   112   110   am
    95    77    76    2
    96   127   124    1
    97    76    75    1
    98   126   125    2
    99   120   118   ar
   100    96    93    1
   101   119   118   ar
   102    93    94    1
   103    93    92    1
   104    95    94    2
   105   110   111    2
   106   110   109    1
   107    94   101   am
   108   124   125    1
   109   124   123    1
   110   118   117    1
   111   101   102    1
   112   102   103    1
   113    75    74    1
   114    75    78    1
   115   109   106    1
   116   104   103    2
   117    78    79    1
   118   117   114    1
   119   116   115    2
   120   106   105    1
   121   106   107    1
   122   115   114    1
   123   114   113    1
   124    79    81    1
   125    79    80    1
   126   107   108    2
