@<TRIPOS>MOLECULE
tmp/4cxpA00.pdb
 143 139 0 0 0
SMALL
GASTEIGER

@<TRIPOS>ATOM
      1  N         21.6530    6.1190  -23.9340 N.3    52  HIS52      -0.1226
      2  CA        21.0820    6.6610  -22.7110 C.3    52  HIS52       0.1752
      3  C         19.6220    6.1990  -22.5060 C.2    52  HIS52       0.2596
      4  O         19.1640    6.0430  -21.3700 O.2    52  HIS52      -0.2718
      5  CB        21.2880    8.1680  -22.7030 C.3    52  HIS52       0.0759
      6  CG        21.2790    8.7990  -21.3470 C.ar   52  HIS52       0.0818
      7  ND1       21.6390    8.1700  -20.1640 N.ar   52  HIS52      -0.2268
      8  CD2       20.9510   10.0680  -21.0110 C.ar   52  HIS52       0.1154
      9  CE1       21.5110    9.0300  -19.1690 C.ar   52  HIS52       0.1986
     10  NE2       21.1030   10.1870  -19.6560 N.ar   52  HIS52      -0.2212
     11  N         18.9370    5.8780  -23.5950 N.am   53  TRP53      -0.1976
     12  CA        17.6280    5.2670  -23.5800 C.3    53  TRP53       0.1640
     13  C         17.5890    3.9380  -22.8330 C.2    53  TRP53       0.2290
     14  O         16.5170    3.4490  -22.4830 O.2    53  TRP53      -0.2864
     15  CB        17.1490    5.0350  -25.0310 C.3    53  TRP53       0.0576
     16  CG        18.1260    4.3140  -25.9060 C.ar   53  TRP53       0.0006
     17  CD1       18.9660    4.8820  -26.8030 C.ar   53  TRP53       0.0946
     18  CD2       18.3310    2.8910  -26.0120 C.ar   53  TRP53       0.0152
     19  NE1       19.7020    3.9260  -27.4430 N.ar   53  TRP53      -0.2442
     20  CE2       19.3250    2.6890  -26.9890 C.ar   53  TRP53       0.0810
     21  CE3       17.7750    1.7750  -25.3790 C.ar   53  TRP53       0.0012
     22  CZ2       19.7850    1.4200  -27.3430 C.ar   53  TRP53       0.0191
     23  CZ3       18.2320    0.5190  -25.7320 C.ar   53  TRP53       0.0001
     24  CH2       19.2290    0.3480  -26.7000 C.ar   53  TRP53       0.0015
     25  N         16.0910    0.7260  -18.3210 N.3    57  LEU57      -0.1245
     26  CA        15.8090   -0.6720  -18.5850 C.3    57  LEU57       0.1561
     27  C         16.4470   -1.6160  -17.5850 C.2    57  LEU57       0.2260
     28  O         16.2080   -2.8180  -17.6610 O.2    57  LEU57      -0.2867
     29  CB        16.2630   -1.0380  -20.0080 C.3    57  LEU57       0.0270
     30  CG        15.6510   -0.1980  -21.1330 C.3    57  LEU57       0.0019
     31  CD1       16.1350   -0.7320  -22.4720 C.3    57  LEU57       0.0001
     32  CD2       14.1280   -0.1330  -21.0920 C.3    57  LEU57       0.0001
     33  N          6.6750    6.4730  -20.2000 N.3    80  GLU80      -0.1245
     34  CA         6.6160    5.6070  -21.3820 C.3    80  GLU80       0.1567
     35  C          6.4940    4.1400  -20.9690 C.2    80  GLU80       0.2260
     36  O          7.4010    3.5790  -20.3760 O.2    80  GLU80      -0.2867
     37  CB         7.8120    5.7970  -22.3210 C.3    80  GLU80       0.0388
     38  CG         7.6050    5.0580  -23.6420 C.3    80  GLU80       0.1160
     39  CD         8.6040    5.4020  -24.7310 C.2    80  GLU80       0.3649
     40  OE1        9.4270    6.3190  -24.5480 O.co2  80  GLU80      -0.2457
     41  OE2        8.5590    4.7380  -25.7900 O.co2  80  GLU80      -0.2457
     42  N          6.4790    0.2100  -20.8010 N.3    82  GLY82      -0.1210
     43  CA         7.4090   -0.7940  -21.3040 C.3    82  GLY82       0.1956
     44  C          8.8580   -0.5320  -20.9660 C.2    82  GLY82       0.2611
     45  O          9.6810   -1.4260  -21.0770 O.2    82  GLY82      -0.2717
     46  N          9.1780    0.6800  -20.5310 N.am   83  ARG83      -0.1979
     47  CA        10.5690    1.0460  -20.3550 C.3    83  ARG83       0.1597
     48  C         11.0340    0.7840  -18.9180 C.2    83  ARG83       0.2287
     49  O         11.2440    1.6880  -18.1160 O.2    83  ARG83      -0.2864
     50  CB        10.8240    2.4610  -20.8440 C.3    83  ARG83       0.0334
     51  CG        10.3860    2.6220  -22.3120 C.3    83  ARG83       0.0492
     52  CD        11.1460    3.6920  -23.0410 C.3    83  ARG83       0.2205
     53  NE        12.5490    3.3420  -23.1850 N.pl3  83  ARG83      -0.0865
     54  CZ        13.0550    2.5450  -24.1280 C.cat  83  ARG83       0.5346
     55  NH1       12.2950    1.9880  -25.0550 N.pl3  83  ARG83       0.1354
     56  NH2       14.3560    2.3380  -24.1690 N.pl3  83  ARG83       0.1354
     57  N          9.9900   -4.9910  -19.3050 N.3    87  GLY87      -0.1210
     58  CA         9.7460   -4.6530  -20.6930 C.3    87  GLY87       0.1956
     59  C         10.9530   -4.9090  -21.5800 C.2    87  GLY87       0.2611
     60  O         10.8120   -5.3570  -22.7170 O.2    87  GLY87      -0.2717
     61  N         12.1460   -4.6580  -21.0570 N.am   88  ALA88      -0.1979
     62  CA        13.3710   -4.9290  -21.8000 C.3    88  ALA88       0.1597
     63  C         13.5390   -6.4270  -22.0350 C.2    88  ALA88       0.2287
     64  O         13.9240   -6.8520  -23.1200 O.2    88  ALA88      -0.2864
     65  CB        14.5690   -4.3640  -21.0780 C.3    88  ALA88       0.0319
     66  N         11.3170   -7.4130  -24.7940 N.3    91  ASN91      -0.1225
     67  CA        11.8340   -6.8750  -26.0600 C.3    91  ASN91       0.1785
     68  C         12.9410   -7.7230  -26.6330 C.2    91  ASN91       0.2597
     69  O         12.8870   -8.1510  -27.7960 O.2    91  ASN91      -0.2718
     70  CB        12.3850   -5.5020  -25.7760 C.3    91  ASN91       0.1169
     71  CG        12.8300   -4.7250  -26.9720 C.2    91  ASN91       0.2627
     72  OD1       12.3870   -4.9260  -28.1090 O.2    91  ASN91      -0.2716
     73  ND2       13.7320   -3.7850  -26.6980 N.am   91  ASN91      -0.0877
     74  N         13.9750   -7.9500  -25.8300 N.am   92  TYR92      -0.1976
     75  CA        15.1590   -8.6170  -26.3370 C.3    92  TYR92       0.1639
     76  C         14.9420  -10.1080  -26.5250 C.2    92  TYR92       0.2290
     77  O         15.5230  -10.6980  -27.4460 O.2    92  TYR92      -0.2864
     78  CB        16.3850   -8.2500  -25.4840 C.3    92  TYR92       0.0560
     79  CG        16.7410   -6.7860  -25.6170 C.ar   92  TYR92      -0.0198
     80  CD1       17.2100   -6.2960  -26.8180 C.ar   92  TYR92      -0.0009
     81  CD2       16.5580   -5.8840  -24.5830 C.ar   92  TYR92      -0.0009
     82  CE1       17.4850   -4.9530  -26.9800 C.ar   92  TYR92       0.0417
     83  CE2       16.8280   -4.5410  -24.7380 C.ar   92  TYR92       0.0417
     84  CZ        17.2980   -4.0780  -25.9380 C.ar   92  TYR92       0.1957
     85  OH        17.5410   -2.7390  -26.0700 O.3    92  TYR92      -0.2866
     86  N         13.3120  -10.3130  -29.9100 N.3    95  GLN95      -0.1245
     87  CA        14.3030  -10.1510  -30.9650 C.3    95  GLN95       0.1566
     88  C         15.0680  -11.4500  -31.2220 C.2    95  GLN95       0.2260
     89  O         15.2950  -11.8250  -32.3740 O.2    95  GLN95      -0.2867
     90  CB        15.2740   -9.0320  -30.6200 C.3    95  GLN95       0.0367
     91  CG        14.6360   -7.6630  -30.5940 C.3    95  GLN95       0.0905
     92  CD        15.5780   -6.6020  -30.1020 C.2    95  GLN95       0.2608
     93  OE1       16.7920   -6.7240  -30.2350 O.2    95  GLN95      -0.2717
     94  NE2       15.0200   -5.5540  -29.5060 N.am   95  GLN95      -0.0878
     95  N         16.2080   -6.2620  -38.2060 N.3   102  GLN102     -0.1231
     96  CA        16.6780   -4.8870  -38.0150 C.3   102  GLN102      0.1698
     97  C         17.5970   -4.7270  -36.8030 C.2   102  GLN102      0.2592
     98  O         18.2810   -3.7200  -36.6630 O.2   102  GLN102     -0.2718
     99  CB        15.4750   -3.9430  -37.8640 C.3   102  GLN102      0.0381
    100  CG        14.8880   -3.8870  -36.4580 C.3   102  GLN102      0.0905
    101  CD        13.4270   -3.4700  -36.4260 C.2   102  GLN102      0.2608
    102  OE1       12.5430   -4.2850  -36.6770 O.2   102  GLN102     -0.2717
    103  NE2       13.1660   -2.2090  -36.0850 N.am  102  GLN102     -0.0878
    104  N         17.6060   -5.7210  -35.9210 N.am  103  TYR103     -0.1962
    105  CA        18.2870   -5.6030  -34.6490 C.3   103  TYR103      0.1771
    106  C         19.5950   -6.3710  -34.5990 C.2   103  TYR103      0.2619
    107  O         19.7430   -7.4230  -35.2070 O.2   103  TYR103     -0.2715
    108  CB        17.3620   -6.0920  -33.5410 C.3   103  TYR103      0.0574
    109  CG        16.1040   -5.2650  -33.3670 C.ar  103  TYR103     -0.0198
    110  CD1       16.1640   -3.9480  -32.9180 C.ar  103  TYR103     -0.0009
    111  CD2       14.8510   -5.8150  -33.6040 C.ar  103  TYR103     -0.0009
    112  CE1       15.0050   -3.1980  -32.7320 C.ar  103  TYR103      0.0417
    113  CE2       13.6910   -5.0770  -33.4200 C.ar  103  TYR103      0.0417
    114  CZ        13.7670   -3.7750  -32.9770 C.ar  103  TYR103      0.1957
    115  OH        12.6010   -3.0620  -32.7970 O.3   103  TYR103     -0.2866
    116  N         20.5190   -5.8540  -33.7990 N.am  104  ASN104     -0.1972
    117  CA        21.7880   -6.5020  -33.5320 C.3   104  ASN104      0.1688
    118  C         21.5470   -7.5510  -32.4540 C.2   104  ASN104      0.2292
    119  O         21.2420   -7.2310  -31.3040 O.2   104  ASN104     -0.2864
    120  CB        22.7770   -5.4380  -33.1080 C.3   104  ASN104      0.1181
    121  CG        24.1430   -5.9750  -32.7720 C.2   104  ASN104      0.2629
    122  OD1       24.2910   -7.0830  -32.2630 O.2   104  ASN104     -0.2716
    123  ND2       25.1740   -5.1640  -33.0540 N.am  104  ASN104     -0.0877
    124  N         23.8840   -7.7010  -29.3390 N.3   107  GLU107     -0.1245
    125  CA        23.3740   -6.8100  -28.2990 C.3   107  GLU107      0.1567
    126  C         22.1620   -7.4200  -27.6140 C.2   107  GLU107      0.2260
    127  O         22.0530   -7.3530  -26.3920 O.2   107  GLU107     -0.2867
    128  CB        23.0340   -5.4200  -28.8380 C.3   107  GLU107      0.0388
    129  CG        24.2600   -4.6370  -29.2620 C.3   107  GLU107      0.1160
    130  CD        24.0200   -3.1660  -29.5700 C.2   107  GLU107      0.3649
    131  OE1       22.8490   -2.7230  -29.6430 O.co2 107  GLU107     -0.2457
    132  OE2       25.0320   -2.4470  -29.7490 O.co2 107  GLU107     -0.2457
    133  N         22.0270   -7.9190  -23.6470 N.3   111  PHE111     -0.1241
    134  CA        20.9930   -7.2490  -22.8760 C.3   111  PHE111      0.1605
    135  C         20.1300   -8.2600  -22.1150 C.2   111  PHE111      0.2264
    136  O         19.8960   -8.0910  -20.9310 O.2   111  PHE111     -0.2867
    137  CB        20.0950   -6.3940  -23.7820 C.3   111  PHE111      0.0534
    138  CG        20.6410   -5.0320  -24.1370 C.ar  111  PHE111     -0.0203
    139  CD1       21.0710   -4.1480  -23.1560 C.ar  111  PHE111     -0.0042
    140  CD2       20.6530   -4.6020  -25.4650 C.ar  111  PHE111     -0.0042
    141  CE1       21.4930   -2.8740  -23.4800 C.ar  111  PHE111     -0.0003
    142  CE2       21.0780   -3.3290  -25.7930 C.ar  111  PHE111     -0.0003
    143  CZ        21.4970   -2.4630  -24.8080 C.ar  111  PHE111     -0.0000
@<TRIPOS>BOND
     1    95    96    1
     2    96    99    1
     3    96    97    1
     4    99   100    1
     5    97    98    2
     6    97   104   am
     7   102   101    2
     8   100   101    1
     9   101   103   am
    10   104   105    1
    11   107   106    2
    12   105   106    1
    13   105   108    1
    14   106   116   am
    15   116   117    1
    16   111   113   ar
    17   111   109   ar
    18   108   109    1
    19   117   120    1
    20   117   118    1
    21   113   114   ar
    22   109   110   ar
    23   120   121    1
    24   123   121   am
    25   114   115    1
    26   114   112   ar
    27   110   112   ar
    28   121   122    2
    29   118   119    2
    30    89    88    2
    31    88    87    1
    32    87    90    1
    33    87    86    1
    34    90    91    1
    35    91    92    1
    36    93    92    2
    37    92    94   am
    38   132   130   ar
    39   131   130   ar
    40   130   129    1
    41   124   125    1
    42   129   128    1
    43   128   125    1
    44   125   126    1
    45    72    71    2
    46    69    68    2
    47   126   127    2
    48    77    76    2
    49    19    20   ar
    50    19    17   ar
    51    22    20   ar
    52    22    24   ar
    53    20    18   ar
    54    82    80   ar
    55    82    84   ar
    56    71    73   am
    57    71    70    1
    58    80    79   ar
    59    17    16   ar
    60    24    23   ar
    61    68    67    1
    62    68    74   am
    63    76    75    1
    64    75    74    1
    65    75    78    1
    66    85    84    1
    67    67    70    1
    68    67    66    1
    69    18    16   ar
    70    18    21   ar
    71    84    83   ar
    72    16    15    1
    73   142   140   ar
    74   142   143   ar
    75    41    39   ar
    76    23    21   ar
    77    79    78    1
    78    79    81   ar
    79   140   138   ar
    80    55    54    1
    81    15    12    1
    82   143   141   ar
    83    83    81   ar
    84    39    40   ar
    85    39    38    1
    86    56    54    1
    87   138   137    1
    88   138   139   ar
    89    54    53    2
    90     1     2    1
    91   137   134    1
    92   133   134    1
    93    38    37    1
    94    11    12    1
    95    11     3   am
    96    12    13    1
    97   141   139   ar
    98    53    52    1
    99    64    63    2
   100    52    51    1
   101   134   135    1
   102    13    14    2
   103    60    59    2
   104     2     5    1
   105     2     3    1
   106     5     6    1
   107     3     4    2
   108    31    30    1
   109    37    34    1
   110    51    50    1
   111   135   136    2
   112    63    62    1
   113    62    65    1
   114    62    61    1
   115    59    61   am
   116    59    58    1
   117    34    35    1
   118    34    33    1
   119     6     8   ar
   120     6     7   ar
   121    43    44    1
   122    43    42    1
   123    30    32    1
   124    30    29    1
   125    45    44    2
   126     8    10   ar
   127    35    36    2
   128    44    46   am
   129    50    47    1
   130    58    57    1
   131    46    47    1
   132    47    48    1
   133     7     9   ar
   134    29    26    1
   135    10     9   ar
   136    48    49    2
   137    26    25    1
   138    26    27    1
   139    28    27    2
