@<TRIPOS>MOLECULE
tmp/4cxpA01.pdb
 101 96 0 0 0
SMALL
GASTEIGER

@<TRIPOS>ATOM
      1  N         31.0740  -12.1820  -29.5650 N.3    30  PRO30      -0.2116
      2  CA        32.2510  -11.7910  -30.3470 C.3    30  PRO30       0.1372
      3  C         33.4550  -12.6350  -30.0060 C.2    30  PRO30       0.2244
      4  O         33.5340  -13.1980  -28.9220 O.2    30  PRO30      -0.2868
      5  CB        32.4970  -10.3560  -29.9330 C.3    30  PRO30       0.0268
      6  CG        31.9590  -10.2750  -28.5670 C.3    30  PRO30       0.0207
      7  CD        30.7730  -11.2160  -28.5020 C.3    30  PRO30       0.0892
      8  N         36.3320  -11.8750  -29.1120 N.3    32  SER32      -0.1217
      9  CA        37.0450  -11.4000  -27.9240 C.3    32  SER32       0.1889
     10  C         36.5460  -12.0360  -26.6200 C.2    32  SER32       0.2288
     11  O         37.2780  -12.0690  -25.6300 O.2    32  SER32      -0.2866
     12  CB        36.9420   -9.8700  -27.8230 C.3    32  SER32       0.2089
     13  OG        35.5930   -9.4530  -27.7890 O.3    32  SER32      -0.2183
     14  N         31.0120  -10.9270  -20.7760 N.3    40  LEU40      -0.1245
     15  CA        30.2940   -9.7600  -21.2880 C.3    40  LEU40       0.1561
     16  C         28.9740   -9.4890  -20.5560 C.2    40  LEU40       0.2260
     17  O         28.1550   -8.7080  -21.0030 O.2    40  LEU40      -0.2867
     18  CB        30.0220   -9.9290  -22.7710 C.3    40  LEU40       0.0270
     19  CG        31.2470   -9.7040  -23.6470 C.3    40  LEU40       0.0019
     20  CD1       30.9460  -10.1600  -25.0630 C.3    40  LEU40       0.0001
     21  CD2       31.6720   -8.2350  -23.6500 C.3    40  LEU40       0.0001
     22  N         28.3520   -5.8160  -19.9630 N.3    43  TRP43      -0.1241
     23  CA        28.3580   -4.9180  -21.1100 C.3    43  TRP43       0.1605
     24  C         27.1990   -3.9350  -21.0530 C.2    43  TRP43       0.2264
     25  O         27.3800   -2.7510  -21.3090 O.2    43  TRP43      -0.2867
     26  CB        28.3150   -5.7170  -22.4190 C.3    43  TRP43       0.0550
     27  CG        28.1410   -4.8710  -23.6300 C.ar   43  TRP43       0.0003
     28  CD1       29.1170   -4.2540  -24.3520 C.ar   43  TRP43       0.0946
     29  CD2       26.9000   -4.5430  -24.2700 C.ar   43  TRP43       0.0152
     30  NE1       28.5680   -3.5510  -25.3890 N.ar   43  TRP43      -0.2442
     31  CE2       27.2090   -3.7150  -25.3690 C.ar   43  TRP43       0.0810
     32  CE3       25.5660   -4.8760  -24.0300 C.ar   43  TRP43       0.0012
     33  CZ2       26.2400   -3.2060  -26.2090 C.ar   43  TRP43       0.0191
     34  CZ3       24.5950   -4.3470  -24.8520 C.ar   43  TRP43       0.0001
     35  CH2       24.9390   -3.5320  -25.9400 C.ar   43  TRP43       0.0015
     36  N         27.8450   -0.8320  -19.2650 N.3    46  ARG46      -0.1245
     37  CA        28.8310    0.0240  -19.9220 C.3    46  ARG46       0.1563
     38  C         28.2840    0.7930  -21.1170 C.2    46  ARG46       0.2260
     39  O         29.0200    1.5270  -21.7390 O.2    46  ARG46      -0.2867
     40  CB        30.0410   -0.8020  -20.3520 C.3    46  ARG46       0.0307
     41  CG        30.8430   -1.3240  -19.1810 C.3    46  ARG46       0.0489
     42  CD        32.1960   -1.8360  -19.6390 C.3    46  ARG46       0.2205
     43  NE        32.0760   -3.0100  -20.4970 N.pl3  46  ARG46      -0.0865
     44  CZ        32.2200   -3.0110  -21.8210 C.cat  46  ARG46       0.5346
     45  NH1       32.5090   -1.8860  -22.4880 N.pl3  46  ARG46       0.1354
     46  NH2       32.0890   -4.1530  -22.4710 N.pl3  46  ARG46       0.1354
     47  N         26.2000    5.8240  -23.4300 N.3    50  ARG50      -0.1231
     48  CA        26.2540    5.7990  -24.8960 C.3    50  ARG50       0.1694
     49  C         24.8710    5.5270  -25.4830 C.2    50  ARG50       0.2592
     50  O         24.5040    6.1080  -26.4990 O.2    50  ARG50      -0.2718
     51  CB        27.2350    4.7630  -25.3680 C.3    50  ARG50       0.0321
     52  CG        28.6730    5.2400  -25.2570 C.3    50  ARG50       0.0489
     53  CD        29.6400    4.1830  -25.7200 C.3    50  ARG50       0.2205
     54  NE        29.7520    3.0750  -24.7880 N.pl3  50  ARG50      -0.0865
     55  CZ        30.4490    1.9710  -25.0300 C.cat  50  ARG50       0.5346
     56  NH1       31.0820    1.8060  -26.1810 N.pl3  50  ARG50       0.1354
     57  NH2       30.5160    1.0170  -24.1180 N.pl3  50  ARG50       0.1354
     58  N         24.1070    4.6450  -24.8340 N.am   51  TYR51      -0.1976
     59  CA        22.7090    4.3450  -25.1870 C.3    51  TYR51       0.1639
     60  C         21.8610    4.8240  -24.0270 C.2    51  TYR51       0.2290
     61  O         21.4290    4.0470  -23.1750 O.2    51  TYR51      -0.2864
     62  CB        22.4890    2.8460  -25.3980 C.3    51  TYR51       0.0560
     63  CG        23.2030    2.1850  -26.5560 C.ar   51  TYR51      -0.0198
     64  CD1       23.6680    2.8850  -27.6600 C.ar   51  TYR51      -0.0009
     65  CD2       23.3640    0.8060  -26.5550 C.ar   51  TYR51      -0.0009
     66  CE1       24.2780    2.2150  -28.7170 C.ar   51  TYR51       0.0417
     67  CE2       23.9770    0.1340  -27.5980 C.ar   51  TYR51       0.0417
     68  CZ        24.4330    0.8360  -28.6790 C.ar   51  TYR51       0.1957
     69  OH        25.0320    0.1670  -29.7290 O.3    51  TYR51      -0.2866
     70  N         20.5190   -5.8540  -33.7990 N.3   104  ASN104     -0.1240
     71  CA        21.7880   -6.5020  -33.5320 C.3   104  ASN104      0.1653
     72  C         21.5470   -7.5510  -32.4540 C.2   104  ASN104      0.2266
     73  O         21.2420   -7.2310  -31.3040 O.2   104  ASN104     -0.2867
     74  CB        22.7770   -5.4380  -33.1080 C.3   104  ASN104      0.1155
     75  CG        24.1430   -5.9750  -32.7720 C.2   104  ASN104      0.2627
     76  OD1       24.2910   -7.0830  -32.2630 O.2   104  ASN104     -0.2716
     77  ND2       25.1740   -5.1640  -33.0540 N.am  104  ASN104     -0.0877
     78  N         23.6220   -9.7990  -31.2160 N.3   106  THR106     -0.1203
     79  CA        24.6460   -9.8580  -30.1880 C.3   106  THR106      0.1994
     80  C         24.2590   -8.9310  -29.0290 C.2   106  THR106      0.2617
     81  O         24.2810   -9.3350  -27.8670 O.2   106  THR106     -0.2717
     82  CB        26.0230   -9.5030  -30.7380 C.3   106  THR106      0.1784
     83  OG1       26.3810  -10.4940  -31.7090 O.3   106  THR106     -0.2211
     84  CG2       27.0700   -9.4230  -29.6390 C.3   106  THR106      0.0376
     85  N         23.8840   -7.7010  -29.3390 N.am  107  GLU107     -0.1979
     86  CA        23.3740   -6.8100  -28.2990 C.3   107  GLU107      0.1602
     87  C         22.1620   -7.4200  -27.6140 C.2   107  GLU107      0.2287
     88  O         22.0530   -7.3530  -26.3920 O.2   107  GLU107     -0.2864
     89  CB        23.0340   -5.4200  -28.8380 C.3   107  GLU107      0.0415
     90  CG        24.2600   -4.6370  -29.2620 C.3   107  GLU107      0.1163
     91  CD        24.0200   -3.1660  -29.5700 C.2   107  GLU107      0.3649
     92  OE1       22.8490   -2.7230  -29.6430 O.co2 107  GLU107     -0.2457
     93  OE2       25.0320   -2.4470  -29.7490 O.co2 107  GLU107     -0.2457
     94  N         23.3110   -9.9340  -25.0690 N.3   110  LEU110     -0.1245
     95  CA        23.9840   -9.3230  -23.9370 C.3   110  LEU110      0.1561
     96  C         23.0130   -8.5640  -23.0450 C.2   110  LEU110      0.2260
     97  O         23.1570   -8.5690  -21.8190 O.2   110  LEU110     -0.2867
     98  CB        25.1330   -8.4300  -24.4170 C.3   110  LEU110      0.0270
     99  CG        26.2280   -9.1450  -25.2170 C.3   110  LEU110      0.0019
    100  CD1       27.3190   -8.1620  -25.5710 C.3   110  LEU110      0.0001
    101  CD2       26.8070  -10.3460  -24.4650 C.3   110  LEU110      0.0001
@<TRIPOS>BOND
     1    70    71    1
     2    71    74    1
     3    71    72    1
     4    74    75    1
     5    77    75   am
     6    75    76    2
     7    72    73    2
     8    83    82    1
     9    78    79    1
    10    82    79    1
    11    82    84    1
    12     2     3    1
    13     2     5    1
    14     2     1    1
    15    79    80    1
    16     3     4    2
    17     5     6    1
    18    93    91   ar
    19    69    68    1
    20    92    91   ar
    21    91    90    1
    22     1     7    1
    23    85    80   am
    24    85    86    1
    25    90    89    1
    26     8     9    1
    27    80    81    2
    28    89    86    1
    29    66    68   ar
    30    66    64   ar
    31    68    67   ar
    32     6     7    1
    33    86    87    1
    34     9    12    1
    35     9    10    1
    36    12    13    1
    37    64    63   ar
    38    87    88    2
    39    67    65   ar
    40    10    11    2
    41    63    65   ar
    42    63    62    1
    43    50    49    2
    44    33    35   ar
    45    33    31   ar
    46    56    55    1
    47    35    34   ar
    48    53    52    1
    49    53    54    1
    50   100    99    1
    51    49    48    1
    52    49    58   am
    53    62    59    1
    54    30    31   ar
    55    30    28   ar
    56    31    29   ar
    57    51    52    1
    58    51    48    1
    59    99   101    1
    60    99    98    1
    61    59    58    1
    62    59    60    1
    63    94    95    1
    64    20    19    1
    65    55    54    2
    66    55    57    1
    67    48    47    1
    68    34    32   ar
    69    98    95    1
    70    28    27   ar
    71    29    32   ar
    72    29    27   ar
    73    60    61    2
    74    95    96    1
    75    21    19    1
    76    19    18    1
    77    27    26    1
    78    96    97    2
    79    18    15    1
    80    45    44    1
    81    46    44    1
    82    26    23    1
    83    44    43    2
    84    39    38    2
    85    25    24    2
    86    15    14    1
    87    15    16    1
    88    38    37    1
    89    23    24    1
    90    23    22    1
    91    17    16    2
    92    43    42    1
    93    40    37    1
    94    40    41    1
    95    37    36    1
    96    42    41    1
