@<TRIPOS>MOLECULE
tmp/4cxqB02.pdb
 126 123 0 0 0
SMALL
GASTEIGER

@<TRIPOS>ATOM
      1  N         13.4340   29.5740  -36.6050 N.3    18  TYR18      -0.1241
      2  CA        13.7800   30.3000  -37.8290 C.3    18  TYR18       0.1605
      3  C         14.7350   29.4960  -38.6890 C.2    18  TYR18       0.2264
      4  O         15.7170   30.0150  -39.2070 O.2    18  TYR18      -0.2867
      5  CB        14.3900   31.6540  -37.4690 C.3    18  TYR18       0.0534
      6  CG        13.5170   32.4190  -36.5080 C.ar   18  TYR18      -0.0201
      7  CD1       12.1940   32.7000  -36.8290 C.ar   18  TYR18      -0.0009
      8  CD2       14.0090   32.8600  -35.2800 C.ar   18  TYR18      -0.0009
      9  CE1       11.3750   33.3950  -35.9440 C.ar   18  TYR18       0.0417
     10  CE2       13.2030   33.5630  -34.3970 C.ar   18  TYR18       0.0417
     11  CZ        11.8880   33.8220  -34.7400 C.ar   18  TYR18       0.1957
     12  OH        11.0670   34.5170  -33.8850 O.3    18  TYR18      -0.2866
     13  N         18.5280   36.1090  -25.9830 N.3    55  TRP55      -0.1227
     14  CA        17.4450   36.8190  -26.6480 C.3    55  TRP55       0.1737
     15  C         16.7650   37.8380  -25.7170 C.2    55  TRP55       0.2595
     16  O         15.5410   37.9170  -25.6380 O.2    55  TRP55      -0.2718
     17  CB        16.4300   35.8340  -27.2310 C.3    55  TRP55       0.0564
     18  CG        16.6760   35.5350  -28.7050 C.ar   55  TRP55       0.0003
     19  CD1       17.3380   36.3250  -29.6050 C.ar   55  TRP55       0.0946
     20  CD2       16.2440   34.3730  -29.4330 C.ar   55  TRP55       0.0152
     21  NE1       17.3550   35.7180  -30.8480 N.ar   55  TRP55      -0.2442
     22  CE2       16.6840   34.5250  -30.7670 C.ar   55  TRP55       0.0810
     23  CE3       15.5250   33.2210  -29.0830 C.ar   55  TRP55       0.0012
     24  CZ2       16.4260   33.5650  -31.7580 C.ar   55  TRP55       0.0191
     25  CZ3       15.2680   32.2690  -30.0670 C.ar   55  TRP55       0.0001
     26  CH2       15.7230   32.4510  -31.3900 C.ar   55  TRP55       0.0015
     27  N         17.5990   38.6230  -25.0360 N.am   56  TRP56      -0.1976
     28  CA        17.1930   39.8890  -24.4130 C.3    56  TRP56       0.1640
     29  C         16.4070   39.6920  -23.1050 C.2    56  TRP56       0.2290
     30  O         15.6000   40.5430  -22.7160 O.2    56  TRP56      -0.2864
     31  CB        16.3600   40.7420  -25.3980 C.3    56  TRP56       0.0576
     32  CG        16.7550   40.6490  -26.8840 C.ar   56  TRP56       0.0006
     33  CD1       17.9400   40.1880  -27.4130 C.ar   56  TRP56       0.0946
     34  CD2       15.9270   40.9890  -28.0090 C.ar   56  TRP56       0.0152
     35  NE1       17.8930   40.2300  -28.7970 N.ar   56  TRP56      -0.2442
     36  CE2       16.6720   40.7210  -29.1820 C.ar   56  TRP56       0.0810
     37  CE3       14.6310   41.5090  -28.1370 C.ar   56  TRP56       0.0012
     38  CZ2       16.1590   40.9530  -30.4660 C.ar   56  TRP56       0.0191
     39  CZ3       14.1250   41.7450  -29.4150 C.ar   56  TRP56       0.0001
     40  CH2       14.8890   41.4660  -30.5600 C.ar   56  TRP56       0.0015
     41  N          3.9950   36.5790  -27.7500 N.3   116  SER116     -0.1217
     42  CA         3.0980   36.5780  -28.8870 C.3   116  SER116      0.1889
     43  C          1.6740   36.4410  -28.3870 C.2   116  SER116      0.2288
     44  O          0.7600   37.0460  -28.9400 O.2   116  SER116     -0.2866
     45  CB         3.4300   35.4480  -29.8840 C.3   116  SER116      0.2089
     46  OG         4.7410   35.6130  -30.4200 O.3   116  SER116     -0.2183
     47  N          7.9790   44.4690  -35.2800 N.3   148  TYR148     -0.1241
     48  CA         7.8460   43.0350  -35.0120 C.3   148  TYR148      0.1605
     49  C          7.0680   42.8220  -33.7190 C.2   148  TYR148      0.2264
     50  O          7.2680   43.5380  -32.7410 O.2   148  TYR148     -0.2867
     51  CB         9.2240   42.3710  -34.9150 C.3   148  TYR148      0.0534
     52  CG         9.1650   40.9350  -34.4390 C.ar  148  TYR148     -0.0201
     53  CD1        8.9290   39.9010  -35.3350 C.ar  148  TYR148     -0.0009
     54  CD2        9.3310   40.6160  -33.0960 C.ar  148  TYR148     -0.0009
     55  CE1        8.8700   38.5810  -34.9070 C.ar  148  TYR148      0.0417
     56  CE2        9.2740   39.2850  -32.6620 C.ar  148  TYR148      0.0417
     57  CZ         9.0510   38.2840  -33.5750 C.ar  148  TYR148      0.1957
     58  OH         8.9900   36.9600  -33.1600 O.3   148  TYR148     -0.2866
     59  N          5.9000   39.2880  -32.7830 N.3   150  GLY150     -0.1210
     60  CA         5.7620   37.8710  -32.4780 C.3   150  GLY150      0.1956
     61  C          5.3840   37.0280  -33.6870 C.2   150  GLY150      0.2611
     62  O          5.2780   37.5380  -34.7990 O.2   150  GLY150     -0.2717
     63  N          5.1290   35.7440  -33.4480 N.am  151  ASP151     -0.1973
     64  CA         5.0770   34.7580  -34.5280 C.3   151  ASP151      0.1709
     65  C          3.7380   34.0440  -34.7080 C.2   151  ASP151      0.2293
     66  O          3.5740   33.3040  -35.6690 O.2   151  ASP151     -0.2864
     67  CB         6.1740   33.7140  -34.3080 C.3   151  ASP151      0.1436
     68  CG         7.5740   34.3160  -34.3480 C.2   151  ASP151      0.3671
     69  OD1        7.7550   35.4280  -34.9010 O.co2 151  ASP151     -0.2456
     70  OD2        8.5040   33.6750  -33.8250 O.co2 151  ASP151     -0.2456
     71  N         10.4150   39.4030  -41.0500 N.3   165  MET165     -0.1245
     72  CA        10.6590   37.9630  -41.1380 C.3   165  MET165      0.1570
     73  C          9.4340   37.1560  -41.6030 C.2   165  MET165      0.2261
     74  O          9.5780   36.0130  -42.0360 O.2   165  MET165     -0.2867
     75  CB        11.1610   37.4250  -39.7950 C.3   165  MET165      0.0387
     76  CG        10.1440   37.5080  -38.6770 C.3   165  MET165      0.0595
     77  SD        10.6180   36.4880  -37.2610 S.3   165  MET165     -0.1393
     78  CE        12.2170   37.1640  -36.8250 C.3   165  MET165      0.0692
     79  N         13.3000   43.2470  -33.4510 N.3   217  ALA217     -0.1245
     80  CA        13.5490   42.1830  -34.4200 C.3   217  ALA217      0.1562
     81  C         13.3700   42.6340  -35.8720 C.2   217  ALA217      0.2260
     82  O         13.8120   41.9540  -36.7980 O.2   217  ALA217     -0.2867
     83  CB        12.6450   40.9800  -34.1200 C.3   217  ALA217      0.0290
     84  N          9.6480   38.7830  -22.0460 N.3   274  LYS274     -0.1245
     85  CA        11.1080   38.5840  -22.0970 C.3   274  LYS274      0.1561
     86  C         11.7930   38.8220  -20.7390 C.2   274  LYS274      0.2260
     87  O         11.8480   37.9120  -19.9030 O.2   274  LYS274     -0.2867
     88  CB        11.7330   39.4560  -23.2040 C.3   274  LYS274      0.0271
     89  CG        11.4360   38.9420  -24.6490 C.3   274  LYS274      0.0035
     90  CD        12.4370   39.4910  -25.6910 C.3   274  LYS274      0.0206
     91  CE        12.2440   38.8760  -27.0840 C.3   274  LYS274      0.1093
     92  NZ        11.2440   39.6300  -27.9150 N.3   274  LYS274     -0.1314
     93  N         24.8140   36.5670  -31.7950 N.3   391  ARG391     -0.1245
     94  CA        23.9810   36.0900  -32.8880 C.3   391  ARG391      0.1563
     95  C         23.4810   37.2630  -33.7050 C.2   391  ARG391      0.2260
     96  O         22.4590   37.8730  -33.3860 O.2   391  ARG391     -0.2867
     97  CB        22.7980   35.2520  -32.3780 C.3   391  ARG391      0.0307
     98  CG        21.9230   34.6750  -33.5070 C.3   391  ARG391      0.0489
     99  CD        20.7520   33.8740  -32.9540 C.3   391  ARG391      0.2205
    100  NE        19.6600   33.6550  -33.9060 N.pl3 391  ARG391     -0.0865
    101  CZ        19.5220   32.5680  -34.6640 C.cat 391  ARG391      0.5346
    102  NH1       20.4220   31.5980  -34.6030 N.pl3 391  ARG391      0.1354
    103  NH2       18.4750   32.4460  -35.4740 N.pl3 391  ARG391      0.1354
    104  N         21.7150   39.0930  -36.9640 N.3   393  PHE393     -0.1241
    105  CA        20.6310   38.7250  -37.8610 C.3   393  PHE393      0.1605
    106  C         20.5100   39.8080  -38.9240 C.2   393  PHE393      0.2264
    107  O         20.9400   40.9450  -38.7040 O.2   393  PHE393     -0.2867
    108  CB        19.3170   38.5060  -37.0900 C.3   393  PHE393      0.0534
    109  CG        18.6700   39.7680  -36.6040 C.ar  393  PHE393     -0.0203
    110  CD1       19.2180   40.4920  -35.5600 C.ar  393  PHE393     -0.0042
    111  CD2       17.5050   40.2300  -37.1900 C.ar  393  PHE393     -0.0042
    112  CE1       18.6130   41.6620  -35.1070 C.ar  393  PHE393     -0.0003
    113  CE2       16.9000   41.3930  -36.7500 C.ar  393  PHE393     -0.0003
    114  CZ        17.4520   42.1110  -35.7080 C.ar  393  PHE393     -0.0000
    115  N         24.8270   43.0490  -33.2580 N.3   398  TYR398     -0.1241
    116  CA        24.3200   43.8150  -32.1330 C.3   398  TYR398      0.1605
    117  C         24.4550   43.0780  -30.8010 C.2   398  TYR398      0.2264
    118  O         24.6700   41.8680  -30.7580 O.2   398  TYR398     -0.2867
    119  CB        22.8490   44.1980  -32.3790 C.3   398  TYR398      0.0534
    120  CG        21.8940   43.0710  -32.0990 C.ar  398  TYR398     -0.0201
    121  CD1       21.8100   41.9750  -32.9540 C.ar  398  TYR398     -0.0009
    122  CD2       21.0910   43.0870  -30.9630 C.ar  398  TYR398     -0.0009
    123  CE1       20.9460   40.9240  -32.6850 C.ar  398  TYR398      0.0417
    124  CE2       20.2270   42.0480  -30.6880 C.ar  398  TYR398      0.0417
    125  CZ        20.1470   40.9770  -31.5570 C.ar  398  TYR398      0.1957
    126  OH        19.3010   39.9300  -31.2850 O.3   398  TYR398     -0.2866
@<TRIPOS>BOND
     1    74    73    2
     2    73    72    1
     3    72    71    1
     4    72    75    1
     5    75    76    1
     6     4     3    2
     7   106   107    2
     8   106   105    1
     9     3     2    1
    10    76    77    1
    11   105   108    1
    12   105   104    1
    13     2     5    1
    14     2     1    1
    15     5     6    1
    16    77    78    1
    17   111   113   ar
    18   111   109   ar
    19   108   109    1
    20     7     6   ar
    21     7     9   ar
    22    82    81    2
    23   113   114   ar
    24   109   110   ar
    25     6     8   ar
    26     9    11   ar
    27    81    80    1
    28   114   112   ar
    29    66    65    2
    30   110   112   ar
    31   103   101    1
    32    53    55   ar
    33    53    52   ar
    34    47    48    1
    35     8    10   ar
    36    48    51    1
    37    48    49    1
    38    51    52    1
    39    55    57   ar
    40    69    68   ar
    41    62    61    2
    42    11    10   ar
    43    11    12    1
    44    65    64    1
    45   101   102    1
    46   101   100    2
    47    64    67    1
    48    64    63    1
    49    52    54   ar
    50    80    83    1
    51    80    79    1
    52    68    67    1
    53    68    70   ar
    54   100    99    1
    55    49    50    2
    56    95    96    2
    57    95    94    1
    58    61    63   am
    59    61    60    1
    60    57    58    1
    61    57    56   ar
    62    98    99    1
    63    98    97    1
    64   115   116    1
    65    54    56   ar
    66   121   123   ar
    67   121   120   ar
    68    94    97    1
    69    94    93    1
    70    59    60    1
    71   123   125   ar
    72   119   116    1
    73   119   120    1
    74   116   117    1
    75   120   122   ar
    76    24    26   ar
    77    24    22   ar
    78   125   126    1
    79   125   124   ar
    80    26    25   ar
    81   122   124   ar
    82    21    22   ar
    83    21    19   ar
    84   117   118    2
    85    22    20   ar
    86    40    38   ar
    87    40    39   ar
    88    38    36   ar
    89    46    45    1
    90    25    23   ar
    91    45    42    1
    92    19    18   ar
    93    20    23   ar
    94    20    18   ar
    95    39    37   ar
    96    36    35   ar
    97    36    34   ar
    98    44    43    2
    99    42    43    1
   100    42    41    1
   101    35    33   ar
   102    18    17    1
   103    37    34   ar
   104    34    32   ar
   105    92    91    1
   106    33    32   ar
   107    17    14    1
   108    91    90    1
   109    32    31    1
   110    14    13    1
   111    14    15    1
   112    15    16    2
   113    15    27   am
   114    90    89    1
   115    31    28    1
   116    27    28    1
   117    89    88    1
   118    28    29    1
   119    88    85    1
   120    29    30    2
   121    85    84    1
   122    85    86    1
   123    86    87    2
