@<TRIPOS>MOLECULE
tmp/4cxrA01.pdb
 115 113 0 0 0
SMALL
GASTEIGER

@<TRIPOS>ATOM
      1  N         11.8010    1.9830   18.2180 N.3    18  TYR18      -0.1241
      2  CA        13.1770    1.8980   18.7050 C.3    18  TYR18       0.1605
      3  C         14.1350    2.6800   17.8110 C.2    18  TYR18       0.2264
      4  O         15.2390    2.2250   17.4970 O.2    18  TYR18      -0.2867
      5  CB        13.5960    0.4230   18.8070 C.3    18  TYR18       0.0534
      6  CG        12.5890   -0.3830   19.6040 C.ar   18  TYR18      -0.0201
      7  CD1       12.3130   -0.0510   20.9220 C.ar   18  TYR18      -0.0009
      8  CD2       11.9020   -1.4570   19.0360 C.ar   18  TYR18      -0.0009
      9  CE1       11.3920   -0.7550   21.6660 C.ar   18  TYR18       0.0417
     10  CE2       10.9620   -2.1710   19.7750 C.ar   18  TYR18       0.0417
     11  CZ        10.7170   -1.8130   21.0860 C.ar   18  TYR18       0.1957
     12  OH         9.8050   -2.4850   21.8510 O.3    18  TYR18      -0.2866
     13  N          6.9360  -10.0180   13.6390 N.3    54  TRP54      -0.1227
     14  CA         7.2330   -9.8780   15.0530 C.3    54  TRP54       0.1737
     15  C          6.4100  -10.8830   15.8430 C.2    54  TRP54       0.2595
     16  O          5.7970  -10.5570   16.8570 O.2    54  TRP54      -0.2718
     17  CB         6.9850   -8.4420   15.5270 C.3    54  TRP54       0.0564
     18  CG         8.2580   -7.6290   15.6210 C.ar   54  TRP54       0.0003
     19  CD1        9.5360   -8.0970   15.5800 C.ar   54  TRP54       0.0946
     20  CD2        8.3550   -6.2030   15.7730 C.ar   54  TRP54       0.0152
     21  NE1       10.4290   -7.0530   15.7010 N.ar   54  TRP54      -0.2442
     22  CE2        9.7270   -5.8800   15.8180 C.ar   54  TRP54       0.0810
     23  CE3        7.4130   -5.1730   15.8770 C.ar   54  TRP54       0.0012
     24  CZ2       10.1810   -4.5680   15.9660 C.ar   54  TRP54       0.0191
     25  CZ3        7.8630   -3.8680   16.0280 C.ar   54  TRP54       0.0001
     26  CH2        9.2390   -3.5780   16.0680 C.ar   54  TRP54       0.0015
     27  N          6.3960  -12.1100   15.3300 N.am   55  TRP55      -0.1976
     28  CA         6.0290  -13.3000   16.0870 C.3    55  TRP55       0.1640
     29  C          4.5170  -13.4230   16.2480 C.2    55  TRP55       0.2290
     30  O          4.0400  -14.1410   17.1150 O.2    55  TRP55      -0.2864
     31  CB         6.7200  -13.3100   17.4740 C.3    55  TRP55       0.0576
     32  CG         8.1620  -12.8040   17.4990 C.ar   55  TRP55       0.0006
     33  CD1        9.0030  -12.6190   16.4260 C.ar   55  TRP55       0.0946
     34  CD2        8.9060  -12.3890   18.6570 C.ar   55  TRP55       0.0152
     35  NE1       10.2100  -12.1170   16.8500 N.ar   55  TRP55      -0.2442
     36  CE2       10.1820  -11.9780   18.2140 C.ar   55  TRP55       0.0810
     37  CE3        8.6210  -12.3460   20.0290 C.ar   55  TRP55       0.0012
     38  CZ2       11.1750  -11.5250   19.0960 C.ar   55  TRP55       0.0191
     39  CZ3        9.6000  -11.8860   20.9020 C.ar   55  TRP55       0.0001
     40  CH2       10.8630  -11.4820   20.4280 C.ar   55  TRP55       0.0015
     41  N          2.2190   -4.9380   26.6620 N.3   115  SER115     -0.1217
     42  CA         2.7740   -4.1360   27.7380 C.3   115  SER115      0.1889
     43  C          1.6800   -3.8350   28.7680 C.2   115  SER115      0.2288
     44  O          1.9240   -3.9090   29.9670 O.2   115  SER115     -0.2866
     45  CB         3.3930   -2.8410   27.1900 C.3   115  SER115      0.2089
     46  OG         4.5000   -3.1300   26.3440 O.3   115  SER115     -0.2183
     47  N         12.6000   -9.3960   29.1220 N.3   147  TYR147     -0.1241
     48  CA        11.9200   -8.2970   28.4560 C.3   147  TYR147      0.1605
     49  C         10.4320   -8.4540   28.6740 C.2   147  TYR147      0.2264
     50  O          9.8950   -9.5420   28.4930 O.2   147  TYR147     -0.2867
     51  CB        12.2380   -8.2640   26.9610 C.3   147  TYR147      0.0534
     52  CG        11.4160   -7.2150   26.2310 C.ar  147  TYR147     -0.0201
     53  CD1       11.7550   -5.8750   26.3070 C.ar  147  TYR147     -0.0009
     54  CD2       10.2900   -7.5720   25.5000 C.ar  147  TYR147     -0.0009
     55  CE1       10.9980   -4.9120   25.6590 C.ar  147  TYR147      0.0417
     56  CE2        9.5250   -6.6200   24.8460 C.ar  147  TYR147      0.0417
     57  CZ         9.8920   -5.2880   24.9300 C.ar  147  TYR147      0.1957
     58  OH         9.1290   -4.3320   24.2920 O.3   147  TYR147     -0.2866
     59  N          8.0730   -5.5610   27.8530 N.3   149  GLY149     -0.1210
     60  CA         7.3300   -4.4580   27.2650 C.3   149  GLY149      0.1956
     61  C          7.9360   -3.0980   27.5560 C.2   149  GLY149      0.2611
     62  O          9.0030   -2.9960   28.1510 O.2   149  GLY149     -0.2717
     63  N          7.2320   -2.0470   27.1430 N.am  150  ASP150     -0.1973
     64  CA         7.8270   -0.7180   27.1080 C.3   150  ASP150      0.1709
     65  C          7.1320    0.3180   27.9890 C.2   150  ASP150      0.2293
     66  O          7.5790    1.4510   28.0640 O.2   150  ASP150     -0.2864
     67  CB         7.8550   -0.1930   25.6720 C.3   150  ASP150      0.1436
     68  CG         8.6440   -1.0790   24.7390 C.2   150  ASP150      0.3671
     69  OD1        9.5370   -1.8150   25.2150 O.co2 150  ASP150     -0.2456
     70  OD2        8.3650   -1.0380   23.5260 O.co2 150  ASP150     -0.2456
     71  N         17.0680   -3.0970   26.7000 N.3   164  MET164     -0.1245
     72  CA        16.8660   -1.9130   25.8850 C.3   164  MET164      0.1570
     73  C         16.4940   -0.6990   26.7410 C.2   164  MET164      0.2261
     74  O         16.6740    0.4460   26.3220 O.2   164  MET164     -0.2867
     75  CB        15.7970   -2.1770   24.8280 C.3   164  MET164      0.0387
     76  CG        14.4250   -2.3870   25.3840 C.3   164  MET164      0.0595
     77  SD        13.1770   -2.2920   24.0910 S.3   164  MET164     -0.1393
     78  CE        13.7110   -3.5630   22.9500 C.3   164  MET164      0.0692
     79  N         12.9760  -10.9260   23.4570 N.3   216  ALA216     -0.1245
     80  CA        13.5940   -9.6850   22.9990 C.3   216  ALA216      0.1562
     81  C         14.8770   -9.3640   23.7590 C.2   216  ALA216      0.2260
     82  O         15.6740   -8.5190   23.3360 O.2   216  ALA216     -0.2867
     83  CB        12.6040   -8.5270   23.1110 C.3   216  ALA216      0.0290
     84  N          0.5270  -11.1390   21.3640 N.3   273  LYS273     -0.1245
     85  CA         1.1690  -11.3680   20.0750 C.3   273  LYS273      0.1561
     86  C          0.3840  -12.3670   19.2120 C.2   273  LYS273      0.2260
     87  O         -0.5170  -11.9640   18.4810 O.2   273  LYS273     -0.2867
     88  CB         2.6280  -11.8010   20.2750 C.3   273  LYS273      0.0271
     89  CG         3.5660  -10.6360   20.7070 C.3   273  LYS273      0.0035
     90  CD         5.0180  -10.9290   20.3650 C.3   273  LYS273      0.0206
     91  CE         5.9390   -9.7210   20.6060 C.3   273  LYS273      0.1093
     92  NZ         6.3900   -9.6360   22.0260 N.3   273  LYS273     -0.1314
     93  N         18.5510   -8.5760   15.4190 N.3   392  PHE392     -0.1241
     94  CA        18.7760   -7.5610   16.4460 C.3   392  PHE392      0.1605
     95  C         19.9360   -8.0100   17.3220 C.2   392  PHE392      0.2264
     96  O         20.2560   -9.1900   17.3610 O.2   392  PHE392     -0.2867
     97  CB        17.5110   -7.2860   17.2650 C.3   392  PHE392      0.0534
     98  CG        17.1250   -8.3790   18.2080 C.ar  392  PHE392     -0.0203
     99  CD1       16.6540   -9.5900   17.7370 C.ar  392  PHE392     -0.0042
    100  CD2       17.2070   -8.1830   19.5760 C.ar  392  PHE392     -0.0042
    101  CE1       16.2740  -10.5960   18.6200 C.ar  392  PHE392     -0.0003
    102  CE2       16.8320   -9.1730   20.4620 C.ar  392  PHE392     -0.0003
    103  CZ        16.3680  -10.3870   19.9850 C.ar  392  PHE392     -0.0000
    104  N         17.8230  -14.5500   13.5200 N.3   397  TYR397     -0.1241
    105  CA        16.8560  -15.5170   14.0220 C.3   397  TYR397      0.1605
    106  C         15.5810  -15.5140   13.1800 C.2   397  TYR397      0.2264
    107  O         15.3180  -14.5840   12.4170 O.2   397  TYR397     -0.2867
    108  CB        16.5320  -15.2370   15.5010 C.3   397  TYR397      0.0534
    109  CG        15.5640  -14.0870   15.7040 C.ar  397  TYR397     -0.0201
    110  CD1       15.9880  -12.7680   15.5820 C.ar  397  TYR397     -0.0009
    111  CD2       14.2300  -14.3250   15.9910 C.ar  397  TYR397     -0.0009
    112  CE1       15.0990  -11.7120   15.7460 C.ar  397  TYR397      0.0417
    113  CE2       13.3300  -13.2770   16.1620 C.ar  397  TYR397      0.0417
    114  CZ        13.7770  -11.9740   16.0460 C.ar  397  TYR397      0.1957
    115  OH        12.8920  -10.9300   16.2020 O.3   397  TYR397     -0.2866
@<TRIPOS>BOND
     1   107   106    2
     2   106   105    1
     3   104   105    1
     4    13    14    1
     5   105   108    1
     6    14    17    1
     7    14    15    1
     8    27    15   am
     9    27    28    1
    10    93    94    1
    11   108   109    1
    12    17    18    1
    13    19    18   ar
    14    19    21   ar
    15   110   109   ar
    16   110   112   ar
    17    18    20   ar
    18    21    22   ar
    19   109   111   ar
    20   112   114   ar
    21    20    22   ar
    22    20    23   ar
    23    22    24   ar
    24    15    16    2
    25    23    25   ar
    26    24    26   ar
    27   111   113   ar
    28    25    26   ar
    29   114   113   ar
    30   114   115    1
    31    28    29    1
    32    28    31    1
    33    29    30    2
    34    33    35   ar
    35    33    32   ar
    36    94    97    1
    37    94    95    1
    38    35    36   ar
    39    97    98    1
    40    95    96    2
    41    31    32    1
    42     4     3    2
    43    32    34   ar
    44    99    98   ar
    45    99   101   ar
    46     3     2    1
    47    98   100   ar
    48    36    34   ar
    49    36    38   ar
    50     1     2    1
    51    87    86    2
    52   101   103   ar
    53    34    37   ar
    54     2     5    1
    55     5     6    1
    56     8     6   ar
    57     8    10   ar
    58    38    40   ar
    59    86    85    1
    60   100   102   ar
    61     6     7   ar
    62    10    11   ar
    63   103   102   ar
    64    37    39   ar
    65    85    88    1
    66    85    84    1
    67    88    89    1
    68    90    91    1
    69    90    89    1
    70    40    39   ar
    71    91    92    1
    72     7     9   ar
    73    11     9   ar
    74    11    12    1
    75    78    77    1
    76    80    83    1
    77    80    79    1
    78    80    81    1
    79    82    81    2
    80    70    68   ar
    81    77    76    1
    82    58    57    1
    83    68    69   ar
    84    68    67    1
    85    75    76    1
    86    75    72    1
    87    56    57   ar
    88    56    54   ar
    89    57    55   ar
    90    54    52   ar
    91    55    53   ar
    92    67    64    1
    93    72    71    1
    94    72    73    1
    95    52    53   ar
    96    52    51    1
    97    74    73    2
    98    46    45    1
    99    41    42    1
   100    51    48    1
   101    64    63    1
   102    64    65    1
   103    63    61   am
   104    45    42    1
   105    60    61    1
   106    60    59    1
   107    61    62    2
   108    42    43    1
   109    65    66    2
   110    48    49    1
   111    48    47    1
   112    50    49    2
   113    43    44    2
