@<TRIPOS>MOLECULE
tmp/4cxtA00.pdb
 107 102 0 0 0
SMALL
GASTEIGER

@<TRIPOS>ATOM
      1  N         -6.8280   -3.6430   -8.5970 N.3    37  TYR37      -0.1227
      2  CA        -6.3590   -2.8490   -7.4590 C.3    37  TYR37       0.1736
      3  C         -7.3710   -1.7580   -7.1220 C.2    37  TYR37       0.2595
      4  O         -7.7450   -0.9930   -8.0090 O.2    37  TYR37      -0.2718
      5  CB        -5.0000   -2.2140   -7.7890 C.3    37  TYR37       0.0548
      6  CG        -4.3040   -1.5890   -6.6010 C.ar   37  TYR37      -0.0200
      7  CD1       -3.5600   -2.3650   -5.7180 C.ar   37  TYR37      -0.0009
      8  CD2       -4.3620   -0.2180   -6.3770 C.ar   37  TYR37      -0.0009
      9  CE1       -2.8990   -1.7940   -4.6330 C.ar   37  TYR37       0.0417
     10  CE2       -3.7140    0.3650   -5.2890 C.ar   37  TYR37       0.0417
     11  CZ        -2.9740   -0.4270   -4.4240 C.ar   37  TYR37       0.1957
     12  OH        -2.3190    0.1300   -3.3510 O.3    37  TYR37      -0.2866
     13  N         -7.8200   -1.7030   -5.8410 N.am   38  GLN38      -0.1979
     14  CA        -8.6670   -0.6490   -5.2600 C.3    38  GLN38       0.1601
     15  C         -9.7500   -0.1300   -6.2340 C.2    38  GLN38       0.2287
     16  O        -10.5240   -0.9370   -6.7560 O.2    38  GLN38      -0.2864
     17  CB        -7.7990    0.4900   -4.6960 C.3    38  GLN38       0.0394
     18  CG        -7.1000    0.1190   -3.3880 C.3    38  GLN38       0.0908
     19  CD        -6.3030    1.2530   -2.7840 C.2    38  GLN38       0.2608
     20  OE1       -5.1490    1.0760   -2.3750 O.2    38  GLN38      -0.2717
     21  NE2       -6.9080    2.4340   -2.6720 N.am   38  GLN38      -0.0878
     22  N         -9.0280    1.3980   -9.1580 N.3    40  ALA40      -0.1245
     23  CA        -8.4460    1.3120  -10.5030 C.3    40  ALA40       0.1562
     24  C         -9.2130    0.3520  -11.3970 C.2    40  ALA40       0.2260
     25  O         -9.6300   -0.7080  -10.9210 O.2    40  ALA40      -0.2867
     26  CB        -6.9880    0.8930  -10.4330 C.3    40  ALA40       0.0290
     27  N         -1.0190   -2.2580   -8.3070 N.3    81  HIS81      -0.1241
     28  CA        -1.6980   -1.4610   -9.3200 C.3    81  HIS81       0.1621
     29  C         -1.3520   -2.0280  -10.7080 C.2    81  HIS81       0.2264
     30  O         -0.2080   -2.4570  -10.8930 O.2    81  HIS81      -0.2867
     31  CB        -1.3050    0.0220   -9.1980 C.3    81  HIS81       0.0745
     32  CG        -2.1230    0.9340  -10.0590 C.ar   81  HIS81       0.0817
     33  ND1       -3.3110    1.4760   -9.6100 N.ar   81  HIS81      -0.2268
     34  CD2       -1.9100    1.3440  -11.3300 C.ar   81  HIS81       0.1154
     35  CE1       -3.7690    2.2130  -10.6090 C.ar   81  HIS81       0.1986
     36  NE2       -2.9660    2.1540  -11.6670 N.ar   81  HIS81      -0.2212
     37  N         -0.4920   -0.6580  -13.4670 N.3    83  LYS83      -0.1231
     38  CA         0.6900    0.0200  -14.0090 C.3    83  LYS83       0.1693
     39  C          1.9970   -0.5610  -13.4530 C.2    83  LYS83       0.2591
     40  O          2.9690   -0.6780  -14.1970 O.2    83  LYS83      -0.2718
     41  CB         0.6060    1.5410  -13.8120 C.3    83  LYS83       0.0285
     42  CG        -0.5720    2.1610  -14.5110 C.3    83  LYS83       0.0035
     43  CD        -0.5260    1.8710  -15.9940 C.3    83  LYS83       0.0206
     44  CE        -1.7650    2.3810  -16.6710 C.3    83  LYS83       0.1093
     45  NZ        -1.4450    2.6180  -18.0770 N.3    83  LYS83      -0.1314
     46  N          2.0040   -0.9650  -12.1700 N.am   84  VAL84      -0.1980
     47  CA         3.1520   -1.6380  -11.5410 C.3    84  VAL84       0.1595
     48  C          3.3540   -3.0310  -12.1430 C.2    84  VAL84       0.2287
     49  O          4.4630   -3.3420  -12.5880 O.2    84  VAL84      -0.2864
     50  CB         3.1220   -1.6530   -9.9850 C.3    84  VAL84       0.0276
     51  CG1        4.3630   -2.3440   -9.4260 C.3    84  VAL84       0.0022
     52  CG2        3.0200   -0.2370   -9.4240 C.3    84  VAL84       0.0022
     53  N          4.9380   -2.8350  -15.6110 N.3    87  ARG87      -0.1245
     54  CA         6.3780   -2.5860  -15.5990 C.3    87  ARG87       0.1563
     55  C          7.2180   -3.8120  -15.2540 C.2    87  ARG87       0.2260
     56  O          8.2930   -3.9840  -15.8270 O.2    87  ARG87      -0.2867
     57  CB         6.7160   -1.4130  -14.6890 C.3    87  ARG87       0.0307
     58  CG         6.7650   -0.1100  -15.4560 C.3    87  ARG87       0.0489
     59  CD         5.8070    0.9160  -14.9050 C.3    87  ARG87       0.2205
     60  NE         5.8090    2.1320  -15.7150 N.pl3  87  ARG87      -0.0865
     61  CZ         4.7530    2.6040  -16.3690 C.cat  87  ARG87       0.5346
     62  NH1        3.5830    1.9790  -16.2970 N.pl3  87  ARG87       0.1354
     63  NH2        4.8520    3.7160  -17.0830 N.pl3  87  ARG87       0.1354
     64  N         10.1860    4.0870  -14.5270 N.3    99  MET99      -0.1230
     65  CA         9.1880    4.7180  -13.6570 C.3    99  MET99       0.1702
     66  C          9.5980    6.1630  -13.3430 C.2    99  MET99       0.2592
     67  O         10.7910    6.4850  -13.3730 O.2    99  MET99      -0.2718
     68  CB         8.9660    3.8920  -12.3550 C.3    99  MET99       0.0401
     69  CG        10.1400    3.9310  -11.3720 C.3    99  MET99       0.0596
     70  SD        10.8340    2.3330  -10.8620 S.3    99  MET99      -0.1393
     71  CE        11.7390    1.8760  -12.3140 C.3    99  MET99       0.0692
     72  N          8.6110    7.0140  -13.0650 N.am  100  GLY100     -0.1957
     73  CA         8.8460    8.3340  -12.4880 C.3   100  GLY100      0.1869
     74  C          9.3130    8.1950  -11.0550 C.2   100  GLY100      0.2309
     75  O          8.9110    7.2470  -10.3690 O.2   100  GLY100     -0.2863
     76  N          8.5990    9.4510   -8.2260 N.3   102  LYS102     -0.1231
     77  CA         7.6090    9.4210   -7.1450 C.3   102  LYS102      0.1693
     78  C          7.0110    8.0190   -6.9180 C.2   102  LYS102      0.2592
     79  O          6.3920    7.7820   -5.8770 O.2   102  LYS102     -0.2718
     80  CB         6.5080   10.4970   -7.3230 C.3   102  LYS102      0.0285
     81  CG         5.6300   10.3550   -8.5610 C.3   102  LYS102      0.0035
     82  CD         4.2410   10.9680   -8.3600 C.3   102  LYS102      0.0206
     83  CE         3.4140   10.9130   -9.6270 C.3   102  LYS102      0.1093
     84  NZ         1.9590   11.0680   -9.3580 N.3   102  LYS102     -0.1314
     85  N          7.2240    7.0870   -7.8660 N.am  103  CYS103     -0.1970
     86  CA         6.6290    5.7530   -7.7900 C.3   103  CYS103      0.1712
     87  C          7.6480    4.6170   -7.7590 C.2   103  CYS103      0.2296
     88  O          7.2700    3.4620   -7.9380 O.2   103  CYS103     -0.2864
     89  CB         5.6080    5.5620   -8.9010 C.3   103  CYS103      0.0983
     90  SG         4.2210    6.7200   -8.7280 S.3   103  CYS103     -0.0798
     91  N          6.5650    2.1870   -5.0300 N.3   106  HIS106     -0.1226
     92  CA         5.4320    1.3170   -5.3480 C.3   106  HIS106      0.1752
     93  C          5.8350    0.1630   -6.2810 C.2   106  HIS106      0.2595
     94  O          5.2890   -0.9440   -6.1800 O.2   106  HIS106     -0.2718
     95  CB         4.2800    2.1550   -5.9280 C.3   106  HIS106      0.0759
     96  CG         3.9420    3.3420   -5.0770 C.ar  106  HIS106      0.0818
     97  ND1        3.3390    3.1940   -3.8370 N.ar  106  HIS106     -0.2268
     98  CD2        4.2010    4.6540   -5.2820 C.ar  106  HIS106      0.1154
     99  CE1        3.2250    4.4170   -3.3450 C.ar  106  HIS106      0.1986
    100  NE2        3.7210    5.3290   -4.1830 N.ar  106  HIS106     -0.2212
    101  N          6.7890    0.4410   -7.1870 N.am  107  VAL107     -0.1980
    102  CA         7.4560   -0.5400   -8.0330 C.3   107  VAL107      0.1595
    103  C          8.2780   -1.4920   -7.1560 C.2   107  VAL107      0.2287
    104  O          8.2270   -2.7100   -7.3680 O.2   107  VAL107     -0.2864
    105  CB         8.2920    0.1300   -9.1640 C.3   107  VAL107      0.0276
    106  CG1        9.1380   -0.8910   -9.9340 C.3   107  VAL107      0.0022
    107  CG2        7.3890    0.9020  -10.1250 C.3   107  VAL107      0.0022
@<TRIPOS>BOND
     1    45    44    1
     2    63    61    1
     3    44    43    1
     4    61    62    1
     5    61    60    2
     6    43    42    1
     7    56    55    2
     8    60    59    1
     9    53    54    1
    10    54    55    1
    11    54    57    1
    12    58    59    1
    13    58    57    1
    14    64    65    1
    15    42    41    1
    16    40    39    2
    17    38    41    1
    18    38    37    1
    19    38    39    1
    20    65    66    1
    21    65    68    1
    22    39    46   am
    23    67    66    2
    24    66    72   am
    25    72    73    1
    26    49    48    2
    27    73    74    1
    28    68    69    1
    29    71    70    1
    30    46    47    1
    31    48    47    1
    32    36    34   ar
    33    36    35   ar
    34    47    50    1
    35    24    25    2
    36    24    23    1
    37    69    70    1
    38    34    32   ar
    39    74    75    2
    40    30    29    2
    41    29    28    1
    42    35    33   ar
    43    23    26    1
    44    23    22    1
    45   107   105    1
    46    32    33   ar
    47    32    31    1
    48    50    51    1
    49    50    52    1
    50   106   105    1
    51    83    84    1
    52    83    82    1
    53    28    31    1
    54    28    27    1
    55   105   102    1
    56    89    90    1
    57    89    86    1
    58     1     2    1
    59    81    82    1
    60    81    80    1
    61    76    77    1
    62   102   101    1
    63   102   103    1
    64     4     3    2
    65    88    87    2
    66    85    86    1
    67    85    78   am
    68    86    87    1
    69     5     2    1
    70     5     6    1
    71     2     3    1
    72   104   103    2
    73    80    77    1
    74   101    93   am
    75    77    78    1
    76     3    13   am
    77    78    79    2
    78    16    15    2
    79     6     8   ar
    80     6     7   ar
    81     8    10   ar
    82    93    94    2
    83    93    92    1
    84    15    14    1
    85    95    92    1
    86    95    96    1
    87    13    14    1
    88     7     9   ar
    89    92    91    1
    90    10    11   ar
    91    98    96   ar
    92    98   100   ar
    93    14    17    1
    94    96    97   ar
    95    17    18    1
    96     9    11   ar
    97    11    12    1
    98   100    99   ar
    99    97    99   ar
   100    18    19    1
   101    19    21   am
   102    19    20    2
