@<TRIPOS>MOLECULE
tmp/4cxuB00.pdb
 189 177 0 0 0
SMALL
GASTEIGER

@<TRIPOS>ATOM
      1  N        -70.8790  -12.1580   18.2700 N.3    11  ASP11      -0.1225
      2  CA       -72.2940  -12.2980   18.0030 C.3    11  ASP11       0.1805
      3  C        -72.4940  -13.2760   16.8170 C.2    11  ASP11       0.2597
      4  O        -72.2510  -12.9220   15.7080 O.2    11  ASP11      -0.2718
      5  CB       -72.8240  -10.8840   17.7380 C.3    11  ASP11       0.1424
      6  CG       -74.3420  -10.8000   17.6390 C.2    11  ASP11       0.3668
      7  OD1      -74.9970  -11.8520   17.7520 O.co2  11  ASP11      -0.2456
      8  OD2      -74.8970   -9.6400   17.3950 O.co2  11  ASP11      -0.2456
      9  N        -72.9060  -14.5100   17.0970 N.am   12  ASP12      -0.1974
     10  CA       -73.1410  -15.5360   16.0700 C.3    12  ASP12       0.1709
     11  C        -71.8410  -16.1350   15.4910 C.2    12  ASP12       0.2293
     12  O        -71.8670  -16.7620   14.4490 O.2    12  ASP12      -0.2864
     13  CB       -74.0610  -15.0020   14.9300 C.3    12  ASP12       0.1436
     14  CG       -75.5070  -14.6710   15.4020 C.2    12  ASP12       0.3671
     15  OD1      -75.8290  -14.8300   16.5800 O.co2  12  ASP12      -0.2456
     16  OD2      -76.3480  -14.3220   14.5670 O.co2  12  ASP12      -0.2456
     17  N        -80.0570  -18.4170   21.5220 N.3    48  ALA48      -0.1245
     18  CA       -80.0930  -17.1330   20.8740 C.3    48  ALA48       0.1562
     19  C        -79.6020  -15.9470   21.7670 C.2    48  ALA48       0.2260
     20  O        -79.3570  -16.1200   22.9730 O.2    48  ALA48      -0.2867
     21  CB       -81.5040  -16.8800   20.3450 C.3    48  ALA48       0.0290
     22  N        -80.3410  -12.3870   22.9290 N.3    49  SER49      -0.1217
     23  CA       -80.8220  -11.7380   24.1590 C.3    49  SER49       0.1889
     24  C        -80.9550  -12.6530   25.3620 C.2    49  SER49       0.2288
     25  O        -80.5250  -12.2880   26.4440 O.2    49  SER49      -0.2866
     26  CB       -82.0670  -10.8480   23.9590 C.3    49  SER49       0.2089
     27  OG       -83.0340  -11.5160   23.1770 O.3    49  SER49      -0.2183
     28  N        -87.4660  -13.7560   22.9890 N.3    69  MET69      -0.1245
     29  CA       -86.9770  -12.5000   22.4130 C.3    69  MET69       0.1570
     30  C        -88.0940  -11.4230   22.3960 C.2    69  MET69       0.2261
     31  O        -89.2700  -11.7510   22.1010 O.2    69  MET69      -0.2867
     32  CB       -86.4420  -12.7540   20.9930 C.3    69  MET69       0.0387
     33  CG       -85.1700  -13.6090   20.9620 C.3    69  MET69       0.0595
     34  SD       -83.9510  -13.0410   19.7590 S.3    69  MET69      -0.1393
     35  CE       -82.4750  -13.0040   20.7430 C.3    69  MET69       0.0692
     36  N        -88.7920   -9.2610   20.3510 N.3    71  GLU71      -0.1245
     37  CA       -89.2670   -9.1680   18.9850 C.3    71  GLU71       0.1567
     38  C        -90.2950  -10.2680   18.6170 C.2    71  GLU71       0.2260
     39  O        -90.9170  -10.2180   17.5440 O.2    71  GLU71      -0.2867
     40  CB       -88.0240   -9.2130   18.0560 C.3    71  GLU71       0.0388
     41  CG       -86.9880   -8.0950   18.3250 C.3    71  GLU71       0.1160
     42  CD       -85.8350   -8.4420   19.3130 C.2    71  GLU71       0.3649
     43  OE1      -85.9080   -9.3970   20.1200 O.co2  71  GLU71      -0.2457
     44  OE2      -84.8050   -7.7380   19.2650 O.co2  71  GLU71      -0.2457
     45  N        -72.9960   -4.0900   21.4710 N.3   102  LYS102     -0.1245
     46  CA       -74.4020   -4.4350   21.3860 C.3   102  LYS102      0.1561
     47  C        -74.9230   -4.7650   22.7730 C.2   102  LYS102      0.2260
     48  O        -74.2690   -5.4980   23.5150 O.2   102  LYS102     -0.2867
     49  CB       -74.6350   -5.6620   20.4890 C.3   102  LYS102      0.0271
     50  CG       -76.1170   -5.9540   20.2660 C.3   102  LYS102      0.0035
     51  CD       -76.3580   -6.9980   19.1810 C.3   102  LYS102      0.0206
     52  CE       -76.7000   -8.3320   19.7910 C.3   102  LYS102      0.1093
     53  NZ       -77.0930   -9.3040   18.7200 N.3   102  LYS102     -0.1314
     54  N        -78.8550   -5.2910   23.5060 N.3   104  HIS104     -0.1241
     55  CA       -79.9580   -6.1950   23.2560 C.3   104  HIS104      0.1621
     56  C        -80.7240   -6.5980   24.5240 C.2   104  HIS104      0.2264
     57  O        -81.3160   -7.6870   24.5920 O.2   104  HIS104     -0.2867
     58  CB       -79.4770   -7.4430   22.4650 C.3   104  HIS104      0.0745
     59  CG       -80.5460   -8.0810   21.6380 C.ar  104  HIS104      0.0817
     60  ND1      -80.3820   -9.3140   21.0470 N.ar  104  HIS104     -0.2268
     61  CD2      -81.7980   -7.6570   21.2970 C.ar  104  HIS104      0.1154
     62  CE1      -81.5040   -9.6420   20.4110 C.ar  104  HIS104      0.1986
     63  NE2      -82.3720   -8.6480   20.5310 N.ar  104  HIS104     -0.2212
     64  N        -81.1560   -5.7330   18.5520 N.3   127  GLY127     -0.1210
     65  CA       -80.4700   -7.0060   18.2570 C.3   127  GLY127      0.1956
     66  C        -79.5480   -7.0470   17.0650 C.2   127  GLY127      0.2611
     67  O        -78.6910   -7.9650   16.9380 O.2   127  GLY127     -0.2717
     68  N        -79.7410   -6.0990   16.1620 N.am  128  ALA128     -0.1979
     69  CA       -78.8730   -5.9680   15.0310 C.3   128  ALA128      0.1597
     70  C        -79.0930   -4.6280   14.3990 C.2   128  ALA128      0.2287
     71  O        -80.0410   -3.8500   14.7390 O.2   128  ALA128     -0.2864
     72  CB       -79.1020   -7.0900   14.0260 C.3   128  ALA128      0.0319
     73  N        -88.3400   -7.1490    9.8350 N.3   145  ILE145     -0.1245
     74  CA       -86.9710   -7.3980   10.3200 C.3   145  ILE145      0.1561
     75  C        -86.0640   -6.1250   10.2850 C.2   145  ILE145      0.2260
     76  O        -85.2190   -5.8980   11.1980 O.2   145  ILE145     -0.2867
     77  CB       -86.3460   -8.5710    9.5710 C.3   145  ILE145      0.0252
     78  CG1      -85.0750   -9.0240   10.2810 C.3   145  ILE145      0.0019
     79  CG2      -85.9700   -8.2080    8.1270 C.3   145  ILE145      0.0019
     80  CD1      -84.5950  -10.3950    9.8540 C.3   145  ILE145      0.0001
     81  N        -87.2950   -3.5980   13.0030 N.3   148  GLY148     -0.1210
     82  CA       -86.7440   -3.9750   14.2820 C.3   148  GLY148      0.1956
     83  C        -85.2450   -3.8150   14.4690 C.2   148  GLY148      0.2612
     84  O        -84.7540   -4.1090   15.5620 O.2   148  GLY148     -0.2717
     85  N        -84.4990   -3.3110   13.4680 N.am  149  THR149     -0.1952
     86  CA       -83.0300   -3.2220   13.6050 C.3   149  THR149      0.1897
     87  C        -82.4740   -1.8840   13.1930 C.2   149  THR149      0.2313
     88  O        -81.5320   -1.8160   12.4260 O.2   149  THR149     -0.2863
     89  CB       -82.4000   -4.4090   12.8260 C.3   149  THR149      0.1794
     90  OG1      -82.7810   -4.3700   11.4270 O.3   149  THR149     -0.2208
     91  CG2      -82.8950   -5.7620   13.4660 C.3   149  THR149      0.0378
     92  N        -72.4350  -10.7830   12.8540 N.3   200  HIS200     -0.1226
     93  CA       -73.8830  -10.9200   12.7160 C.3   200  HIS200      0.1752
     94  C        -74.2890  -10.2210   11.4260 C.2   200  HIS200      0.2596
     95  O        -73.6360   -9.2650   10.9820 O.2   200  HIS200     -0.2718
     96  CB       -74.5470  -10.3450   13.9740 C.3   200  HIS200      0.0759
     97  CG       -75.9980  -10.5980   14.1010 C.ar  200  HIS200      0.0818
     98  ND1      -76.9310  -10.0650   13.2330 N.ar  200  HIS200     -0.2268
     99  CD2      -76.6890  -11.2950   15.0160 C.ar  200  HIS200      0.1154
    100  CE1      -78.1370  -10.4490   13.6070 C.ar  200  HIS200      0.1986
    101  NE2      -78.0270  -11.1440   14.7190 N.ar  200  HIS200     -0.2212
    102  N        -75.3190  -10.7450   10.7920 N.am  201  TRP201     -0.1976
    103  CA       -75.8370  -10.1690    9.5710 C.3   201  TRP201      0.1640
    104  C        -76.3290   -8.7110    9.7720 C.2   201  TRP201      0.2290
    105  O        -76.6040   -8.3020   10.9100 O.2   201  TRP201     -0.2864
    106  CB       -76.9500  -11.0510    8.9120 C.3   201  TRP201      0.0576
    107  CG       -78.0140  -11.5740    9.7720 C.ar  201  TRP201      0.0006
    108  CD1      -78.1240  -12.8360   10.1920 C.ar  201  TRP201      0.0946
    109  CD2      -79.1840  -10.8650   10.3090 C.ar  201  TRP201      0.0152
    110  NE1      -79.2300  -12.9640   11.0000 N.ar  201  TRP201     -0.2442
    111  CE2      -79.8930  -11.7880   11.0950 C.ar  201  TRP201      0.0810
    112  CE3      -79.6420   -9.5280   10.2530 C.ar  201  TRP201      0.0012
    113  CZ2      -81.0700  -11.4640   11.7940 C.ar  201  TRP201      0.0191
    114  CZ3      -80.8280   -9.1970   10.9870 C.ar  201  TRP201      0.0001
    115  CH2      -81.5080  -10.1650   11.7310 C.ar  201  TRP201      0.0015
    116  N        -72.0210  -15.8260   21.7000 N.3   306  ASP306     -0.1225
    117  CA       -73.3230  -15.8070   22.4020 C.3   306  ASP306      0.1805
    118  C        -74.3650  -16.9270   22.0110 C.2   306  ASP306      0.2597
    119  O        -75.4200  -17.1020   22.7090 O.2   306  ASP306     -0.2718
    120  CB       -73.9550  -14.4130   22.2530 C.3   306  ASP306      0.1424
    121  CG       -74.5740  -14.1390   20.8780 C.2   306  ASP306      0.3668
    122  OD1      -74.2060  -14.7580   19.8240 O.co2 306  ASP306     -0.2456
    123  OD2      -75.4470  -13.1760   20.8430 O.co2 306  ASP306     -0.2456
    124  N        -74.0830  -17.6560   20.9160 N.am  307  ASN307     -0.1974
    125  CA       -74.9350  -18.7160   20.4380 C.3   307  ASN307      0.1688
    126  C        -74.2340  -19.3900   19.2550 C.2   307  ASN307      0.2292
    127  O        -73.1190  -19.0120   18.9020 O.2   307  ASN307     -0.2864
    128  CB       -76.3900  -18.2450   20.1060 C.3   307  ASN307      0.1181
    129  CG       -76.4450  -17.0590   19.1510 C.2   307  ASN307      0.2629
    130  OD1      -76.9520  -15.9660   19.5030 O.2   307  ASN307     -0.2716
    131  ND2      -75.9430  -17.2440   17.9280 N.am  307  ASN307     -0.0877
    132  N        -75.0560  -18.7810   12.7170 N.3   310  GLU310     -0.1245
    133  CA       -76.3670  -18.3690   12.2280 C.3   310  GLU310      0.1567
    134  C        -76.6900  -19.0140   10.8700 C.2   310  GLU310      0.2260
    135  O        -76.2780  -18.5320    9.7980 O.2   310  GLU310     -0.2867
    136  CB       -76.4310  -16.8130   12.1710 C.3   310  GLU310      0.0388
    137  CG       -77.6340  -16.2260   11.4190 C.3   310  GLU310      0.1160
    138  CD       -78.9650  -16.5470   12.0730 C.2   310  GLU310      0.3649
    139  OE1      -79.2650  -17.7550   12.2090 O.co2 310  GLU310     -0.2457
    140  OE2      -79.6710  -15.5900   12.4850 O.co2 310  GLU310     -0.2457
    141  N        -79.7610  -19.1670    9.5990 N.3   312  ALA312     -0.1245
    142  CA       -81.1170  -18.7210    9.1180 C.3   312  ALA312      0.1562
    143  C        -81.1810  -18.2240    7.6920 C.2   312  ALA312      0.2260
    144  O        -80.2740  -17.5870    7.1750 O.2   312  ALA312     -0.2867
    145  CB       -81.7370  -17.6410   10.0410 C.3   312  ALA312      0.0290
    146  N        -83.3740  -15.5500    6.1520 N.3   314  LEU314     -0.1245
    147  CA       -84.2200  -14.4620    6.5810 C.3   314  LEU314      0.1561
    148  C        -85.4310  -14.3450    5.6380 C.2   314  LEU314      0.2260
    149  O        -86.4710  -13.9430    6.0560 O.2   314  LEU314     -0.2867
    150  CB       -83.4240  -13.1500    6.6550 C.3   314  LEU314      0.0270
    151  CG       -82.2190  -13.0590    7.5870 C.3   314  LEU314      0.0019
    152  CD1      -81.7430  -11.6160    7.6980 C.3   314  LEU314      0.0001
    153  CD2      -82.4980  -13.5870    8.9540 C.3   314  LEU314      0.0001
    154  N        -88.8520  -16.4710    6.8830 N.3   317  PHE317     -0.1241
    155  CA       -89.7060  -15.8610    7.9290 C.3   317  PHE317      0.1605
    156  C        -89.9620  -14.3430    7.5770 C.2   317  PHE317      0.2264
    157  O        -89.3400  -13.8200    6.6390 O.2   317  PHE317     -0.2867
    158  CB       -88.9740  -15.8660    9.2790 C.3   317  PHE317      0.0534
    159  CG       -88.1550  -17.1030    9.5580 C.ar  317  PHE317     -0.0203
    160  CD1      -88.7490  -18.2560   10.0970 C.ar  317  PHE317     -0.0042
    161  CD2      -86.7730  -17.1120    9.3180 C.ar  317  PHE317     -0.0042
    162  CE1      -87.9860  -19.3970   10.3530 C.ar  317  PHE317     -0.0003
    163  CE2      -86.0060  -18.2500    9.5780 C.ar  317  PHE317     -0.0003
    164  CZ       -86.6130  -19.3920   10.0920 C.ar  317  PHE317     -0.0000
    165  N        -77.6640  -22.0780   15.4070 N.3   364  LYS364     -0.1231
    166  CA       -78.4210  -21.0500   16.1490 C.3   364  LYS364      0.1693
    167  C        -79.9150  -21.2050   16.0920 C.2   364  LYS364      0.2591
    168  O        -80.4940  -21.4820   15.0310 O.2   364  LYS364     -0.2718
    169  CB       -78.0970  -19.6580   15.6330 C.3   364  LYS364      0.0285
    170  CG       -78.7100  -18.5020   16.4030 C.3   364  LYS364      0.0035
    171  CD       -78.6320  -17.2680   15.5090 C.3   364  LYS364      0.0206
    172  CE       -79.1590  -15.9940   16.1840 C.3   364  LYS364      0.1093
    173  NZ       -78.9980  -14.8710   15.2340 N.3   364  LYS364     -0.1314
    174  N        -80.5130  -20.9330   17.2490 N.am  365  ALA365     -0.1980
    175  CA       -81.9670  -20.9370   17.4700 C.3   365  ALA365      0.1597
    176  C        -82.4730  -22.3610   17.7350 C.2   365  ALA365      0.2287
    177  O        -83.6110  -22.5460   18.0960 O.2   365  ALA365     -0.2864
    178  CB       -82.7680  -20.1920   16.3700 C.3   365  ALA365      0.0319
    179  N        -88.3460  -20.7610   21.5770 N.3   452  PHE452     -0.1241
    180  CA       -89.0150  -20.9530   20.2630 C.3   452  PHE452      0.1605
    181  C        -89.7270  -22.3140   20.1380 C.2   452  PHE452      0.2264
    182  O        -89.7820  -22.8780   19.0390 O.2   452  PHE452     -0.2867
    183  CB       -87.9830  -20.8650   19.1120 C.3   452  PHE452      0.0534
    184  CG       -87.1030  -19.6210   19.1310 C.ar  452  PHE452     -0.0203
    185  CD1      -87.6390  -18.3410   19.3490 C.ar  452  PHE452     -0.0042
    186  CD2      -85.7320  -19.7280   18.9040 C.ar  452  PHE452     -0.0042
    187  CE1      -86.8040  -17.2060   19.3440 C.ar  452  PHE452     -0.0003
    188  CE2      -84.9060  -18.5990   18.9000 C.ar  452  PHE452     -0.0003
    189  CZ       -85.4340  -17.3460   19.1130 C.ar  452  PHE452     -0.0000
@<TRIPOS>BOND
     1   148   149    2
     2   148   147    1
     3   146   147    1
     4   147   150    1
     5   157   156    2
     6   150   151    1
     7   154   155    1
     8   144   143    2
     9   156   155    1
    10   151   152    1
    11   151   153    1
    12   143   142    1
    13   155   158    1
    14    79    77    1
    15   106   103    1
    16   106   107    1
    17   142   141    1
    18   142   145    1
    19   158   159    1
    20   161   159   ar
    21   161   163   ar
    22   159   160   ar
    23   103   104    1
    24   103   102    1
    25    77    78    1
    26    77    74    1
    27   163   164   ar
    28   104   105    2
    29   107   108   ar
    30   107   109   ar
    31   135   134    2
    32    73    74    1
    33    80    78    1
    34   164   162   ar
    35   160   162   ar
    36   108   110   ar
    37   112   109   ar
    38   112   114   ar
    39    75    74    1
    40    75    76    2
    41   109   111   ar
    42   102    94   am
    43   134   133    1
    44    95    94    2
    45   114   115   ar
    46   110   111   ar
    47   111   113   ar
    48   137   138    1
    49   137   136    1
    50    94    93    1
    51    90    89    1
    52   115   113   ar
    53   138   139   ar
    54   138   140   ar
    55   136   133    1
    56   133   132    1
    57    88    87    2
    58    93    92    1
    59    93    96    1
    60    89    91    1
    61    89    86    1
    62    81    82    1
    63    87    86    1
    64    98   100   ar
    65    98    97   ar
    66    85    86    1
    67    85    83   am
    68   100   101   ar
    69    96    97    1
    70    72    69    1
    71    97    99   ar
    72    82    83    1
    73    70    71    2
    74    70    69    1
    75    12    11    2
    76    83    84    2
    77    16    14   ar
    78   101    99   ar
    79    13    14    1
    80    13    10    1
    81    69    68    1
    82   168   167    2
    83   173   172    1
    84    14    15   ar
    85   165   166    1
    86    11    10    1
    87   171   172    1
    88   171   170    1
    89   169   166    1
    90   169   170    1
    91     4     3    2
    92    10     9    1
    93   167   166    1
    94   167   174   am
    95    68    66   am
    96   178   175    1
    97     3     9   am
    98     3     2    1
    99    67    66    2
   100    66    65    1
   101   174   175    1
   102     8     6   ar
   103   175   176    1
   104    39    38    2
   105     6     5    1
   106     6     7   ar
   107   176   177    2
   108     5     2    1
   109   131   129   am
   110     2     1    1
   111    40    41    1
   112    40    37    1
   113    65    64    1
   114    41    42    1
   115    38    37    1
   116    53    52    1
   117   188   186   ar
   118   188   189   ar
   119   127   126    2
   120   186   184   ar
   121    37    36    1
   122   182   181    2
   123   183   184    1
   124   183   180    1
   125   189   187   ar
   126   184   185   ar
   127   129   130    2
   128   129   128    1
   129    51    52    1
   130    51    50    1
   131   126   125    1
   132    44    42   ar
   133    42    43   ar
   134   187   185   ar
   135    34    35    1
   136    34    33    1
   137   122   121   ar
   138   128   125    1
   139   181   180    1
   140   180   179    1
   141    50    49    1
   142    21    18    1
   143    62    63   ar
   144    62    60   ar
   145   125   124    1
   146    49    46    1
   147    63    61   ar
   148   123   121   ar
   149    18    17    1
   150    18    19    1
   151   121   120    1
   152   124   118   am
   153    33    32    1
   154    32    29    1
   155    60    59   ar
   156    61    59   ar
   157    46    45    1
   158    46    47    1
   159    59    58    1
   160   116   117    1
   161    19    20    2
   162   118   117    1
   163   118   119    2
   164    31    30    2
   165   120   117    1
   166    30    29    1
   167    29    28    1
   168    58    55    1
   169    47    48    2
   170    22    23    1
   171    27    26    1
   172    55    54    1
   173    55    56    1
   174    26    23    1
   175    23    24    1
   176    56    57    2
   177    24    25    2
