@<TRIPOS>MOLECULE
tmp/4cxvB02.pdb
 95 93 0 0 0
SMALL
GASTEIGER

@<TRIPOS>ATOM
      1  N         23.1600   -3.5940  -25.2970 N.3   165  TYR165     -0.1241
      2  CA        23.4010   -5.0270  -25.0900 C.3   165  TYR165      0.1605
      3  C         23.2820   -5.8210  -26.3990 C.2   165  TYR165      0.2264
      4  O         23.0010   -7.0280  -26.4030 O.2   165  TYR165     -0.2867
      5  CB        22.4720   -5.5830  -23.9950 C.3   165  TYR165      0.0534
      6  CG        22.5220   -4.7900  -22.7000 C.ar  165  TYR165     -0.0201
      7  CD1       23.6750   -4.7700  -21.9020 C.ar  165  TYR165     -0.0009
      8  CD2       21.4170   -4.0570  -22.2740 C.ar  165  TYR165     -0.0009
      9  CE1       23.7170   -4.0260  -20.7230 C.ar  165  TYR165      0.0417
     10  CE2       21.4500   -3.3230  -21.1000 C.ar  165  TYR165      0.0417
     11  CZ        22.6000   -3.3170  -20.3290 C.ar  165  TYR165      0.1957
     12  OH        22.6070   -2.5660  -19.1700 O.3   165  TYR165     -0.2866
     13  N         21.8580   -7.5040  -20.5200 N.3   172  MET172     -0.1245
     14  CA        20.9410   -6.8900  -19.5830 C.3   172  MET172      0.1570
     15  C         20.7540   -7.7440  -18.3420 C.2   172  MET172      0.2261
     16  O         20.7700   -7.2190  -17.2310 O.2   172  MET172     -0.2867
     17  CB        19.5900   -6.6590  -20.2380 C.3   172  MET172      0.0387
     18  CG        18.6800   -5.8130  -19.3910 C.3   172  MET172      0.0595
     19  SD        17.1200   -5.5110  -20.1480 S.3   172  MET172     -0.1393
     20  CE        17.6500   -4.3410  -21.4050 C.3   172  MET172      0.0692
     21  N         23.8050   -7.4050  -16.1450 N.3   175  ALA175     -0.1231
     22  CA        23.8700   -6.0640  -15.5250 C.3   175  ALA175      0.1694
     23  C         22.8660   -5.9440  -14.3900 C.2   175  ALA175      0.2591
     24  O         23.1510   -5.3240  -13.3820 O.2   175  ALA175     -0.2718
     25  CB        23.5660   -5.0100  -16.5630 C.3   175  ALA175      0.0304
     26  N         21.6740   -6.5060  -14.5570 N.am  176  LEU176     -0.1980
     27  CA        20.6860   -6.5200  -13.4800 C.3   176  LEU176      0.1596
     28  C         21.1930   -7.3260  -12.2890 C.2   176  LEU176      0.2287
     29  O         21.0910   -6.8930  -11.1290 O.2   176  LEU176     -0.2864
     30  CB        19.3170   -7.0260  -13.9430 C.3   176  LEU176      0.0297
     31  CG        18.5360   -6.1180  -14.8920 C.3   176  LEU176      0.0022
     32  CD1       17.4190   -6.8760  -15.5710 C.3   176  LEU176      0.0001
     33  CD2       17.9590   -4.9210  -14.1760 C.3   176  LEU176      0.0001
     34  N         23.8480   -5.3850  -10.4170 N.3   179  ASN179     -0.1240
     35  CA        23.2930   -4.3460   -9.5770 C.3   179  ASN179      0.1653
     36  C         22.5810   -4.8760   -8.3360 C.2   179  ASN179      0.2266
     37  O         22.6620   -4.2870   -7.2610 O.2   179  ASN179     -0.2867
     38  CB        22.4180   -3.4130  -10.3790 C.3   179  ASN179      0.1155
     39  CG        23.2260   -2.4450  -11.1690 C.2   179  ASN179      0.2627
     40  OD1       24.4540   -2.4350  -11.0750 O.2   179  ASN179     -0.2716
     41  ND2       22.5550   -1.6250  -11.9640 N.am  179  ASN179     -0.0877
     42  N         24.8250   -2.7150   -6.0890 N.3   183  GLU183     -0.1231
     43  CA        24.2130   -1.3710   -6.0670 C.3   183  GLU183      0.1699
     44  C         22.9760   -1.3170   -5.1810 C.2   183  GLU183      0.2592
     45  O         22.7200   -0.3320   -4.4870 O.2   183  GLU183     -0.2718
     46  CB        23.8430   -0.9670   -7.4980 C.3   183  GLU183      0.0402
     47  CG        24.9060   -0.1750   -8.2150 C.3   183  GLU183      0.1161
     48  CD        25.0210    1.2360   -7.6800 C.2   183  GLU183      0.3649
     49  OE1       24.1200    2.0660   -7.9580 O.co2 183  GLU183     -0.2457
     50  OE2       25.9990    1.5060   -6.9620 O.co2 183  GLU183     -0.2457
     51  N         22.1980   -2.4020   -5.2090 N.am  184  TRP184     -0.1976
     52  CA        20.8930   -2.4200   -4.5760 C.3   184  TRP184      0.1640
     53  C         20.7640   -3.4450   -3.4710 C.2   184  TRP184      0.2290
     54  O         19.6610   -3.8420   -3.1100 O.2   184  TRP184     -0.2864
     55  CB        19.7960   -2.7210   -5.6010 C.3   184  TRP184      0.0576
     56  CG        19.8190   -1.8650   -6.8310 C.ar  184  TRP184      0.0006
     57  CD1       20.1280   -0.5380   -6.9160 C.ar  184  TRP184      0.0946
     58  CD2       19.4910   -2.2910   -8.1490 C.ar  184  TRP184      0.0152
     59  NE1       20.0190   -0.1090   -8.2200 N.ar  184  TRP184     -0.2442
     60  CE2       19.6270   -1.1690   -8.9990 C.ar  184  TRP184      0.0810
     61  CE3       19.0820   -3.5140   -8.7000 C.ar  184  TRP184      0.0012
     62  CZ2       19.3690   -1.2380  -10.3750 C.ar  184  TRP184      0.0191
     63  CZ3       18.8320   -3.5780  -10.0700 C.ar  184  TRP184      0.0001
     64  CH2       18.9720   -2.4490  -10.8850 C.ar  184  TRP184      0.0015
     65  N         15.2010    7.3350  -21.5180 N.3   231  TYR231     -0.1241
     66  CA        16.2500    7.3440  -20.5420 C.3   231  TYR231      0.1605
     67  C         15.7320    7.5730  -19.1300 C.2   231  TYR231      0.2264
     68  O         16.2780    7.0390  -18.1710 O.2   231  TYR231     -0.2867
     69  CB        17.3410    8.3340  -20.9560 C.3   231  TYR231      0.0534
     70  CG        18.1870    7.8080  -22.0930 C.ar  231  TYR231     -0.0201
     71  CD1       18.8640    6.6010  -21.9620 C.ar  231  TYR231     -0.0009
     72  CD2       18.3450    8.5230  -23.2820 C.ar  231  TYR231     -0.0009
     73  CE1       19.6530    6.0950  -22.9830 C.ar  231  TYR231      0.0417
     74  CE2       19.1280    8.0150  -24.3190 C.ar  231  TYR231      0.0417
     75  CZ        19.7810    6.7990  -24.1520 C.ar  231  TYR231      0.1957
     76  OH        20.5690    6.2710  -25.1400 O.3   231  TYR231     -0.2866
     77  N         15.3650    3.2760  -15.7950 N.3   235  PRO235     -0.2116
     78  CA        15.7160    2.8050  -14.4690 C.3   235  PRO235      0.1372
     79  C         14.5690    2.1490  -13.7140 C.2   235  PRO235      0.2244
     80  O         14.7870    1.2130  -12.9570 O.2   235  PRO235     -0.2868
     81  CB        16.1560    4.1050  -13.7320 C.3   235  PRO235      0.0268
     82  CG        16.5890    5.0360  -14.8280 C.3   235  PRO235      0.0207
     83  CD        15.7110    4.7040  -15.9970 C.3   235  PRO235      0.0892
     84  N         14.1580   -1.3240  -15.1010 N.3   238  TYR238     -0.1241
     85  CA        15.1780   -2.1560  -14.4870 C.3   238  TYR238      0.1605
     86  C         14.7930   -2.5630  -13.0570 C.2   238  TYR238      0.2264
     87  O         14.9250   -3.7240  -12.6770 O.2   238  TYR238     -0.2867
     88  CB        16.5560   -1.4930  -14.4790 C.3   238  TYR238      0.0534
     89  CG        17.2350   -1.3780  -15.8180 C.ar  238  TYR238     -0.0201
     90  CD1       17.0480   -2.3450  -16.8040 C.ar  238  TYR238     -0.0009
     91  CD2       18.1000   -0.3220  -16.0830 C.ar  238  TYR238     -0.0009
     92  CE1       17.7020   -2.2560  -18.0120 C.ar  238  TYR238      0.0417
     93  CE2       18.7680   -0.2340  -17.2920 C.ar  238  TYR238      0.0417
     94  CZ        18.5530   -1.2140  -18.2500 C.ar  238  TYR238      0.1957
     95  OH        19.1600   -1.1510  -19.4600 O.3   238  TYR238     -0.2866
@<TRIPOS>BOND
     1     4     3    2
     2     3     2    1
     3     1     2    1
     4    76    75    1
     5     2     5    1
     6    74    75   ar
     7    74    72   ar
     8    75    73   ar
     9     5     6    1
    10    72    70   ar
    11    73    71   ar
    12     6     8   ar
    13     6     7   ar
    14     8    10   ar
    15    70    71   ar
    16    70    69    1
    17     7     9   ar
    18    65    66    1
    19    20    19    1
    20    10    11   ar
    21    69    66    1
    22     9    11   ar
    23    66    67    1
    24    13    14    1
    25    11    12    1
    26    17    14    1
    27    17    18    1
    28    19    18    1
    29    14    15    1
    30    95    94    1
    31    67    68    2
    32    15    16    2
    33    94    92   ar
    34    94    93   ar
    35    92    90   ar
    36    93    91   ar
    37    90    89   ar
    38    25    22    1
    39    21    22    1
    40    91    89   ar
    41    83    77    1
    42    83    82    1
    43    89    88    1
    44    77    78    1
    45    32    31    1
    46    22    23    1
    47    84    85    1
    48    31    33    1
    49    31    30    1
    50    82    81    1
    51    26    23   am
    52    26    27    1
    53    85    88    1
    54    85    86    1
    55    78    81    1
    56    78    79    1
    57    23    24    2
    58    30    27    1
    59    79    80    2
    60    27    28    1
    61    86    87    2
    62    28    29    2
    63    41    39   am
    64    39    40    2
    65    39    38    1
    66    64    62   ar
    67    64    63   ar
    68    34    35    1
    69    38    35    1
    70    62    60   ar
    71    63    61   ar
    72    35    36    1
    73    60    59   ar
    74    60    58   ar
    75    61    58   ar
    76    36    37    2
    77    59    57   ar
    78    47    48    1
    79    47    46    1
    80    58    56   ar
    81    49    48   ar
    82    48    50   ar
    83    46    43    1
    84    57    56   ar
    85    56    55    1
    86    42    43    1
    87    43    44    1
    88    55    52    1
    89    51    44   am
    90    51    52    1
    91    44    45    2
    92    52    53    1
    93    53    54    2
