@<TRIPOS>MOLECULE
tmp/4cxvB00.pdb
 157 155 0 0 0
SMALL
GASTEIGER

@<TRIPOS>ATOM
      1  N         -7.2880  -20.5550  -24.6040 N.3    50  ARG50      -0.1231
      2  CA        -7.3850  -21.9710  -24.2740 C.3    50  ARG50       0.1694
      3  C         -7.9610  -22.1880  -22.8700 C.2    50  ARG50       0.2592
      4  O         -8.7660  -23.0870  -22.6560 O.2    50  ARG50      -0.2718
      5  CB        -6.0130  -22.6540  -24.3760 C.3    50  ARG50       0.0321
      6  CG        -6.0220  -24.1780  -24.4200 C.3    50  ARG50       0.0489
      7  CD        -4.6460  -24.6580  -24.7890 C.3    50  ARG50       0.2205
      8  NE        -4.4900  -26.0870  -24.6380 N.pl3  50  ARG50      -0.0865
      9  CZ        -4.0000  -26.7260  -23.5840 C.cat  50  ARG50       0.5346
     10  NH1       -3.5950  -26.1260  -22.4720 N.pl3  50  ARG50       0.1354
     11  NH2       -3.8780  -28.0520  -23.6340 N.pl3  50  ARG50       0.1354
     12  N         -7.5570  -21.3270  -21.9350 N.am   51  TYR51      -0.1962
     13  CA        -8.1560  -21.2500  -20.5830 C.3    51  TYR51       0.1771
     14  C         -8.6760  -19.8150  -20.3920 C.2    51  TYR51       0.2620
     15  O         -7.9900  -18.9650  -19.8110 O.2    51  TYR51      -0.2715
     16  CB        -7.1070  -21.5350  -19.4740 C.3    51  TYR51       0.0574
     17  CG        -6.4070  -22.8900  -19.4560 C.ar   51  TYR51      -0.0198
     18  CD1       -6.9950  -24.0290  -19.9900 C.ar   51  TYR51      -0.0009
     19  CD2       -5.1760  -23.0320  -18.8300 C.ar   51  TYR51      -0.0009
     20  CE1       -6.3560  -25.2570  -19.9470 C.ar   51  TYR51       0.0417
     21  CE2       -4.5290  -24.2540  -18.7800 C.ar   51  TYR51       0.0417
     22  CZ        -5.1260  -25.3690  -19.3420 C.ar   51  TYR51       0.1957
     23  OH        -4.5030  -26.5960  -19.2830 O.3    51  TYR51      -0.2866
     24  N         -9.8800  -19.5300  -20.8830 N.am   52  HIS52      -0.1959
     25  CA       -10.3980  -18.1640  -20.9210 C.3    52  HIS52       0.1787
     26  C        -10.5080  -17.5620  -19.5140 C.2    52  HIS52       0.2620
     27  O        -10.3120  -16.3580  -19.3210 O.2    52  HIS52      -0.2715
     28  CB       -11.7740  -18.1040  -21.6010 C.3    52  HIS52       0.0785
     29  CG       -12.8940  -18.3880  -20.6670 C.ar   52  HIS52       0.0821
     30  ND1      -13.1940  -19.6620  -20.2420 N.ar   52  HIS52      -0.2267
     31  CD2      -13.7170  -17.5550  -19.9850 C.ar   52  HIS52       0.1154
     32  CE1      -14.1770  -19.6080  -19.3610 C.ar   52  HIS52       0.1986
     33  NE2      -14.5030  -18.3390  -19.1810 N.ar   52  HIS52      -0.2212
     34  N        -10.7850  -18.4170  -18.5360 N.am   53  TRP53      -0.1974
     35  CA       -10.8380  -18.0420  -17.1440 C.3    53  TRP53       0.1640
     36  C         -9.5290  -17.4430  -16.6210 C.2    53  TRP53       0.2290
     37  O         -9.5160  -16.8010  -15.5650 O.2    53  TRP53      -0.2864
     38  CB       -11.2670  -19.2490  -16.2690 C.3    53  TRP53       0.0576
     39  CG       -10.5110  -20.5420  -16.4940 C.ar   53  TRP53       0.0006
     40  CD1      -10.9390  -21.6190  -17.2160 C.ar   53  TRP53       0.0946
     41  CD2       -9.2180  -20.9030  -15.9780 C.ar   53  TRP53       0.0152
     42  NE1      -10.0060  -22.6220  -17.1850 N.ar   53  TRP53      -0.2442
     43  CE2       -8.9340  -22.2130  -16.4420 C.ar   53  TRP53       0.0810
     44  CE3       -8.2770  -20.2560  -15.1890 C.ar   53  TRP53       0.0012
     45  CZ2       -7.7290  -22.8690  -16.1600 C.ar   53  TRP53       0.0191
     46  CZ3       -7.0750  -20.9260  -14.8800 C.ar   53  TRP53       0.0001
     47  CH2       -6.8160  -22.2090  -15.3730 C.ar   53  TRP53       0.0015
     48  N         -6.4140  -12.8950  -14.9280 N.3    57  LEU57      -0.1245
     49  CA        -5.4160  -13.1570  -13.9040 C.3    57  LEU57       0.1561
     50  C         -4.0700  -12.5140  -14.2010 C.2    57  LEU57       0.2260
     51  O         -3.1830  -12.5890  -13.3620 O.2    57  LEU57      -0.2867
     52  CB        -5.2030  -14.6810  -13.7300 C.3    57  LEU57       0.0270
     53  CG        -6.4780  -15.4970  -13.4430 C.3    57  LEU57       0.0019
     54  CD1       -6.1210  -16.9500  -13.1750 C.3    57  LEU57       0.0001
     55  CD2       -7.2600  -14.9270  -12.2650 C.3    57  LEU57       0.0001
     56  N        -10.9740  -11.9530   -6.2150 N.3    82  GLY82      -0.1210
     57  CA        -9.7690  -12.7770   -6.3080 C.3    82  GLY82       0.1956
     58  C         -9.2530  -12.9980   -7.7090 C.2    82  GLY82       0.2611
     59  O         -8.1490  -13.4420   -7.8940 O.2    82  GLY82      -0.2717
     60  N        -10.0590  -12.6770   -8.7100 N.am   83  ARG83      -0.1979
     61  CA        -9.6880  -12.9740  -10.0870 C.3    83  ARG83       0.1597
     62  C         -8.9450  -11.7750  -10.7210 C.2    83  ARG83       0.2287
     63  O         -9.4600  -11.0300  -11.5470 O.2    83  ARG83      -0.2864
     64  CB       -10.8890  -13.4410  -10.9090 C.3    83  ARG83       0.0334
     65  CG       -11.6520  -14.5860  -10.2660 C.3    83  ARG83       0.0492
     66  CD       -12.3550  -15.4740  -11.2960 C.3    83  ARG83       0.2205
     67  NE       -11.4290  -16.0930  -12.2420 N.pl3  83  ARG83      -0.0865
     68  CZ       -10.7840  -17.2420  -12.0340 C.cat  83  ARG83       0.5346
     69  NH1      -10.9340  -17.9020  -10.8940 N.pl3  83  ARG83       0.1354
     70  NH2       -9.9510  -17.7110  -12.9530 N.pl3  83  ARG83       0.1354
     71  N         -4.6440  -12.0850   -6.7550 N.3    87  GLY87      -0.1210
     72  CA        -5.4210  -13.2550   -6.3640 C.3    87  GLY87       0.1956
     73  C         -4.8860  -14.5390   -6.9770 C.2    87  GLY87       0.2611
     74  O         -4.8600  -15.5840   -6.3260 O.2    87  GLY87      -0.2717
     75  N         -4.4150  -14.4580   -8.2190 N.am   88  ALA88      -0.1979
     76  CA        -3.8020  -15.5990   -8.8740 C.3    88  ALA88       0.1597
     77  C         -2.5220  -16.0160   -8.1720 C.2    88  ALA88       0.2287
     78  O         -2.2380  -17.1940   -8.0080 O.2    88  ALA88      -0.2864
     79  CB        -3.4890  -15.2280  -10.3220 C.3    88  ALA88       0.0319
     80  N         -3.4150  -17.8840   -5.1330 N.3    91  ASN91      -0.1225
     81  CA        -3.9310  -19.1990   -5.5320 C.3    91  ASN91       0.1785
     82  C         -2.8330  -20.1980   -5.8350 C.2    91  ASN91       0.2597
     83  O         -2.7750  -21.2920   -5.2680 O.2    91  ASN91      -0.2718
     84  CB        -4.7240  -19.0310   -6.8140 C.3    91  ASN91       0.1169
     85  CG        -5.5270  -20.2640   -7.2100 C.2    91  ASN91       0.2627
     86  OD1       -5.8070  -21.1680   -6.4090 O.2    91  ASN91      -0.2716
     87  ND2       -5.9140  -20.2830   -8.4890 N.am   91  ASN91      -0.0877
     88  N         -1.9780  -19.8300   -6.7630 N.am   92  TYR92      -0.1976
     89  CA        -0.9880  -20.7710   -7.2690 C.3    92  TYR92       0.1639
     90  C          0.1470  -20.9970   -6.2960 C.2    92  TYR92       0.2290
     91  O          0.6780  -22.1080   -6.2280 O.2    92  TYR92      -0.2864
     92  CB        -0.5340  -20.3740   -8.6650 C.3    92  TYR92       0.0560
     93  CG        -1.6520  -20.4930   -9.6560 C.ar   92  TYR92      -0.0198
     94  CD1       -2.0740  -21.7450  -10.1040 C.ar   92  TYR92      -0.0009
     95  CD2       -2.3190  -19.3690  -10.1370 C.ar   92  TYR92      -0.0009
     96  CE1       -3.1290  -21.8720  -10.9870 C.ar   92  TYR92       0.0417
     97  CE2       -3.3620  -19.4910  -11.0530 C.ar   92  TYR92       0.0417
     98  CZ        -3.7470  -20.7510  -11.4890 C.ar   92  TYR92       0.1957
     99  OH        -4.7930  -20.9000  -12.3670 O.3    92  TYR92      -0.2866
    100  N         -1.3110  -23.5420   -3.9450 N.3    95  GLN95      -0.1245
    101  CA        -1.2790  -24.8620   -4.5700 C.3    95  GLN95       0.1566
    102  C          0.0820  -25.5090   -4.4800 C.2    95  GLN95       0.2260
    103  O          0.1920  -26.6850   -4.2010 O.2    95  GLN95      -0.2867
    104  CB        -1.6780  -24.7610   -6.0380 C.3    95  GLN95       0.0367
    105  CG        -3.1490  -24.4660   -6.2420 C.3    95  GLN95       0.0905
    106  CD        -3.5190  -24.3020   -7.6980 C.2    95  GLN95       0.2608
    107  OE1       -2.9320  -24.9220   -8.5780 O.2    95  GLN95      -0.2717
    108  NE2       -4.5050  -23.4540   -7.9570 N.am   95  GLN95      -0.0878
    109  N         -5.1770  -32.7300   -6.6520 N.3   103  GLN103     -0.1231
    110  CA        -6.0380  -32.5490   -7.8130 C.3   103  GLN103      0.1698
    111  C         -5.4080  -31.5760   -8.8030 C.2   103  GLN103      0.2592
    112  O         -5.5640  -31.7250  -10.0190 O.2   103  GLN103     -0.2718
    113  CB        -7.4250  -32.0310   -7.3990 C.3   103  GLN103      0.0381
    114  CG        -7.4240  -30.5880   -6.9170 C.3   103  GLN103      0.0905
    115  CD        -8.8080  -30.0640   -6.6530 C.2   103  GLN103      0.2608
    116  OE1       -9.1390  -29.7100   -5.5250 O.2   103  GLN103     -0.2717
    117  NE2       -9.6270  -30.0100   -7.6910 N.am  103  GLN103     -0.0878
    118  N         -4.6880  -30.5840   -8.2800 N.am  104  TYR104     -0.1962
    119  CA        -4.1440  -29.5330   -9.1320 C.3   104  TYR104      0.1771
    120  C         -2.8810  -29.9500   -9.8540 C.2   104  TYR104      0.2619
    121  O         -2.0600  -30.6890   -9.3050 O.2   104  TYR104     -0.2715
    122  CB        -3.8200  -28.2900   -8.3180 C.3   104  TYR104      0.0574
    123  CG        -5.0170  -27.5700   -7.8210 C.ar  104  TYR104     -0.0198
    124  CD1       -5.9260  -27.0040   -8.7080 C.ar  104  TYR104     -0.0009
    125  CD2       -5.2390  -27.4260   -6.4590 C.ar  104  TYR104     -0.0009
    126  CE1       -7.0410  -26.3320   -8.2510 C.ar  104  TYR104      0.0417
    127  CE2       -6.3390  -26.7400   -5.9910 C.ar  104  TYR104      0.0417
    128  CZ        -7.2330  -26.1930   -6.8870 C.ar  104  TYR104      0.1957
    129  OH        -8.3180  -25.5250   -6.4130 O.3   104  TYR104     -0.2866
    130  N         -2.7090  -29.4430  -11.0700 N.am  105  ASN105     -0.1972
    131  CA        -1.5140  -29.6850  -11.8500 C.3   105  ASN105      0.1688
    132  C         -0.4640  -28.6690  -11.3720 C.2   105  ASN105      0.2292
    133  O         -0.5920  -27.4680  -11.5950 O.2   105  ASN105     -0.2864
    134  CB        -1.8630  -29.6090  -13.3330 C.3   105  ASN105      0.1181
    135  CG        -0.6720  -29.7570  -14.2390 C.2   105  ASN105      0.2629
    136  OD1        0.4490  -29.4040  -13.8790 O.2   105  ASN105     -0.2716
    137  ND2       -0.9170  -30.2800  -15.4560 N.am  105  ASN105     -0.0877
    138  N          1.5380  -26.5900  -13.9920 N.3   108  GLU108     -0.1245
    139  CA         0.8020  -25.3800  -14.3290 C.3   108  GLU108      0.1567
    140  C          0.9240  -24.3520  -13.2030 C.2   108  GLU108      0.2260
    141  O          1.1250  -23.1690  -13.4780 O.2   108  GLU108     -0.2867
    142  CB        -0.6570  -25.6780  -14.6560 C.3   108  GLU108      0.0388
    143  CG        -0.8260  -26.4080  -15.9960 C.3   108  GLU108      0.1160
    144  CD        -2.2680  -26.5200  -16.4930 C.2   108  GLU108      0.3649
    145  OE1       -3.2400  -26.2670  -15.7340 O.co2 108  GLU108     -0.2457
    146  OE2       -2.4360  -26.8680  -17.6760 O.co2 108  GLU108     -0.2457
    147  N          2.2810  -20.6550  -13.9200 N.3   112  PHE112     -0.1241
    148  CA         1.4320  -19.5160  -13.6330 C.3   112  PHE112      0.1605
    149  C          2.0840  -18.5790  -12.6090 C.2   112  PHE112      0.2264
    150  O          2.1270  -17.3840  -12.8170 O.2   112  PHE112     -0.2867
    151  CB         0.0740  -19.9690  -13.1040 C.3   112  PHE112      0.0534
    152  CG        -0.9320  -20.2970  -14.1780 C.ar  112  PHE112     -0.0203
    153  CD1       -1.1860  -19.4120  -15.2300 C.ar  112  PHE112     -0.0042
    154  CD2       -1.6370  -21.4840  -14.1300 C.ar  112  PHE112     -0.0042
    155  CE1       -2.0960  -19.7190  -16.2160 C.ar  112  PHE112     -0.0003
    156  CE2       -2.5830  -21.7810  -15.0890 C.ar  112  PHE112     -0.0003
    157  CZ        -2.8200  -20.9120  -16.1240 C.ar  112  PHE112     -0.0000
@<TRIPOS>BOND
     1     7     8    1
     2     7     6    1
     3     8     9    2
     4     1     2    1
     5     6     5    1
     6     5     2    1
     7     2     3    1
     8    11     9    1
     9     9    10    1
    10     3     4    2
    11     3    12   am
    12    12    13    1
    13    28    25    1
    14    28    29    1
    15    25    24    1
    16    25    26    1
    17    24    14   am
    18    29    30   ar
    19    29    31   ar
    20    13    14    1
    21    13    16    1
    22    14    15    2
    23    30    32   ar
    24    18    20   ar
    25    18    17   ar
    26    31    33   ar
    27    20    22   ar
    28    26    27    2
    29    26    34   am
    30    16    17    1
    31    17    19   ar
    32    32    33   ar
    33    22    23    1
    34    22    21   ar
    35    19    21   ar
    36    34    35    1
    37   146   144   ar
    38    40    42   ar
    39    40    39   ar
    40    42    43   ar
    41    35    36    1
    42    35    38    1
    43    36    37    2
    44    39    38    1
    45    39    41   ar
    46   144   143    1
    47   144   145   ar
    48    43    45   ar
    49    43    41   ar
    50   155   157   ar
    51   155   153   ar
    52    45    47   ar
    53   157   156   ar
    54   143   142    1
    55    41    44   ar
    56   137   135   am
    57    47    46   ar
    58   153   152   ar
    59    44    46   ar
    60   156   154   ar
    61    48    49    1
    62   142   139    1
    63   139   138    1
    64   139   140    1
    65   135   136    2
    66   135   134    1
    67    50    49    1
    68    50    51    2
    69   152   154   ar
    70   152   151    1
    71   147   148    1
    72    49    52    1
    73    52    53    1
    74   148   151    1
    75   148   149    1
    76   141   140    2
    77    53    54    1
    78    53    55    1
    79   134   131    1
    80    70    68    1
    81   150   149    2
    82    99    98    1
    83    67    68    2
    84    67    66    1
    85    68    69    1
    86   131   132    1
    87   131   130    1
    88   133   132    2
    89    63    62    2
    90    98    97   ar
    91    98    96   ar
    92    66    65    1
    93   130   120   am
    94    97    95   ar
    95    96    94   ar
    96    64    65    1
    97    64    61    1
    98    62    61    1
    99    79    76    1
   100    95    93   ar
   101    94    93   ar
   102    61    60    1
   103   112   111    2
   104   120   121    2
   105   120   119    1
   106    93    92    1
   107   119   122    1
   108   119   118    1
   109    76    75    1
   110    76    77    1
   111   111   118   am
   112   111   110    1
   113    60    58   am
   114   124   126   ar
   115   124   123   ar
   116    92    89    1
   117   107   106    2
   118    87    85   am
   119   122   123    1
   120   126   128   ar
   121    75    73   am
   122    77    78    2
   123   108   106   am
   124    59    58    2
   125   123   125   ar
   126   110   113    1
   127   110   109    1
   128    58    57    1
   129   106   105    1
   130   117   115   am
   131   113   114    1
   132    89    88    1
   133    89    90    1
   134    85    84    1
   135    85    86    2
   136    73    72    1
   137    73    74    2
   138   114   115    1
   139   128   129    1
   140   128   127   ar
   141    84    81    1
   142    88    82   am
   143    71    72    1
   144   115   116    2
   145   125   127   ar
   146    57    56    1
   147    90    91    2
   148   105   104    1
   149   104   101    1
   150    82    81    1
   151    82    83    2
   152    81    80    1
   153   101   102    1
   154   101   100    1
   155   102   103    2
