@<TRIPOS>MOLECULE
tmp/4cxvA01.pdb
 101 96 0 0 0
SMALL
GASTEIGER

@<TRIPOS>ATOM
      1  N         -1.9450   29.8400   17.5180 N.3    30  PRO30      -0.2116
      2  CA        -1.8930   30.9740   18.4340 C.3    30  PRO30       0.1372
      3  C         -0.5130   31.1860   19.0080 C.2    30  PRO30       0.2244
      4  O          0.2730   30.2440   19.0720 O.2    30  PRO30      -0.2868
      5  CB        -2.8860   30.5690   19.5360 C.3    30  PRO30       0.0268
      6  CG        -2.8860   29.0790   19.5110 C.3    30  PRO30       0.0207
      7  CD        -2.7040   28.7030   18.0720 C.3    30  PRO30       0.0892
      8  N          0.4310   31.3980   21.9520 N.3    32  SER32      -0.1217
      9  CA         0.6280   30.5100   23.1100 C.3    32  SER32       0.1889
     10  C          1.2160   29.1530   22.7400 C.2    32  SER32       0.2288
     11  O          1.7930   28.4870   23.5880 O.2    32  SER32      -0.2866
     12  CB        -0.6900   30.3360   23.8580 C.3    32  SER32       0.2089
     13  OG        -1.7940   30.3690   22.9600 O.3    32  SER32      -0.2183
     14  N         -0.9490   21.4260   20.3700 N.3    40  LEU40      -0.1245
     15  CA        -2.3920   21.5580   20.2360 C.3    40  LEU40       0.1561
     16  C         -3.0480   20.3840   19.4910 C.2    40  LEU40       0.2260
     17  O         -4.2100   20.4370   19.1430 O.2    40  LEU40      -0.2867
     18  CB        -2.7240   22.9080   19.6220 C.3    40  LEU40       0.0270
     19  CG        -2.5530   24.0900   20.5980 C.3    40  LEU40       0.0019
     20  CD1       -2.5970   25.4060   19.8180 C.3    40  LEU40       0.0001
     21  CD2       -3.6010   24.0860   21.7010 C.3    40  LEU40       0.0001
     22  N         -6.2790   19.2580   21.0940 N.3    43  TRP43      -0.1241
     23  CA        -7.3290   20.2500   21.2860 C.3    43  TRP43       0.1605
     24  C         -8.7000   19.6920   20.9090 C.2    43  TRP43       0.2264
     25  O         -9.6680   19.8870   21.6220 O.2    43  TRP43      -0.2867
     26  CB        -6.9990   21.4910   20.4560 C.3    43  TRP43       0.0550
     27  CG        -8.0930   22.4660   20.4360 C.ar   43  TRP43       0.0003
     28  CD1       -8.3360   23.4260   21.3690 C.ar   43  TRP43       0.0946
     29  CD2       -9.1400   22.5690   19.4580 C.ar   43  TRP43       0.0152
     30  NE1       -9.4710   24.1240   21.0350 N.ar   43  TRP43      -0.2442
     31  CE2       -9.9800   23.6260   19.8630 C.ar   43  TRP43       0.0810
     32  CE3       -9.4550   21.8640   18.2760 C.ar   43  TRP43       0.0012
     33  CZ2      -11.1240   24.0060   19.1340 C.ar   43  TRP43       0.0191
     34  CZ3      -10.5900   22.2350   17.5580 C.ar   43  TRP43       0.0001
     35  CH2      -11.4040   23.3110   17.9870 C.ar   43  TRP43       0.0015
     36  N        -10.6910   17.8690   23.5570 N.3    46  ARG46      -0.1245
     37  CA       -11.2180   18.6770   24.6710 C.3    46  ARG46       0.1563
     38  C        -12.5270   19.3750   24.3330 C.2    46  ARG46       0.2260
     39  O        -13.1690   19.9100   25.2290 O.2    46  ARG46      -0.2867
     40  CB       -10.2510   19.7960   25.0910 C.3    46  ARG46       0.0307
     41  CG        -8.7850   19.4470   25.2410 C.3    46  ARG46       0.0489
     42  CD        -7.9640   20.7130   24.9500 C.3    46  ARG46       0.2205
     43  NE        -6.5050   20.5300   24.9010 N.pl3  46  ARG46      -0.0865
     44  CZ        -5.6480   21.4810   24.5280 C.cat  46  ARG46       0.5346
     45  NH1       -6.0890   22.6840   24.1780 N.pl3  46  ARG46       0.1354
     46  NH2       -4.3460   21.2430   24.5140 N.pl3  46  ARG46       0.1354
     47  N        -18.0060   20.5330   24.5330 N.3    50  ARG50      -0.1231
     48  CA       -18.1220   21.9620   24.2220 C.3    50  ARG50       0.1694
     49  C        -18.6910   22.1830   22.8160 C.2    50  ARG50       0.2592
     50  O        -19.4920   23.0790   22.6010 O.2    50  ARG50      -0.2718
     51  CB       -16.7730   22.6560   24.3380 C.3    50  ARG50       0.0321
     52  CG       -16.9580   24.1680   24.4260 C.3    50  ARG50       0.0489
     53  CD       -15.7180   24.9930   24.1410 C.3    50  ARG50       0.2205
     54  NE       -15.9100   26.3160   24.7260 N.pl3  50  ARG50      -0.0865
     55  CZ       -15.5070   26.6880   25.9360 C.cat  50  ARG50       0.5346
     56  NH1      -14.8130   25.8690   26.7190 N.pl3  50  ARG50       0.1354
     57  NH2      -15.7800   27.9130   26.3560 N.pl3  50  ARG50       0.1354
     58  N        -18.2660   21.3430   21.8790 N.am   51  TYR51      -0.1976
     59  CA       -18.8520   21.2610   20.5180 C.3    51  TYR51       0.1639
     60  C        -19.3420   19.8160   20.3510 C.2    51  TYR51       0.2290
     61  O        -18.6510   18.9670   19.7790 O.2    51  TYR51      -0.2864
     62  CB       -17.8010   21.5450   19.4250 C.3    51  TYR51       0.0560
     63  CG       -17.1090   22.8930   19.4380 C.ar   51  TYR51      -0.0198
     64  CD1      -17.7080   24.0240   19.9780 C.ar   51  TYR51      -0.0009
     65  CD2      -15.8580   23.0520   18.8200 C.ar   51  TYR51      -0.0009
     66  CE1      -17.0740   25.2610   19.9420 C.ar   51  TYR51       0.0417
     67  CE2      -15.2260   24.2790   18.7770 C.ar   51  TYR51       0.0417
     68  CZ       -15.8370   25.3850   19.3480 C.ar   51  TYR51       0.1957
     69  OH       -15.2080   26.6220   19.3130 O.3    51  TYR51      -0.2866
     70  N        -13.2550   29.5730   11.1930 N.3   106  ASN106     -0.1240
     71  CA       -12.0590   29.8150   11.9750 C.3   106  ASN106      0.1653
     72  C        -11.0010   28.8030   11.5230 C.2   106  ASN106      0.2266
     73  O        -11.1330   27.6090   11.7260 O.2   106  ASN106     -0.2867
     74  CB       -12.4120   29.7360   13.4510 C.3   106  ASN106      0.1155
     75  CG       -11.2310   29.9010   14.3530 C.2   106  ASN106      0.2627
     76  OD1      -10.1050   29.5340   14.0140 O.2   106  ASN106     -0.2716
     77  ND2      -11.4870   30.4510   15.5560 N.am  106  ASN106     -0.0877
     78  N         -7.8190   28.5340   12.3670 N.3   108  THR108     -0.1203
     79  CA        -7.0540   27.9300   13.4430 C.3   108  THR108      0.1994
     80  C         -7.7370   26.6210   13.8840 C.2   108  THR108      0.2617
     81  O         -7.1030   25.5870   13.9920 O.2   108  THR108     -0.2717
     82  CB        -6.9300   28.8990   14.6480 C.3   108  THR108      0.1784
     83  OG1       -6.1060   30.0150   14.2740 O.3   108  THR108     -0.2211
     84  CG2       -6.2980   28.2050   15.8260 C.3   108  THR108      0.0376
     85  N         -9.0320   26.6820   14.1310 N.am  109  GLU109     -0.1979
     86  CA        -9.7830   25.4690   14.4290 C.3   109  GLU109      0.1602
     87  C         -9.6530   24.4580   13.2900 C.2   109  GLU109      0.2287
     88  O         -9.4590   23.2680   13.5470 O.2   109  GLU109     -0.2864
     89  CB       -11.2410   25.7640   14.7450 C.3   109  GLU109      0.0415
     90  CG       -11.4270   26.4670   16.0960 C.3   109  GLU109      0.1163
     91  CD       -12.8870   26.5700   16.5690 C.2   109  GLU109      0.3649
     92  OE1      -13.8280   26.3460   15.8000 O.co2 109  GLU109     -0.2457
     93  OE2      -13.0980   26.9190   17.7380 O.co2 109  GLU109     -0.2457
     94  N         -6.3480   22.6770   13.6340 N.3   112  LEU112     -0.1245
     95  CA        -6.2980   21.8110   14.7960 C.3   112  LEU112      0.1561
     96  C         -7.1620   20.5640   14.6150 C.2   112  LEU112      0.2260
     97  O         -6.7840   19.4590   15.0440 O.2   112  LEU112     -0.2867
     98  CB        -6.7220   22.5760   16.0640 C.3   112  LEU112      0.0270
     99  CG        -5.7780   23.7340   16.4580 C.3   112  LEU112      0.0019
    100  CD1       -6.1770   24.3720   17.7790 C.3   112  LEU112      0.0001
    101  CD2       -4.3520   23.2530   16.5580 C.3   112  LEU112      0.0001
@<TRIPOS>BOND
     1    70    71    1
     2    72    73    2
     3    72    71    1
     4    71    74    1
     5    78    79    1
     6    87    88    2
     7    87    86    1
     8    79    80    1
     9    79    82    1
    10    74    75    1
    11    94    95    1
    12    80    81    2
    13    80    85   am
    14    76    75    2
    15    85    86    1
    16    83    82    1
    17    75    77   am
    18    86    89    1
    19    96    95    1
    20    96    97    2
    21    82    84    1
    22    89    90    1
    23    95    98    1
    24    92    91   ar
    25    98    99    1
    26    90    91    1
    27    99   101    1
    28    99   100    1
    29    91    93   ar
    30     1     7    1
    31     1     2    1
    32    34    35   ar
    33    34    32   ar
    34    35    33   ar
    35     7     6    1
    36    32    29   ar
    37     2     3    1
    38     2     5    1
    39    67    65   ar
    40    67    68   ar
    41    65    63   ar
    42     3     4    2
    43    33    31   ar
    44    17    16    2
    45    69    68    1
    46    68    66   ar
    47    62    63    1
    48    62    59    1
    49    63    64   ar
    50    29    31   ar
    51    29    27   ar
    52    16    15    1
    53     6     5    1
    54    18    15    1
    55    18    19    1
    56    61    60    2
    57    20    19    1
    58    31    30   ar
    59    66    64   ar
    60    15    14    1
    61    60    59    1
    62    27    26    1
    63    27    28   ar
    64    26    23    1
    65    59    58    1
    66    19    21    1
    67    24    23    1
    68    24    25    2
    69    30    28   ar
    70    22    23    1
    71    58    49   am
    72     8     9    1
    73    50    49    2
    74    10     9    1
    75    10    11    2
    76    49    48    1
    77    13    12    1
    78     9    12    1
    79    36    37    1
    80    53    52    1
    81    53    54    1
    82    45    44    1
    83    48    51    1
    84    48    47    1
    85    38    37    1
    86    38    39    2
    87    51    52    1
    88    46    44    1
    89    44    43    2
    90    37    40    1
    91    54    55    2
    92    43    42    1
    93    42    41    1
    94    40    41    1
    95    55    57    1
    96    55    56    1
