@<TRIPOS>MOLECULE
tmp/4cxvA00.pdb
 143 139 0 0 0
SMALL
GASTEIGER

@<TRIPOS>ATOM
      1  N        -20.5460   19.5260   20.8360 N.3    52  HIS52      -0.1226
      2  CA       -21.0600   18.1380   20.8610 C.3    52  HIS52       0.1752
      3  C        -21.1530   17.5560   19.4530 C.2    52  HIS52       0.2596
      4  O        -20.9590   16.3580   19.2520 O.2    52  HIS52      -0.2718
      5  CB       -22.4510   18.0690   21.5180 C.3    52  HIS52       0.0759
      6  CG       -23.5600   18.3550   20.5650 C.ar   52  HIS52       0.0818
      7  ND1      -23.8550   19.6330   20.1360 N.ar   52  HIS52      -0.2268
      8  CD2      -24.3990   17.5250   19.8960 C.ar   52  HIS52       0.1154
      9  CE1      -24.8530   19.5810   19.2700 C.ar   52  HIS52       0.1986
     10  NE2      -25.1780   18.3110   19.0870 N.ar   52  HIS52      -0.2212
     11  N        -21.4280   18.4210   18.4750 N.am   53  TRP53      -0.1976
     12  CA       -21.4690   18.0540   17.0820 C.3    53  TRP53       0.1640
     13  C        -20.1550   17.4550   16.5670 C.2    53  TRP53       0.2290
     14  O        -20.1290   16.8310   15.5100 O.2    53  TRP53      -0.2864
     15  CB       -21.8860   19.2640   16.2110 C.3    53  TRP53       0.0576
     16  CG       -21.1270   20.5560   16.4620 C.ar   53  TRP53       0.0006
     17  CD1      -21.5730   21.6300   17.1750 C.ar   53  TRP53       0.0946
     18  CD2      -19.8360   20.9300   15.9470 C.ar   53  TRP53       0.0152
     19  NE1      -20.6510   22.6460   17.1430 N.ar   53  TRP53      -0.2442
     20  CE2      -19.5660   22.2410   16.4110 C.ar   53  TRP53       0.0810
     21  CE3      -18.8850   20.2890   15.1450 C.ar   53  TRP53       0.0012
     22  CZ2      -18.3710   22.9140   16.1240 C.ar   53  TRP53       0.0191
     23  CZ3      -17.7060   20.9540   14.8490 C.ar   53  TRP53       0.0001
     24  CH2      -17.4610   22.2670   15.3360 C.ar   53  TRP53       0.0015
     25  N        -17.0290   12.9350   14.8500 N.3    57  LEU57      -0.1245
     26  CA       -16.0220   13.1980   13.8420 C.3    57  LEU57       0.1561
     27  C        -14.6830   12.5450   14.1450 C.2    57  LEU57       0.2260
     28  O        -13.7830   12.6330   13.3100 O.2    57  LEU57      -0.2867
     29  CB       -15.8200   14.7220   13.6870 C.3    57  LEU57       0.0270
     30  CG       -17.0820   15.5500   13.3930 C.3    57  LEU57       0.0019
     31  CD1      -16.7160   17.0080   13.1450 C.3    57  LEU57       0.0001
     32  CD2      -17.8580   14.9940   12.2000 C.3    57  LEU57       0.0001
     33  N        -26.7020   11.3220    9.5860 N.3    80  GLU80      -0.1245
     34  CA       -26.3130   12.4830    8.7890 C.3    80  GLU80       0.1567
     35  C        -24.9790   12.2270    8.0600 C.2    80  GLU80       0.2260
     36  O        -23.9380   12.0060    8.6880 O.2    80  GLU80      -0.2867
     37  CB       -26.2320   13.7430    9.6500 C.3    80  GLU80       0.0388
     38  CG       -26.0090   14.9800    8.8040 C.3    80  GLU80       0.1160
     39  CD       -26.3350   16.2750    9.5180 C.2    80  GLU80       0.3649
     40  OE1      -26.9010   16.2550   10.6380 O.co2  80  GLU80      -0.2457
     41  OE2      -26.0420   17.3280    8.9250 O.co2  80  GLU80      -0.2457
     42  N        -21.5550   12.1020    6.1280 N.3    82  GLY82      -0.1210
     43  CA       -20.3440   12.9260    6.2210 C.3    82  GLY82       0.1956
     44  C        -19.8260   13.1320    7.6270 C.2    82  GLY82       0.2611
     45  O        -18.7120   13.5450    7.8120 O.2    82  GLY82      -0.2717
     46  N        -20.6360   12.8080    8.6290 N.am   83  ARG83      -0.1979
     47  CA       -20.2630   13.0890   10.0030 C.3    83  ARG83       0.1597
     48  C        -19.5310   11.8780   10.6280 C.2    83  ARG83       0.2287
     49  O        -20.0710   11.1140   11.4470 O.2    83  ARG83      -0.2864
     50  CB       -21.4750   13.5310   10.8240 C.3    83  ARG83       0.0334
     51  CG       -22.2390   14.6830   10.1920 C.3    83  ARG83       0.0492
     52  CD       -22.9320   15.5480   11.2180 C.3    83  ARG83       0.2205
     53  NE       -22.0060   16.1640   12.1640 N.pl3  83  ARG83      -0.0865
     54  CZ       -21.3680   17.3170   11.9700 C.cat  83  ARG83       0.5346
     55  NH1      -21.5070   17.9840   10.8340 N.pl3  83  ARG83       0.1354
     56  NH2      -20.5370   17.7780   12.8980 N.pl3  83  ARG83       0.1354
     57  N        -15.2000   12.2140    6.6880 N.3    87  GLY87      -0.1210
     58  CA       -15.9590   13.3900    6.3070 C.3    87  GLY87       0.1956
     59  C        -15.4120   14.6670    6.9410 C.2    87  GLY87       0.2611
     60  O        -15.3820   15.7200    6.3080 O.2    87  GLY87      -0.2717
     61  N        -14.9540   14.5670    8.1820 N.am   88  ALA88      -0.1979
     62  CA       -14.3530   15.6960    8.8630 C.3    88  ALA88       0.1597
     63  C        -13.0580   16.1240    8.1800 C.2    88  ALA88       0.2287
     64  O        -12.7730   17.3200    8.0280 O.2    88  ALA88      -0.2864
     65  CB       -14.0690   15.2940   10.2950 C.3    88  ALA88       0.0319
     66  N        -13.9240   18.0360    5.1600 N.3    91  ASN91      -0.1225
     67  CA       -14.4570   19.3430    5.5580 C.3    91  ASN91       0.1785
     68  C        -13.3690   20.3450    5.8840 C.2    91  ASN91       0.2597
     69  O        -13.3190   21.4460    5.3350 O.2    91  ASN91      -0.2718
     70  CB       -15.2540   19.1770    6.8420 C.3    91  ASN91       0.1169
     71  CG       -16.0230   20.4160    7.2410 C.2    91  ASN91       0.2627
     72  OD1      -16.2790   21.3340    6.4390 O.2    91  ASN91      -0.2716
     73  ND2      -16.4070   20.4410    8.5280 N.am   91  ASN91      -0.0877
     74  N        -12.5120   19.9680    6.8130 N.am   92  TYR92      -0.1976
     75  CA       -11.5240   20.9090    7.3270 C.3    92  TYR92       0.1639
     76  C        -10.3920   21.1490    6.3520 C.2    92  TYR92       0.2290
     77  O         -9.8630   22.2710    6.3030 O.2    92  TYR92      -0.2864
     78  CB       -11.0730   20.4870    8.7080 C.3    92  TYR92       0.0560
     79  CG       -12.2020   20.5960    9.7010 C.ar   92  TYR92      -0.0198
     80  CD1      -12.6230   21.8470   10.1600 C.ar   92  TYR92      -0.0009
     81  CD2      -12.8690   19.4680   10.1700 C.ar   92  TYR92      -0.0009
     82  CE1      -13.6600   21.9570   11.0610 C.ar   92  TYR92       0.0417
     83  CE2      -13.9240   19.5690   11.0690 C.ar   92  TYR92       0.0417
     84  CZ       -14.3070   20.8180   11.5150 C.ar   92  TYR92       0.1957
     85  OH       -15.3300   20.9380   12.4130 O.3    92  TYR92      -0.2866
     86  N        -11.8310   23.7510    4.0480 N.3    95  GLN95      -0.1245
     87  CA       -11.8080   25.0630    4.6920 C.3    95  GLN95       0.1566
     88  C        -10.4390   25.7050    4.6110 C.2    95  GLN95       0.2260
     89  O        -10.3300   26.8920    4.3410 O.2    95  GLN95      -0.2867
     90  CB       -12.2010   24.9380    6.1470 C.3    95  GLN95       0.0367
     91  CG       -13.6640   24.6390    6.3470 C.3    95  GLN95       0.0905
     92  CD       -14.0290   24.4340    7.8000 C.2    95  GLN95       0.2608
     93  OE1      -13.4600   25.0590    8.6870 O.2    95  GLN95      -0.2717
     94  NE2      -15.0230   23.5900    8.0430 N.am   95  GLN95      -0.0878
     95  N        -16.0140   32.7350    6.7620 N.3   104  GLN104     -0.1231
     96  CA       -16.9790   32.3090    7.7720 C.3   104  GLN104      0.1698
     97  C        -16.2940   31.4420    8.8260 C.2   104  GLN104      0.2592
     98  O        -16.6600   31.4670   10.0030 O.2   104  GLN104     -0.2718
     99  CB       -18.1100   31.5140    7.1130 C.3   104  GLN104      0.0381
    100  CG       -19.2160   31.1330    8.1380 C.3   104  GLN104      0.0905
    101  CD       -20.2990   30.2590    7.5310 C.2   104  GLN104      0.2608
    102  OE1      -20.1700   29.8850    6.3760 O.2   104  GLN104     -0.2717
    103  NE2      -21.4000   29.9660    8.2530 N.am  104  GLN104     -0.0878
    104  N        -15.2910   30.6700    8.4070 N.am  105  TYR105     -0.1962
    105  CA       -14.6930   29.6690    9.2650 C.3   105  TYR105      0.1771
    106  C        -13.4140   30.0880    9.9950 C.2   105  TYR105      0.2619
    107  O        -12.5960   30.8350    9.4770 O.2   105  TYR105     -0.2715
    108  CB       -14.3580   28.4350    8.4470 C.3   105  TYR105      0.0574
    109  CG       -15.5560   27.7090    7.9290 C.ar  105  TYR105     -0.0198
    110  CD1      -16.4740   27.1360    8.8030 C.ar  105  TYR105     -0.0009
    111  CD2      -15.7660   27.5730    6.5680 C.ar  105  TYR105     -0.0009
    112  CE1      -17.5710   26.4420    8.3300 C.ar  105  TYR105      0.0417
    113  CE2      -16.8600   26.8890    6.0820 C.ar  105  TYR105      0.0417
    114  CZ       -17.7570   26.3230    6.9670 C.ar  105  TYR105      0.1957
    115  OH       -18.8380   25.6570    6.4800 O.3   105  TYR105     -0.2866
    116  N        -13.2550   29.5730   11.1930 N.am  106  ASN106     -0.1972
    117  CA       -12.0590   29.8150   11.9750 C.3   106  ASN106      0.1688
    118  C        -11.0010   28.8030   11.5230 C.2   106  ASN106      0.2292
    119  O        -11.1330   27.6090   11.7260 O.2   106  ASN106     -0.2864
    120  CB       -12.4120   29.7360   13.4510 C.3   106  ASN106      0.1181
    121  CG       -11.2310   29.9010   14.3530 C.2   106  ASN106      0.2629
    122  OD1      -10.1050   29.5340   14.0140 O.2   106  ASN106     -0.2716
    123  ND2      -11.4870   30.4510   15.5560 N.am  106  ASN106     -0.0877
    124  N         -9.0320   26.6820   14.1310 N.3   109  GLU109     -0.1245
    125  CA        -9.7830   25.4690   14.4290 C.3   109  GLU109      0.1567
    126  C         -9.6530   24.4580   13.2900 C.2   109  GLU109      0.2260
    127  O         -9.4590   23.2680   13.5470 O.2   109  GLU109     -0.2867
    128  CB       -11.2410   25.7640   14.7450 C.3   109  GLU109      0.0388
    129  CG       -11.4270   26.4670   16.0960 C.3   109  GLU109      0.1160
    130  CD       -12.8870   26.5700   16.5690 C.2   109  GLU109      0.3649
    131  OE1      -13.8280   26.3460   15.8000 O.co2 109  GLU109     -0.2457
    132  OE2      -13.0980   26.9190   17.7380 O.co2 109  GLU109     -0.2457
    133  N         -8.3150   20.7440   13.9790 N.3   113  PHE113     -0.1241
    134  CA        -9.1620   19.6030   13.6650 C.3   113  PHE113      0.1605
    135  C         -8.5090   18.6730   12.6470 C.2   113  PHE113      0.2264
    136  O         -8.4690   17.4700   12.8480 O.2   113  PHE113     -0.2867
    137  CB       -10.5080   20.0620   13.1250 C.3   113  PHE113      0.0534
    138  CG       -11.5230   20.3920   14.1890 C.ar  113  PHE113     -0.0203
    139  CD1      -11.7980   19.4970   15.2200 C.ar  113  PHE113     -0.0042
    140  CD2      -12.2470   21.5590   14.1270 C.ar  113  PHE113     -0.0042
    141  CE1      -12.7510   19.7860   16.1830 C.ar  113  PHE113     -0.0003
    142  CE2      -13.2020   21.8510   15.0770 C.ar  113  PHE113     -0.0003
    143  CZ       -13.4510   20.9630   16.1030 C.ar  113  PHE113     -0.0000
@<TRIPOS>BOND
     1    86    87    1
     2    89    88    2
     3    88    87    1
     4    87    90    1
     5    66    67    1
     6    69    68    2
     7    67    68    1
     8    67    70    1
     9    68    74   am
    10   113   111   ar
    11   113   114   ar
    12    42    43    1
    13    90    91    1
    14    43    44    1
    15    77    76    2
    16    58    57    1
    17    58    59    1
    18    60    59    2
    19    91    92    1
    20    76    75    1
    21   102   101    2
    22    72    71    2
    23   115   114    1
    24   111   109   ar
    25    95    96    1
    26    74    75    1
    27    70    71    1
    28    59    61   am
    29   114   112   ar
    30    99    96    1
    31    99   100    1
    32    71    73   am
    33    75    78    1
    34   101   100    1
    35   101   103   am
    36    44    45    2
    37    44    46   am
    38    96    97    1
    39    92    94   am
    40    92    93    2
    41   109   108    1
    42   109   110   ar
    43    64    63    2
    44    35    36    2
    45    35    34    1
    46    63    62    1
    47    61    62    1
    48   112   110   ar
    49   104    97   am
    50   104   105    1
    51   108   105    1
    52    46    47    1
    53    78    79    1
    54    34    33    1
    55    34    37    1
    56    38    39    1
    57    38    37    1
    58    97    98    2
    59    62    65    1
    60    41    39   ar
    61   105   106    1
    62   107   106    2
    63    39    40   ar
    64    79    80   ar
    65    79    81   ar
    66   106   116   am
    67    47    48    1
    68    47    50    1
    69    80    82   ar
    70    81    83   ar
    71    51    50    1
    72    51    52    1
    73    48    49    2
    74    55    54    1
    75    82    84   ar
    76    83    84   ar
    77   116   117    1
    78    52    53    1
    79    84    85    1
    80   118   119    2
    81   118   117    1
    82    54    53    2
    83    54    56    1
    84   117   120    1
    85    32    30    1
    86   135   136    2
    87   135   134    1
    88   137   134    1
    89   137   138    1
    90    31    30    1
    91   126   127    2
    92   126   125    1
    93    28    27    2
    94    30    29    1
    95   120   121    1
    96   134   133    1
    97    29    26    1
    98    26    27    1
    99    26    25    1
   100   122   121    2
   101   140   138   ar
   102   140   142   ar
   103   124   125    1
   104   138   139   ar
   105   121   123   am
   106   125   128    1
   107   128   129    1
   108    23    21   ar
   109    23    24   ar
   110   142   143   ar
   111    21    18   ar
   112   139   141   ar
   113    24    22   ar
   114    14    13    2
   115   131   130   ar
   116    18    20   ar
   117    18    16   ar
   118   129   130    1
   119   143   141   ar
   120    22    20   ar
   121    15    16    1
   122    15    12    1
   123    20    19   ar
   124    16    17   ar
   125    13    12    1
   126   130   132   ar
   127    12    11    1
   128    19    17   ar
   129    11     3   am
   130    10     9   ar
   131    10     8   ar
   132     4     3    2
   133     9     7   ar
   134     3     2    1
   135     8     6   ar
   136     7     6   ar
   137     6     5    1
   138     1     2    1
   139     2     5    1
