@<TRIPOS>MOLECULE
tmp/4cxwA00.pdb
 217 205 0 0 0
SMALL
GASTEIGER

@<TRIPOS>ATOM
      1  N         27.3260   -8.2680  -42.7080 N.3    59  ILE59      -0.1245
      2  CA        27.5770   -6.8490  -42.4940 C.3    59  ILE59       0.1561
      3  C         27.6050   -6.2060  -43.8670 C.2    59  ILE59       0.2260
      4  O         28.1760   -6.7720  -44.7890 O.2    59  ILE59      -0.2867
      5  CB        28.9260   -6.5740  -41.7660 C.3    59  ILE59       0.0252
      6  CG1       29.2520   -7.6630  -40.7510 C.3    59  ILE59       0.0019
      7  CG2       28.9170   -5.2530  -41.0260 C.3    59  ILE59       0.0019
      8  CD1       30.6970   -7.6020  -40.2480 C.3    59  ILE59       0.0001
      9  N         33.3020  -14.2040  -38.3190 N.3    66  THR66      -0.1204
     10  CA        33.8250  -13.4180  -37.2070 C.3    66  THR66       0.1979
     11  C         34.9960  -14.0660  -36.4850 C.2    66  THR66       0.2459
     12  O         34.9220  -15.2310  -36.1020 O.2    66  THR66      -0.2732
     13  CB        32.7360  -13.1350  -36.1630 C.3    66  THR66       0.1783
     14  OG1       32.4890  -14.3250  -35.3950 O.3    66  THR66      -0.2211
     15  CG2       31.4610  -12.6480  -36.8410 C.3    66  THR66       0.0376
     16  N         36.0700  -13.2830  -36.2770 N.am   67  PRO67      -0.2728
     17  CA        37.2610  -13.6250  -35.4940 C.3    67  PRO67       0.1401
     18  C         36.9240  -14.2890  -34.1670 C.2    67  PRO67       0.2269
     19  O         37.4640  -15.3310  -33.7900 O.2    67  PRO67      -0.2865
     20  CB        37.8990  -12.2620  -35.2370 C.3    67  PRO67       0.0296
     21  CG        37.5090  -11.4530  -36.4160 C.3    67  PRO67       0.0237
     22  CD        36.1280  -11.8940  -36.7750 C.3    67  PRO67       0.0939
     23  N         31.8380  -17.5880  -30.2130 N.3    70  ARG70      -0.1245
     24  CA        30.7840  -17.1500  -29.3020 C.3    70  ARG70       0.1563
     25  C         29.8520  -18.2590  -28.8510 C.2    70  ARG70       0.2260
     26  O         29.8460  -19.3380  -29.4160 O.2    70  ARG70      -0.2867
     27  CB        29.9450  -16.0480  -29.9570 C.3    70  ARG70       0.0307
     28  CG        30.5730  -14.6750  -29.9210 C.3    70  ARG70       0.0489
     29  CD        29.8100  -13.6790  -30.7760 C.3    70  ARG70       0.2205
     30  NE        30.0820  -12.2970  -30.3700 N.pl3  70  ARG70      -0.0865
     31  CZ        31.0550  -11.5340  -30.8670 C.cat  70  ARG70       0.5346
     32  NH1       31.8720  -12.0120  -31.8020 N.pl3  70  ARG70       0.1354
     33  NH2       31.2090  -10.2870  -30.4200 N.pl3  70  ARG70       0.1354
     34  N         18.7570  -13.8220  -29.2290 N.3    80  TYR80      -0.1241
     35  CA        19.4230  -12.5140  -29.2760 C.3    80  TYR80       0.1605
     36  C         19.9690  -12.3340  -30.6760 C.2    80  TYR80       0.2264
     37  O         20.8180  -13.1040  -31.1060 O.2    80  TYR80      -0.2867
     38  CB        20.5450  -12.4030  -28.2220 C.3    80  TYR80       0.0534
     39  CG        21.3570  -11.1220  -28.3190 C.ar   80  TYR80      -0.0201
     40  CD1       20.8180   -9.9000  -27.9150 C.ar   80  TYR80      -0.0009
     41  CD2       22.6660  -11.1300  -28.8190 C.ar   80  TYR80      -0.0009
     42  CE1       21.5610   -8.7100  -28.0070 C.ar   80  TYR80       0.0417
     43  CE2       23.4130   -9.9440  -28.9210 C.ar   80  TYR80       0.0417
     44  CZ        22.8480   -8.7400  -28.5100 C.ar   80  TYR80       0.1957
     45  OH        23.5560   -7.5640  -28.5930 O.3    80  TYR80      -0.2866
     46  N         21.9090  -10.3130  -33.5320 N.3    82  TYR82      -0.1227
     47  CA        22.7780   -9.2320  -33.9330 C.3    82  TYR82       0.1736
     48  C         23.3390   -9.5410  -35.3130 C.2    82  TYR82       0.2595
     49  O         23.7880  -10.6640  -35.5800 O.2    82  TYR82      -0.2718
     50  CB        23.8900   -9.0250  -32.9060 C.3    82  TYR82       0.0548
     51  CG        25.0010  -10.0220  -33.0400 C.ar   82  TYR82      -0.0200
     52  CD1       24.7720  -11.3730  -32.8210 C.ar   82  TYR82      -0.0009
     53  CD2       26.2790   -9.6170  -33.4160 C.ar   82  TYR82      -0.0009
     54  CE1       25.7900  -12.2990  -32.9610 C.ar   82  TYR82       0.0417
     55  CE2       27.3050  -10.5300  -33.5650 C.ar   82  TYR82       0.0417
     56  CZ        27.0600  -11.8740  -33.3270 C.ar   82  TYR82       0.1957
     57  OH        28.0820  -12.7980  -33.4640 O.3    82  TYR82      -0.2866
     58  N         23.2850   -8.5460  -36.1920 N.am   83  LEU83      -0.1980
     59  CA        23.8350   -8.6730  -37.5410 C.3    83  LEU83       0.1596
     60  C         23.0800   -9.7110  -38.3530 C.2    83  LEU83       0.2287
     61  O         23.6930  -10.5570  -38.9920 O.2    83  LEU83      -0.2864
     62  CB        25.3400   -9.0340  -37.5160 C.3    83  LEU83       0.0297
     63  CG        26.3840   -8.1850  -36.7590 C.3    83  LEU83       0.0022
     64  CD1       27.7130   -8.9100  -36.6980 C.3    83  LEU83       0.0001
     65  CD2       26.6010   -6.8000  -37.3670 C.3    83  LEU83       0.0001
     66  N         26.3290  -13.3080  -23.7470 N.3   146  LEU146     -0.1245
     67  CA        26.9960  -13.7500  -24.9360 C.3   146  LEU146      0.1561
     68  C         28.4390  -13.9110  -24.5100 C.2   146  LEU146      0.2260
     69  O         29.0830  -12.9420  -24.1040 O.2   146  LEU146     -0.2867
     70  CB        26.8230  -12.7490  -26.0720 C.3   146  LEU146      0.0270
     71  CG        27.4670  -13.0090  -27.4320 C.3   146  LEU146      0.0019
     72  CD1       26.9960  -14.3310  -28.0100 C.3   146  LEU146      0.0001
     73  CD2       27.1390  -11.8640  -28.3760 C.3   146  LEU146      0.0001
     74  N         32.3120  -14.5640  -25.3460 N.3   148  ASN148     -0.1240
     75  CA        33.1960  -14.3640  -26.4910 C.3   148  ASN148      0.1653
     76  C         34.5770  -14.9400  -26.1950 C.2   148  ASN148      0.2266
     77  O         35.0890  -14.7620  -25.0900 O.2   148  ASN148     -0.2867
     78  CB        33.2960  -12.8780  -26.8440 C.3   148  ASN148      0.1155
     79  CG        31.9510  -12.1690  -26.7940 C.2   148  ASN148      0.2627
     80  OD1       31.1900  -12.1490  -27.7720 O.2   148  ASN148     -0.2716
     81  ND2       31.6470  -11.5840  -25.6400 N.am  148  ASN148     -0.0877
     82  N         37.3290   -6.7680  -31.8030 N.3   168  VAL168     -0.1231
     83  CA        36.0210   -6.2970  -32.2500 C.3   168  VAL168      0.1692
     84  C         36.1040   -4.8180  -32.6980 C.2   168  VAL168      0.2592
     85  O         36.6070   -3.9670  -31.9600 O.2   168  VAL168     -0.2718
     86  CB        34.9770   -6.4610  -31.1200 C.3   168  VAL168      0.0266
     87  CG1       33.5910   -5.9780  -31.5630 C.3   168  VAL168      0.0020
     88  CG2       34.9270   -7.9310  -30.6710 C.3   168  VAL168      0.0020
     89  N         35.6060   -4.5150  -33.9000 N.am  169  SER169     -0.1952
     90  CA        35.6670   -3.1500  -34.4220 C.3   169  SER169      0.1924
     91  C         34.6130   -2.2210  -33.7930 C.2   169  SER169      0.2314
     92  O         33.6020   -2.6990  -33.2570 O.2   169  SER169     -0.2863
     93  CB        35.5090   -3.1680  -35.9420 C.3   169  SER169      0.2116
     94  OG        35.9120   -1.9210  -36.4890 O.3   169  SER169     -0.2180
     95  N         31.6320   -0.3560  -32.7540 N.3   171  HIS171     -0.1226
     96  CA        30.2300   -0.6930  -32.9660 C.3   171  HIS171      0.1752
     97  C         29.3420   -0.2090  -31.8200 C.2   171  HIS171      0.2596
     98  O         29.8410    0.3040  -30.8140 O.2   171  HIS171     -0.2718
     99  CB        30.0640   -2.2120  -33.1340 C.3   171  HIS171      0.0759
    100  CG        30.1930   -2.9840  -31.8540 C.ar  171  HIS171      0.0818
    101  ND1       31.3860   -3.1160  -31.1780 N.ar  171  HIS171     -0.2268
    102  CD2       29.2710   -3.6480  -31.1190 C.ar  171  HIS171      0.1154
    103  CE1       31.1930   -3.8280  -30.0820 C.ar  171  HIS171      0.1986
    104  NE2       29.9180   -4.1620  -30.0240 N.ar  171  HIS171     -0.2212
    105  N         28.0250   -0.3800  -31.9960 N.am  172  HIS172     -0.1961
    106  CA        27.0110   -0.1540  -30.9560 C.3   172  HIS172      0.1787
    107  C         26.3930   -1.4770  -30.6200 C.2   172  HIS172      0.2620
    108  O         26.3010   -2.3130  -31.5020 O.2   172  HIS172     -0.2715
    109  CB        25.9230    0.7880  -31.4430 C.3   172  HIS172      0.0785
    110  CG        26.3010    2.2310  -31.3970 C.ar  172  HIS172      0.0821
    111  ND1       26.5670    2.8920  -30.2160 N.ar  172  HIS172     -0.2267
    112  CD2       26.4210    3.1520  -32.3840 C.ar  172  HIS172      0.1154
    113  CE1       26.8520    4.1530  -30.4800 C.ar  172  HIS172      0.1986
    114  NE2       26.7660    4.3390  -31.7880 N.ar  172  HIS172     -0.2212
    115  N         25.9260   -1.6940  -29.3950 N.am  173  ASP173     -0.1957
    116  CA        25.2680   -2.9870  -29.1340 C.3   173  ASP173      0.1840
    117  C         23.8090   -3.0390  -29.6520 C.2   173  ASP173      0.2621
    118  O         22.9820   -2.1810  -29.3300 O.2   173  ASP173     -0.2715
    119  CB        25.3040   -3.3260  -27.6440 C.3   173  ASP173      0.1450
    120  CG        26.6060   -3.9840  -27.2300 C.2   173  ASP173      0.3671
    121  OD1       27.5660   -3.9000  -28.0110 O.co2 173  ASP173     -0.2456
    122  OD2       26.6780   -4.5630  -26.1230 O.co2 173  ASP173     -0.2456
    123  N         23.5130   -4.0590  -30.4550 N.am  174  GLU174     -0.1977
    124  CA        22.1880   -4.2650  -31.0410 C.3   174  GLU174      0.1602
    125  C         21.1980   -5.0210  -30.1450 C.2   174  GLU174      0.2287
    126  O         21.5930   -5.7630  -29.2330 O.2   174  GLU174     -0.2864
    127  CB        22.3230   -5.0220  -32.3570 C.3   174  GLU174      0.0415
    128  CG        23.0150   -4.2180  -33.4370 C.3   174  GLU174      0.1163
    129  CD        23.2040   -5.0130  -34.7180 C.2   174  GLU174      0.3649
    130  OE1       22.8130   -6.2150  -34.7510 O.co2 174  GLU174     -0.2457
    131  OE2       23.7570   -4.4250  -35.6840 O.co2 174  GLU174     -0.2457
    132  N         30.1240   -6.5040  -18.4560 N.3   184  VAL184     -0.1245
    133  CA        31.1010   -7.4590  -18.9760 C.3   184  VAL184      0.1561
    134  C         32.0350   -8.0420  -17.8970 C.2   184  VAL184      0.2260
    135  O         32.6540   -7.3050  -17.1510 O.2   184  VAL184     -0.2867
    136  CB        31.9530   -6.8140  -20.0820 C.3   184  VAL184      0.0252
    137  CG1       32.8910   -7.8410  -20.6780 C.3   184  VAL184      0.0019
    138  CG2       31.0620   -6.2420  -21.1670 C.3   184  VAL184      0.0019
    139  N         39.1100   -2.4260  -23.4730 N.3   201  VAL201     -0.1245
    140  CA        37.8830   -2.0400  -24.1420 C.3   201  VAL201      0.1561
    141  C         38.0220   -0.5610  -24.4740 C.2   201  VAL201      0.2260
    142  O         38.3030    0.2420  -23.5870 O.2   201  VAL201     -0.2867
    143  CB        36.6360   -2.3340  -23.2670 C.3   201  VAL201      0.0252
    144  CG1       36.7820   -1.7540  -21.8350 C.3   201  VAL201      0.0019
    145  CG2       35.3770   -1.8630  -23.9680 C.3   201  VAL201      0.0019
    146  N         41.8280   -4.0400  -19.2740 N.3   218  LEU218     -0.1245
    147  CA        41.0710   -5.1120  -18.6500 C.3   218  LEU218      0.1561
    148  C         42.0370   -6.2470  -18.3230 C.2   218  LEU218      0.2260
    149  O         42.6660   -6.8380  -19.2190 O.2   218  LEU218     -0.2867
    150  CB        39.9580   -5.5990  -19.5810 C.3   218  LEU218      0.0270
    151  CG        38.9400   -4.5370  -19.9820 C.3   218  LEU218      0.0019
    152  CD1       38.1330   -5.0000  -21.1780 C.3   218  LEU218      0.0001
    153  CD2       38.0550   -4.2270  -18.7880 C.3   218  LEU218      0.0001
    154  N         33.6010   -4.4050  -16.4570 N.3   224  TYR224     -0.1241
    155  CA        33.1420   -3.0590  -16.6970 C.3   224  TYR224      0.1605
    156  C         31.6340   -3.0350  -16.9160 C.2   224  TYR224      0.2264
    157  O         30.9810   -4.0880  -16.9370 O.2   224  TYR224     -0.2867
    158  CB        33.8890   -2.4040  -17.8600 C.3   224  TYR224      0.0534
    159  CG        33.7050   -2.9640  -19.2550 C.ar  224  TYR224     -0.0201
    160  CD1       34.5560   -3.9490  -19.7440 C.ar  224  TYR224     -0.0009
    161  CD2       32.7410   -2.4390  -20.1180 C.ar  224  TYR224     -0.0009
    162  CE1       34.4280   -4.4360  -21.0370 C.ar  224  TYR224      0.0417
    163  CE2       32.5950   -2.9260  -21.4110 C.ar  224  TYR224      0.0417
    164  CZ        33.4460   -3.9310  -21.8650 C.ar  224  TYR224      0.1957
    165  OH        33.3180   -4.4270  -23.1510 O.3   224  TYR224     -0.2866
    166  N         31.7450    1.6180  -28.9110 N.3   236  HIS236     -0.1241
    167  CA        32.8240    0.9120  -28.2220 C.3   236  HIS236      0.1621
    168  C         33.4920   -0.1750  -29.0870 C.2   236  HIS236      0.2264
    169  O         33.0610   -0.4710  -30.2160 O.2   236  HIS236     -0.2867
    170  CB        32.3270    0.3290  -26.8890 C.3   236  HIS236      0.0745
    171  CG        31.4430   -0.8670  -27.0220 C.ar  236  HIS236      0.0817
    172  ND1       30.0930   -0.7680  -27.2760 N.ar  236  HIS236     -0.2268
    173  CD2       31.7020   -2.1890  -26.8680 C.ar  236  HIS236      0.1154
    174  CE1       29.5620   -1.9760  -27.3000 C.ar  236  HIS236      0.1986
    175  NE2       30.5170   -2.8580  -27.0560 N.ar  236  HIS236     -0.2212
    176  N         36.9430   -3.5070  -28.8740 N.3   238  VAL238     -0.1245
    177  CA        37.8160   -4.3600  -28.0740 C.3   238  VAL238      0.1561
    178  C         39.2470   -4.3710  -28.6250 C.2   238  VAL238      0.2260
    179  O         39.4950   -4.6190  -29.8050 O.2   238  VAL238     -0.2867
    180  CB        37.2940   -5.8070  -28.0060 C.3   238  VAL238      0.0252
    181  CG1       38.1020   -6.5720  -26.9870 C.3   238  VAL238      0.0019
    182  CG2       35.8190   -5.8370  -27.6540 C.3   238  VAL238      0.0019
    183  N         41.7150  -14.6560  -24.5210 N.3   245  ARG245     -0.1245
    184  CA        40.8110  -13.9270  -23.6560 C.3   245  ARG245      0.1563
    185  C         39.3720  -14.3990  -23.8110 C.2   245  ARG245      0.2260
    186  O         38.8710  -14.5400  -24.9360 O.2   245  ARG245     -0.2867
    187  CB        40.9060  -12.4390  -23.9360 C.3   245  ARG245      0.0307
    188  CG        40.1490  -11.6210  -22.9560 C.3   245  ARG245      0.0489
    189  CD        39.1660  -10.7980  -23.6990 C.3   245  ARG245      0.2205
    190  NE        38.3660  -10.0050  -22.7900 N.pl3 245  ARG245     -0.0865
    191  CZ        37.4660   -9.1150  -23.1880 C.cat 245  ARG245      0.5346
    192  NH1       37.2720   -8.9120  -24.4840 N.pl3 245  ARG245      0.1354
    193  NH2       36.7730   -8.4200  -22.2900 N.pl3 245  ARG245      0.1354
    194  N         35.3190  -13.5770  -22.4080 N.3   247  SER247     -0.1217
    195  CA        34.4790  -12.5290  -21.8450 C.3   247  SER247      0.1889
    196  C         33.0110  -12.9240  -21.8250 C.2   247  SER247      0.2288
    197  O         32.4700  -13.4470  -22.8080 O.2   247  SER247     -0.2866
    198  CB        34.6560  -11.2280  -22.6210 C.3   247  SER247      0.2089
    199  OG        33.9540  -11.2680  -23.8510 O.3   247  SER247     -0.2183
    200  N         29.5220  -11.1980  -21.5490 N.3   249  THR249     -0.1218
    201  CA        28.8470   -9.9120  -21.6590 C.3   249  THR249      0.1862
    202  C         27.3230  -10.0620  -21.4580 C.2   249  THR249      0.2287
    203  O         26.6130  -10.5770  -22.3410 O.2   249  THR249     -0.2866
    204  CB        29.1650   -9.2640  -23.0190 C.3   249  THR249      0.1770
    205  OG1       28.6530  -10.0810  -24.0770 O.3   249  THR249     -0.2211
    206  CG2       30.6650   -9.1490  -23.2050 C.3   249  THR249      0.0375
    207  N         23.4420   -9.0860  -20.9850 N.3   251  ARG251     -0.1245
    208  CA        22.6130   -8.1480  -21.7240 C.3   251  ARG251      0.1563
    209  C         21.1450   -8.2590  -21.3360 C.2   251  ARG251      0.2260
    210  O         20.7030   -9.3310  -20.9200 O.2   251  ARG251     -0.2867
    211  CB        22.7470   -8.4000  -23.2230 C.3   251  ARG251      0.0307
    212  CG        24.1620   -8.4130  -23.7210 C.3   251  ARG251      0.0489
    213  CD        24.2390   -8.6980  -25.2210 C.3   251  ARG251      0.2205
    214  NE        25.2970   -7.8890  -25.8280 N.pl3 251  ARG251     -0.0865
    215  CZ        26.5860   -8.1820  -25.7470 C.cat 251  ARG251      0.5346
    216  NH1       26.9610   -9.2820  -25.1200 N.pl3 251  ARG251      0.1354
    217  NH2       27.4920   -7.3930  -26.3020 N.pl3 251  ARG251      0.1354
@<TRIPOS>BOND
     1     4     3    2
     2     3     2    1
     3     1     2    1
     4     2     5    1
     5     5     7    1
     6     5     6    1
     7     6     8    1
     8    61    60    2
     9    60    59    1
    10     9    10    1
    11    59    62    1
    12    59    58    1
    13    62    63    1
    14    65    63    1
    15    10    11    1
    16    10    13    1
    17    15    13    1
    18    22    21    1
    19    22    16    1
    20    63    64    1
    21    94    93    1
    22    11    16   am
    23    11    12    2
    24    21    20    1
    25    16    17    1
    26    58    48   am
    27    13    14    1
    28    93    90    1
    29   131   129   ar
    30    49    48    2
    31    17    20    1
    32    17    18    1
    33    48    47    1
    34   130   129   ar
    35   129   128    1
    36    90    89    1
    37    90    91    1
    38    18    19    2
    39    47    46    1
    40    47    50    1
    41    89    84   am
    42    91    92    2
    43    55    53   ar
    44    55    56   ar
    45    57    56    1
    46   128   127    1
    47    53    51   ar
    48    56    54   ar
    49    99    96    1
    50    99   100    1
    51    51    50    1
    52    51    52   ar
    53    96    95    1
    54    96    97    1
    55    54    52   ar
    56    84    83    1
    57    84    85    2
    58   112   114   ar
    59   112   110   ar
    60   127   124    1
    61    83    82    1
    62    83    86    1
    63   105    97   am
    64   105   106    1
    65   100   101   ar
    66   100   102   ar
    67    97    98    2
    68    32    31    1
    69   114   113   ar
    70    87    86    1
    71   108   107    2
    72   109   110    1
    73   109   106    1
    74   110   111   ar
    75   101   103   ar
    76    86    88    1
    77   102   104   ar
    78    37    36    2
    79   124   123    1
    80   124   125    1
    81   106   107    1
    82    31    33    1
    83    31    30    2
    84    29    30    1
    85    29    28    1
    86    36    35    1
    87   107   115   am
    88   113   111   ar
    89   123   117   am
    90   169   168    2
    91    23    24    1
    92   125   126    2
    93   103   104   ar
    94    27    28    1
    95    27    24    1
    96   179   178    2
    97   117   118    2
    98   117   116    1
    99    26    25    2
   100   115   116    1
   101    24    25    1
   102    35    34    1
   103    35    38    1
   104   116   119    1
   105   168   167    1
   106    43    41   ar
   107    43    44   ar
   108   166   167    1
   109   176   177    1
   110    41    39   ar
   111   178   177    1
   112    45    44    1
   113    44    42   ar
   114    73    71    1
   115    39    38    1
   116    39    40   ar
   117   167   170    1
   118   177   180    1
   119   121   120   ar
   120    72    71    1
   121    42    40   ar
   122   180   182    1
   123   180   181    1
   124    80    79    2
   125   119   120    1
   126    71    70    1
   127   174   172   ar
   128   174   175   ar
   129   172   171   ar
   130   120   122   ar
   131   175   173   ar
   132   171   170    1
   133   171   173   ar
   134    78    79    1
   135    78    75    1
   136    79    81   am
   137    75    76    1
   138    75    74    1
   139   217   215    1
   140    76    77    2
   141    70    67    1
   142   214   215    2
   143   214   213    1
   144   215   216    1
   145   213   212    1
   146    67    68    1
   147    67    66    1
   148   186   185    2
   149   183   184    1
   150    68    69    2
   151   192   191    1
   152   141   140    1
   153   141   142    2
   154   140   139    1
   155   140   143    1
   156   205   204    1
   157   145   143    1
   158   187   184    1
   159   187   188    1
   160   199   198    1
   161   185   184    1
   162   212   211    1
   163   189   188    1
   164   189   190    1
   165   143   144    1
   166   211   208    1
   167   206   204    1
   168   191   190    2
   169   191   193    1
   170   165   164    1
   171   204   201    1
   172   197   196    2
   173   198   195    1
   174   194   195    1
   175   203   202    2
   176   164   163   ar
   177   164   162   ar
   178   195   196    1
   179   208   209    1
   180   208   207    1
   181   201   200    1
   182   201   202    1
   183   163   161   ar
   184   209   210    2
   185   152   151    1
   186   138   136    1
   187   162   160   ar
   188   137   136    1
   189   161   159   ar
   190   136   133    1
   191   151   150    1
   192   151   153    1
   193   160   159   ar
   194   150   147    1
   195   146   147    1
   196   159   158    1
   197   149   148    2
   198   133   132    1
   199   133   134    1
   200   147   148    1
   201   134   135    2
   202   158   155    1
   203   157   156    2
   204   156   155    1
   205   155   154    1
