@<TRIPOS>MOLECULE
tmp/4cxyA00.pdb
 189 178 0 0 0
SMALL
GASTEIGER

@<TRIPOS>ATOM
      1  N        -31.0180  -18.8530   -0.0480 N.3    70  ARG70      -0.1245
      2  CA       -30.0520  -18.1220    0.7520 C.3    70  ARG70       0.1563
      3  C        -30.6310  -16.8410    1.3110 C.2    70  ARG70       0.2260
      4  O        -31.5560  -16.2790    0.7490 O.2    70  ARG70      -0.2867
      5  CB       -28.8080  -17.7780   -0.0870 C.3    70  ARG70       0.0307
      6  CG       -27.5630  -18.5330    0.2650 C.3    70  ARG70       0.0489
      7  CD       -27.5350  -19.8540   -0.4610 C.3    70  ARG70       0.2205
      8  NE       -26.3800  -20.6770   -0.1110 N.pl3  70  ARG70      -0.0865
      9  CZ       -25.8720  -21.5960   -0.9220 C.cat  70  ARG70       0.5346
     10  NH1      -26.4100  -21.7690   -2.1240 N.pl3  70  ARG70       0.1354
     11  NH2      -24.8240  -22.3250   -0.5490 N.pl3  70  ARG70       0.1354
     12  N        -21.2610   -9.3540    1.1600 N.3    80  TYR80      -0.1241
     13  CA       -20.4410  -10.5540    1.0740 C.3    80  TYR80       0.1605
     14  C        -20.5670  -11.1310   -0.3250 C.2    80  TYR80       0.2264
     15  O        -21.6600  -11.4260   -0.7790 O.2    80  TYR80      -0.2867
     16  CB       -20.8710  -11.5730    2.1250 C.3    80  TYR80       0.0534
     17  CG       -20.1690  -12.9120    2.0090 C.ar   80  TYR80      -0.0201
     18  CD1      -18.8330  -13.0470    2.3610 C.ar   80  TYR80      -0.0009
     19  CD2      -20.8440  -14.0450    1.5380 C.ar   80  TYR80      -0.0009
     20  CE1      -18.1790  -14.2600    2.2510 C.ar   80  TYR80       0.0417
     21  CE2      -20.1990  -15.2610    1.4310 C.ar   80  TYR80       0.0417
     22  CZ       -18.8650  -15.3630    1.7920 C.ar   80  TYR80       0.1957
     23  OH       -18.2040  -16.5630    1.6900 O.3    80  TYR80      -0.2866
     24  N        -20.2560  -13.8210   -3.2890 N.3    82  TYR82      -0.1227
     25  CA       -20.5290  -15.2360   -3.2890 C.3    82  TYR82       0.1736
     26  C        -20.7090  -15.6070   -4.7430 C.2    82  TYR82       0.2595
     27  O        -21.7630  -15.3180   -5.3220 O.2    82  TYR82      -0.2718
     28  CB       -21.7970  -15.5100   -2.4660 C.3    82  TYR82       0.0548
     29  CG       -22.2780  -16.9350   -2.4730 C.ar   82  TYR82      -0.0200
     30  CD1      -21.7780  -17.8530   -1.5520 C.ar   82  TYR82      -0.0009
     31  CD2      -23.2470  -17.3610   -3.3780 C.ar   82  TYR82      -0.0009
     32  CE1      -22.2040  -19.1580   -1.5410 C.ar   82  TYR82       0.0417
     33  CE2      -23.6760  -18.6690   -3.3830 C.ar   82  TYR82       0.0417
     34  CZ       -23.1450  -19.5690   -2.4570 C.ar   82  TYR82       0.1957
     35  OH       -23.5450  -20.8890   -2.4330 O.3    82  TYR82      -0.2866
     36  N        -19.6790  -16.1880   -5.3500 N.am   83  LEU83      -0.1980
     37  CA       -19.7580  -16.6020   -6.7570 C.3    83  LEU83       0.1596
     38  C        -20.1740  -15.4350   -7.6530 C.2    83  LEU83       0.2287
     39  O        -21.1950  -15.5120   -8.3420 O.2    83  LEU83      -0.2864
     40  CB       -20.7450  -17.7720   -6.9340 C.3    83  LEU83       0.0297
     41  CG       -20.5430  -19.0220   -6.0570 C.3    83  LEU83       0.0022
     42  CD1      -21.5670  -20.1140   -6.3510 C.3    83  LEU83       0.0001
     43  CD2      -19.1220  -19.5730   -6.1810 C.3    83  LEU83       0.0001
     44  N        -24.6650  -16.3420    6.7300 N.3   149  LEU149     -0.1245
     45  CA       -25.3960  -16.6650    5.5250 C.3   149  LEU149      0.1561
     46  C        -26.2830  -17.8550    5.8700 C.2   149  LEU149      0.2260
     47  O        -25.8100  -18.8400    6.4380 O.2   149  LEU149     -0.2867
     48  CB       -24.4370  -16.9630    4.3650 C.3   149  LEU149      0.0270
     49  CG       -25.0260  -17.3410    3.0030 C.3   149  LEU149      0.0019
     50  CD1      -26.0830  -16.3590    2.6180 C.3   149  LEU149      0.0001
     51  CD2      -23.9850  -17.3640    1.9420 C.3   149  LEU149      0.0001
     52  N        -28.9530  -20.9460    4.9020 N.3   151  ASN151     -0.1240
     53  CA       -29.1780  -21.8530    3.7810 C.3   151  ASN151      0.1653
     54  C        -30.3090  -22.7920    4.0470 C.2   151  ASN151      0.2266
     55  O        -30.4160  -23.3500    5.1310 O.2   151  ASN151     -0.2867
     56  CB       -27.9290  -22.6580    3.4680 C.3   151  ASN151      0.1155
     57  CG       -26.7190  -21.7950    3.3750 C.2   151  ASN151      0.2627
     58  OD1      -26.4130  -21.2420    2.3140 O.2   151  ASN151     -0.2716
     59  ND2      -26.0270  -21.6350    4.5020 N.am  151  ASN151     -0.0877
     60  N        -24.3520  -29.3880   -1.7990 N.3   174  VAL174     -0.1245
     61  CA       -23.3140  -28.4040   -2.1080 C.3   174  VAL174      0.1561
     62  C        -22.0110  -29.1360   -2.4360 C.2   174  VAL174      0.2260
     63  O        -21.4870  -29.8520   -1.5950 O.2   174  VAL174     -0.2867
     64  CB       -23.0820  -27.4300   -0.9180 C.3   174  VAL174      0.0252
     65  CG1      -22.0380  -26.3450   -1.2670 C.3   174  VAL174      0.0019
     66  CG2      -24.3890  -26.7910   -0.4900 C.3   174  VAL174      0.0019
     67  N        -15.9620  -27.2430   -2.1330 N.3   177  HIS177     -0.1226
     68  CA       -15.5550  -25.8710   -2.3630 C.3   177  HIS177      0.1752
     69  C        -14.6950  -25.3590   -1.2150 C.2   177  HIS177      0.2596
     70  O        -14.7320  -25.9090   -0.1040 O.2   177  HIS177     -0.2718
     71  CB       -16.7790  -24.9750   -2.5120 C.3   177  HIS177      0.0759
     72  CG       -17.5750  -24.8450   -1.2530 C.ar  177  HIS177      0.0818
     73  ND1      -18.4440  -25.8200   -0.8150 N.ar  177  HIS177     -0.2268
     74  CD2      -17.5940  -23.8780   -0.3050 C.ar  177  HIS177      0.1154
     75  CE1      -18.9750  -25.4560    0.3360 C.ar  177  HIS177      0.1986
     76  NE2      -18.4790  -24.2770    0.6660 N.ar  177  HIS177     -0.2212
     77  N        -13.9300  -24.2980   -1.4780 N.am  178  HIS178     -0.1961
     78  CA       -13.4500  -23.4210   -0.3990 C.3   178  HIS178      0.1787
     79  C        -14.4570  -22.2860   -0.2680 C.2   178  HIS178      0.2620
     80  O        -14.8680  -21.7400   -1.2880 O.2   178  HIS178     -0.2715
     81  CB       -12.0540  -22.8570   -0.6990 C.3   178  HIS178      0.0785
     82  CG       -10.9970  -23.8940   -0.9370 C.ar  178  HIS178      0.0821
     83  ND1      -10.4050  -24.6030    0.0860 N.ar  178  HIS178     -0.2267
     84  CD2      -10.4070  -24.3210   -2.0820 C.ar  178  HIS178      0.1154
     85  CE1       -9.5170  -25.4430   -0.4210 C.ar  178  HIS178      0.1986
     86  NE2       -9.5050  -25.2990   -1.7350 N.ar  178  HIS178     -0.2212
     87  N        -14.8810  -21.9280    0.9470 N.am  179  ASP179     -0.1957
     88  CA       -15.6040  -20.6460    1.1290 C.3   179  ASP179      0.1840
     89  C        -14.7120  -19.4680    0.7130 C.2   179  ASP179      0.2621
     90  O        -13.6320  -19.3140    1.2440 O.2   179  ASP179     -0.2715
     91  CB       -16.0210  -20.3970    2.5780 C.3   179  ASP179      0.1450
     92  CG       -16.9540  -21.4260    3.1180 C.2   179  ASP179      0.3671
     93  OD1      -17.3570  -22.3410    2.3770 O.co2 179  ASP179     -0.2456
     94  OD2      -17.2750  -21.3220    4.3170 O.co2 179  ASP179     -0.2456
     95  N        -15.1810  -18.6410   -0.2110 N.am  180  GLU180     -0.1977
     96  CA       -14.4840  -17.4460   -0.6810 C.3   180  GLU180      0.1602
     97  C        -14.6390  -16.1900    0.2030 C.2   180  GLU180      0.2287
     98  O        -15.4690  -16.1620    1.1260 O.2   180  GLU180     -0.2864
     99  CB       -14.9670  -17.1160   -2.0990 C.3   180  GLU180      0.0415
    100  CG       -14.7000  -18.2370   -3.0920 C.3   180  GLU180      0.1163
    101  CD       -15.3210  -18.0090   -4.4670 C.2   180  GLU180      0.3649
    102  OE1      -16.4700  -17.5150   -4.5470 O.co2 180  GLU180     -0.2457
    103  OE2      -14.6540  -18.3510   -5.4760 O.co2 180  GLU180     -0.2457
    104  N        -20.7540  -22.9080   11.8950 N.3   190  VAL190     -0.1245
    105  CA       -22.0250  -23.2840   11.2790 C.3   190  VAL190      0.1561
    106  C        -22.9830  -23.8810   12.2740 C.2   190  VAL190      0.2260
    107  O        -22.6240  -24.7810   13.0080 O.2   190  VAL190     -0.2867
    108  CB       -21.8450  -24.3040   10.1560 C.3   190  VAL190      0.0252
    109  CG1      -23.1950  -24.7170    9.5950 C.3   190  VAL190      0.0019
    110  CG2      -20.9560  -23.7540    9.0600 C.3   190  VAL190      0.0019
    111  N        -21.6560  -32.8380    6.8030 N.3   207  VAL207     -0.1245
    112  CA       -20.6440  -32.0250    6.1410 C.3   207  VAL207      0.1561
    113  C        -19.4650  -32.9470    5.8360 C.2   207  VAL207      0.2260
    114  O        -19.0700  -33.7600    6.6800 O.2   207  VAL207     -0.2867
    115  CB       -20.1950  -30.8090    6.9950 C.3   207  VAL207      0.0252
    116  CG1      -19.7070  -31.2280    8.3840 C.3   207  VAL207      0.0019
    117  CG2      -19.1400  -30.0270    6.2710 C.3   207  VAL207      0.0019
    118  N        -24.5120  -34.4670   11.0620 N.3   224  LEU224     -0.1245
    119  CA       -25.0670  -33.2980   11.7230 C.3   224  LEU224      0.1561
    120  C        -26.5110  -33.5770   12.0740 C.2   224  LEU224      0.2260
    121  O        -27.3220  -33.8930   11.2030 O.2   224  LEU224     -0.2867
    122  CB       -24.9680  -32.0640   10.8220 C.3   224  LEU224      0.0270
    123  CG       -23.5370  -31.6660   10.4710 C.3   224  LEU224      0.0019
    124  CD1      -23.4780  -30.6820    9.3070 C.3   224  LEU224      0.0001
    125  CD2      -22.8480  -31.0940   11.7060 C.3   224  LEU224      0.0001
    126  N        -20.5110  -27.0410   13.7280 N.3   230  TYR230     -0.1241
    127  CA       -19.0980  -27.2520   13.5110 C.3   230  TYR230      0.1605
    128  C        -18.3680  -25.9210   13.3260 C.2   230  TYR230      0.2264
    129  O        -18.9890  -24.8420   13.3380 O.2   230  TYR230     -0.2867
    130  CB       -18.8440  -28.2080   12.3430 C.3   230  TYR230      0.0534
    131  CG       -19.2780  -27.7960   10.9510 C.ar  230  TYR230     -0.0201
    132  CD1      -20.5920  -27.9470   10.5480 C.ar  230  TYR230     -0.0009
    133  CD2      -18.3540  -27.3300   10.0140 C.ar  230  TYR230     -0.0009
    134  CE1      -20.9960  -27.6170    9.2670 C.ar  230  TYR230      0.0417
    135  CE2      -18.7530  -26.9900    8.7250 C.ar  230  TYR230      0.0417
    136  CZ       -20.0890  -27.1330    8.3640 C.ar  230  TYR230      0.1957
    137  OH       -20.5300  -26.8180    7.0980 O.3   230  TYR230     -0.2866
    138  N        -14.5560  -28.4840    1.6800 N.3   242  HIS242     -0.1241
    139  CA       -15.7200  -29.1300    2.2800 C.3   242  HIS242      0.1621
    140  C        -16.9190  -29.1530    1.3330 C.2   242  HIS242      0.2264
    141  O        -16.9780  -28.4060    0.3440 O.2   242  HIS242     -0.2867
    142  CB       -16.1090  -28.4510    3.5820 C.3   242  HIS242      0.0745
    143  CG       -16.4510  -27.0080    3.4200 C.ar  242  HIS242      0.0817
    144  ND1      -15.5150  -26.0630    3.0550 N.ar  242  HIS242     -0.2268
    145  CD2      -17.6240  -26.3470    3.5640 C.ar  242  HIS242      0.1154
    146  CE1      -16.0940  -24.8790    2.9930 C.ar  242  HIS242      0.1986
    147  NE2      -17.3740  -25.0220    3.2980 N.ar  242  HIS242     -0.2212
    148  N        -21.4680  -30.2940    1.4250 N.3   244  VAL244     -0.1245
    149  CA       -22.6250  -30.7280    2.2070 C.3   244  VAL244      0.1561
    150  C        -23.2510  -31.9790    1.5830 C.2   244  VAL244      0.2260
    151  O        -23.5560  -32.0080    0.3920 O.2   244  VAL244     -0.2867
    152  CB       -23.6900  -29.6420    2.3140 C.3   244  VAL244      0.0252
    153  CG1      -24.8090  -30.1190    3.2110 C.3   244  VAL244      0.0019
    154  CG2      -23.0810  -28.3470    2.8420 C.3   244  VAL244      0.0019
    155  N        -33.5490  -29.0270    5.8290 N.3   251  ARG251     -0.1245
    156  CA       -32.4890  -28.6230    6.7410 C.3   251  ARG251      0.1563
    157  C        -32.1150  -27.1640    6.5300 C.2   251  ARG251      0.2260
    158  O        -32.0370  -26.7000    5.3950 O.2   251  ARG251     -0.2867
    159  CB       -31.2630  -29.5220    6.5610 C.3   251  ARG251      0.0307
    160  CG       -30.1010  -29.1760    7.4530 C.3   251  ARG251      0.0489
    161  CD       -28.9150  -28.7180    6.6390 C.3   251  ARG251      0.2205
    162  NE       -27.7850  -28.4700    7.5200 N.pl3 251  ARG251     -0.0865
    163  CZ       -26.5990  -28.0200    7.1310 C.cat 251  ARG251      0.5346
    164  NH1      -26.3620  -27.7500    5.8610 N.pl3 251  ARG251      0.1354
    165  NH2      -25.6510  -27.8450    8.0270 N.pl3 251  ARG251      0.1354
    166  N        -29.1700  -23.9950    7.7390 N.3   253  SER253     -0.1217
    167  CA       -27.8710  -23.7350    8.3640 C.3   253  SER253      0.1889
    168  C        -27.4810  -22.2570    8.3740 C.2   253  SER253      0.2288
    169  O        -27.5570  -21.5680    7.3640 O.2   253  SER253     -0.2866
    170  CB       -26.7650  -24.5600    7.6950 C.3   253  SER253      0.2089
    171  OG       -26.4550  -24.0880    6.4020 O.3   253  SER253     -0.2183
    172  N        -24.3760  -20.1000    8.6070 N.3   255  THR255     -0.1218
    173  CA       -22.9190  -20.1260    8.5240 C.3   255  THR255      0.1862
    174  C        -22.2470  -18.7460    8.7280 C.2   255  THR255      0.2287
    175  O        -22.1050  -17.9470    7.8070 O.2   255  THR255     -0.2866
    176  CB       -22.4800  -20.7150    7.1900 C.3   255  THR255      0.1770
    177  OG1      -22.8570  -19.8310    6.1360 O.3   255  THR255     -0.2211
    178  CG2      -23.1560  -22.0370    6.9510 C.3   255  THR255      0.0375
    179  N        -19.4480  -15.9510    9.3140 N.3   257  ARG257     -0.1245
    180  CA       -18.1730  -15.7420    8.6470 C.3   257  ARG257      0.1563
    181  C        -17.6140  -14.3690    8.9980 C.2   257  ARG257      0.2260
    182  O        -18.3490  -13.4880    9.4440 O.2   257  ARG257     -0.2867
    183  CB       -18.3450  -15.8590    7.1270 C.3   257  ARG257      0.0307
    184  CG       -19.3510  -16.9160    6.7300 C.3   257  ARG257      0.0489
    185  CD       -19.8030  -16.7670    5.3110 C.3   257  ARG257      0.2205
    186  NE       -19.3830  -17.8870    4.4800 N.pl3 257  ARG257     -0.0865
    187  CZ       -20.1470  -18.9450    4.2610 C.cat 257  ARG257      0.5346
    188  NH1      -21.3260  -19.0040    4.8390 N.pl3 257  ARG257      0.1354
    189  NH2      -19.7450  -19.9370    3.4810 N.pl3 257  ARG257      0.1354
@<TRIPOS>BOND
     1    39    38    2
     2    38    37    1
     3    40    37    1
     4    40    41    1
     5    37    36    1
     6    42    41    1
     7    43    41    1
     8   103   101   ar
     9    36    26   am
    10    27    26    2
    11    26    25    1
    12   102   101   ar
    13   101   100    1
    14    33    31   ar
    15    33    34   ar
    16    31    29   ar
    17    24    25    1
    18    25    28    1
    19   100    99    1
    20    71    68    1
    21    71    72    1
    22    29    28    1
    23    29    30   ar
    24    34    35    1
    25    34    32   ar
    26    62    61    1
    27    62    63    2
    28    68    67    1
    29    68    69    1
    30    10     9    1
    31    61    60    1
    32    61    64    1
    33    99    96    1
    34    84    86   ar
    35    84    82   ar
    36    86    85   ar
    37    30    32   ar
    38    77    69   am
    39    77    78    1
    40    80    79    2
    41    65    64    1
    42    72    73   ar
    43    72    74   ar
    44    69    70    2
    45    82    81    1
    46    82    83   ar
    47     9    11    1
    48     9     8    2
    49    64    66    1
    50    73    75   ar
    51    15    14    2
    52    81    78    1
    53    96    95    1
    54    96    97    1
    55     7     8    1
    56     7     6    1
    57    85    83   ar
    58    78    79    1
    59    14    13    1
    60    74    76   ar
    61    79    87   am
    62    95    89   am
    63     5     6    1
    64     5     2    1
    65     1     2    1
    66    97    98    2
    67    75    76   ar
    68   141   140    2
    69   151   150    2
    70    89    88    1
    71    89    90    2
    72     4     3    2
    73     2     3    1
    74    87    88    1
    75    13    12    1
    76    13    16    1
    77    88    91    1
    78   140   139    1
    79   148   149    1
    80    21    19   ar
    81    21    22   ar
    82    19    17   ar
    83   150   149    1
    84   138   139    1
    85    23    22    1
    86    22    20   ar
    87    51    49    1
    88    17    16    1
    89    17    18   ar
    90   149   152    1
    91    20    18   ar
    92   139   142    1
    93   152   154    1
    94   152   153    1
    95    58    57    2
    96    93    92   ar
    97    91    92    1
    98    50    49    1
    99   146   144   ar
   100   146   147   ar
   101    49    48    1
   102   144   143   ar
   103    92    94   ar
   104   147   145   ar
   105    57    56    1
   106    57    59   am
   107   143   145   ar
   108   143   142    1
   109    56    53    1
   110   189   187    1
   111    53    54    1
   112    53    52    1
   113    54    55    2
   114   187   186    2
   115   187   188    1
   116    48    45    1
   117   186   185    1
   118   185   184    1
   119   158   157    2
   120    45    46    1
   121    45    44    1
   122   155   156    1
   123   113   112    1
   124   113   114    2
   125   164   163    1
   126    46    47    2
   127   177   176    1
   128   112   111    1
   129   112   115    1
   130   117   115    1
   131   171   170    1
   132   157   156    1
   133   159   156    1
   134   159   160    1
   135   161   160    1
   136   161   162    1
   137   184   183    1
   138   178   176    1
   139   115   116    1
   140   137   136    1
   141   183   180    1
   142   163   162    2
   143   163   165    1
   144   176   173    1
   145   169   168    2
   146   170   167    1
   147   166   167    1
   148   175   174    2
   149   167   168    1
   150   136   135   ar
   151   136   134   ar
   152   173   172    1
   153   173   174    1
   154   180   181    1
   155   180   179    1
   156   135   133   ar
   157   181   182    2
   158   110   108    1
   159   134   132   ar
   160   124   123    1
   161   109   108    1
   162   133   131   ar
   163   108   105    1
   164   123   122    1
   165   123   125    1
   166   132   131   ar
   167   122   119    1
   168   131   130    1
   169   118   119    1
   170   121   120    2
   171   105   104    1
   172   105   106    1
   173   119   120    1
   174   106   107    2
   175   130   127    1
   176   128   129    2
   177   128   127    1
   178   127   126    1
