@<TRIPOS>MOLECULE
tmp/4cy2A00.pdb
 122 116 0 0 0
SMALL
GASTEIGER

@<TRIPOS>ATOM
      1  N        -22.9720   20.4890   -3.0290 N.3   151  ARG151     -0.1245
      2  CA       -22.2990   20.2210   -1.7500 C.3   151  ARG151      0.1563
      3  C        -22.8580   19.0200   -0.9730 C.2   151  ARG151      0.2260
      4  O        -22.0920   18.3110   -0.3230 O.2   151  ARG151     -0.2867
      5  CB       -22.2950   21.4760   -0.8610 C.3   151  ARG151      0.0307
      6  CG       -23.5920   21.7160   -0.1060 C.3   151  ARG151      0.0489
      7  CD       -23.7630   23.1520    0.3680 C.3   151  ARG151      0.2205
      8  NE       -22.6730   23.6320    1.2240 N.pl3 151  ARG151     -0.0865
      9  CZ       -22.7570   24.6860    2.0430 C.cat 151  ARG151      0.5346
     10  NH1      -23.8870   25.3840    2.1630 N.pl3 151  ARG151      0.1354
     11  NH2      -21.7000   25.0400    2.7680 N.pl3 151  ARG151      0.1354
     12  N        -20.8910   26.4280   -7.3080 N.3   193  SER193     -0.1203
     13  CA       -20.0620   27.0870   -6.3000 C.3   193  SER193      0.2005
     14  C        -19.9640   26.1870   -5.0650 C.2   193  SER193      0.2461
     15  O        -20.7460   25.2440   -4.9300 O.2   193  SER193     -0.2732
     16  CB       -20.6660   28.4350   -5.9100 C.3   193  SER193      0.2103
     17  OG       -22.0050   28.2870   -5.4660 O.3   193  SER193     -0.2182
     18  N        -19.0130   26.4760   -4.1570 N.am  194  PRO194     -0.2717
     19  CA       -18.8890   25.6660   -2.9380 C.3   194  PRO194      0.1535
     20  C        -20.1620   25.5720   -2.0930 C.2   194  PRO194      0.2598
     21  O        -20.4480   24.5090   -1.5480 O.2   194  PRO194     -0.2715
     22  CB       -17.7760   26.3740   -2.1610 C.3   194  PRO194      0.0310
     23  CG       -16.9290   26.9920   -3.2170 C.3   194  PRO194      0.0237
     24  CD       -17.8770   27.4060   -4.3130 C.3   194  PRO194      0.0939
     25  N        -20.9140   26.6670   -1.9820 N.am  195  ASN195     -0.1973
     26  CA       -22.1740   26.6550   -1.2300 C.3   195  ASN195      0.1688
     27  C        -23.3750   26.1110   -2.0220 C.2   195  ASN195      0.2292
     28  O        -24.4600   25.9480   -1.4660 O.2   195  ASN195     -0.2864
     29  CB       -22.4980   28.0480   -0.6850 C.3   195  ASN195      0.1181
     30  CG       -22.6770   29.0890   -1.7780 C.2   195  ASN195      0.2629
     31  OD1      -22.7950   28.7640   -2.9600 O.2   195  ASN195     -0.2716
     32  ND2      -22.6790   30.3550   -1.3810 N.am  195  ASN195     -0.0877
     33  N        -25.2160   27.4240   -4.4340 N.3   197  LYS197     -0.1231
     34  CA       -26.2790   28.3370   -4.8660 C.3   197  LYS197      0.1693
     35  C        -25.9530   29.0730   -6.1740 C.2   197  LYS197      0.2592
     36  O        -26.8200   29.7240   -6.7510 O.2   197  LYS197     -0.2718
     37  CB       -26.6420   29.3080   -3.7390 C.3   197  LYS197      0.0285
     38  CG       -25.6380   30.4120   -3.4600 C.3   197  LYS197      0.0035
     39  CD       -25.6640   30.8440   -1.9930 C.3   197  LYS197      0.0206
     40  CE       -27.0380   31.2940   -1.5300 C.3   197  LYS197      0.1093
     41  NZ       -27.0240   31.7880   -0.1220 N.3   197  LYS197     -0.1314
     42  N        -24.7160   28.9530   -6.6570 N.am  198  TYR198     -0.1976
     43  CA       -24.3570   29.5270   -7.9510 C.3   198  TYR198      0.1639
     44  C        -23.7460   28.4860   -8.8740 C.2   198  TYR198      0.2290
     45  O        -23.2740   27.4370   -8.4300 O.2   198  TYR198     -0.2864
     46  CB       -23.3990   30.7070   -7.7870 C.3   198  TYR198      0.0560
     47  CG       -23.9280   31.7920   -6.8900 C.ar  198  TYR198     -0.0198
     48  CD1      -24.9410   32.6440   -7.3220 C.ar  198  TYR198     -0.0009
     49  CD2      -23.4240   31.9700   -5.6060 C.ar  198  TYR198     -0.0009
     50  CE1      -25.4340   33.6410   -6.5020 C.ar  198  TYR198      0.0417
     51  CE2      -23.9120   32.9670   -4.7770 C.ar  198  TYR198      0.0417
     52  CZ       -24.9160   33.7980   -5.2300 C.ar  198  TYR198      0.1957
     53  OH       -25.4030   34.7850   -4.4160 O.3   198  TYR198     -0.2866
     54  N        -21.3980   33.4140  -14.3480 N.3   210  LEU210     -0.1245
     55  CA       -21.8080   32.9730  -13.0170 C.3   210  LEU210      0.1561
     56  C        -23.3160   33.1770  -12.8480 C.2   210  LEU210      0.2260
     57  O        -23.7970   34.3120  -12.8320 O.2   210  LEU210     -0.2867
     58  CB       -21.0370   33.7340  -11.9380 C.3   210  LEU210      0.0270
     59  CG       -21.1540   33.1960  -10.5090 C.3   210  LEU210      0.0019
     60  CD1      -20.7100   31.7420  -10.4140 C.3   210  LEU210      0.0001
     61  CD2      -20.3430   34.0640   -9.5590 C.3   210  LEU210      0.0001
     62  N        -25.5410   36.4650  -13.4720 N.3   219  LEU219     -0.1231
     63  CA       -25.2090   37.6480  -12.6780 C.3   219  LEU219      0.1693
     64  C        -23.8860   38.2950  -13.0860 C.2   219  LEU219      0.2591
     65  O        -23.8080   39.5170  -13.2150 O.2   219  LEU219     -0.2718
     66  CB       -25.1580   37.2820  -11.1940 C.3   219  LEU219      0.0284
     67  CG       -26.4800   36.7860  -10.5970 C.3   219  LEU219      0.0019
     68  CD1      -26.2730   36.3360   -9.1590 C.3   219  LEU219      0.0001
     69  CD2      -27.5520   37.8570  -10.6830 C.3   219  LEU219      0.0001
     70  N        -22.8510   37.4770  -13.2710 N.am  220  LYS220     -0.1980
     71  CA       -21.5120   37.9640  -13.6150 C.3   220  LYS220      0.1596
     72  C        -21.0390   37.3010  -14.8990 C.2   220  LYS220      0.2287
     73  O        -21.4280   36.1740  -15.1920 O.2   220  LYS220     -0.2864
     74  CB       -20.5140   37.6290  -12.5060 C.3   220  LYS220      0.0298
     75  CG       -20.9260   38.0570  -11.1070 C.3   220  LYS220      0.0038
     76  CD       -20.3660   39.4120  -10.7300 C.3   220  LYS220      0.0206
     77  CE       -20.6990   39.7350   -9.2860 C.3   220  LYS220      0.1093
     78  NZ       -20.2870   41.1140   -8.9210 N.3   220  LYS220     -0.1314
     79  N        -13.2940   28.1990   -9.0090 N.3   236  PHE236     -0.1241
     80  CA       -13.3240   29.2210   -7.9790 C.3   236  PHE236      0.1605
     81  C        -12.0320   29.0810   -7.1910 C.2   236  PHE236      0.2264
     82  O        -11.6710   27.9710   -6.7920 O.2   236  PHE236     -0.2867
     83  CB       -14.4950   28.9990   -7.0200 C.3   236  PHE236      0.0534
     84  CG       -15.8440   29.1090   -7.6630 C.ar  236  PHE236     -0.0203
     85  CD1      -16.4850   30.3390   -7.7540 C.ar  236  PHE236     -0.0042
     86  CD2      -16.4810   27.9840   -8.1640 C.ar  236  PHE236     -0.0042
     87  CE1      -17.7360   30.4430   -8.3390 C.ar  236  PHE236     -0.0003
     88  CE2      -17.7280   28.0820   -8.7550 C.ar  236  PHE236     -0.0003
     89  CZ       -18.3570   29.3130   -8.8410 C.ar  236  PHE236     -0.0000
     90  N        -10.6510   30.3560   -3.6610 N.3   238  VAL238     -0.1245
     91  CA       -11.2030   30.9530   -2.4320 C.3   238  VAL238      0.1561
     92  C        -10.3170   30.8310   -1.1800 C.2   238  VAL238      0.2260
     93  O        -10.7560   31.1600   -0.0750 O.2   238  VAL238     -0.2867
     94  CB       -12.5980   30.3590   -2.1210 C.3   238  VAL238      0.0252
     95  CG1      -13.5850   30.7310   -3.2160 C.3   238  VAL238      0.0019
     96  CG2      -12.5260   28.8430   -1.9590 C.3   238  VAL238      0.0019
     97  N        -10.8910   36.1760   -3.6020 N.3   242  LYS242     -0.1245
     98  CA       -11.8990   35.4580   -4.3810 C.3   242  LYS242      0.1561
     99  C        -11.6750   35.6560   -5.8750 C.2   242  LYS242      0.2260
    100  O        -11.9730   36.7240   -6.4160 O.2   242  LYS242     -0.2867
    101  CB       -13.3130   35.8950   -3.9820 C.3   242  LYS242      0.0271
    102  CG       -13.9420   35.0300   -2.8990 C.3   242  LYS242      0.0035
    103  CD       -13.0570   34.8950   -1.6710 C.3   242  LYS242      0.0206
    104  CE       -13.7480   34.0880   -0.5850 C.3   242  LYS242      0.1093
    105  NZ       -13.0780   34.2790    0.7270 N.3   242  LYS242     -0.1314
    106  N        -13.3830   37.8680   -8.8740 N.3   258  LEU258     -0.1231
    107  CA       -14.7220   37.2810   -8.9070 C.3   258  LEU258      0.1693
    108  C        -15.8170   38.3470   -8.8700 C.2   258  LEU258      0.2591
    109  O        -16.8220   38.2270   -9.5690 O.2   258  LEU258     -0.2718
    110  CB       -14.8970   36.2890   -7.7500 C.3   258  LEU258      0.0284
    111  CG       -16.1900   35.4580   -7.7260 C.3   258  LEU258      0.0019
    112  CD1      -15.9260   34.0500   -7.2040 C.3   258  LEU258      0.0001
    113  CD2      -17.2830   36.1260   -6.9020 C.3   258  LEU258      0.0001
    114  N        -15.6050   39.3950   -8.0780 N.am  259  GLN259     -0.1979
    115  CA       -16.6190   40.4310   -7.8730 C.3   259  GLN259      0.1601
    116  C        -16.6440   41.4870   -8.9820 C.2   259  GLN259      0.2287
    117  O        -17.7080   41.7740   -9.5390 O.2   259  GLN259     -0.2864
    118  CB       -16.4170   41.1260   -6.5190 C.3   259  GLN259      0.0394
    119  CG       -16.3470   40.1980   -5.3080 C.3   259  GLN259      0.0908
    120  CD       -17.6500   39.4670   -5.0110 C.2   259  GLN259      0.2608
    121  OE1      -18.6320   39.5810   -5.7450 O.2   259  GLN259     -0.2717
    122  NE2      -17.6580   38.7030   -3.9230 N.am  259  GLN259     -0.0878
@<TRIPOS>BOND
     1    73    72    2
     2    72    71    1
     3    54    55    1
     4    71    70    1
     5    71    74    1
     6    62    63    1
     7    70    64   am
     8    65    64    2
     9    64    63    1
    10    55    56    1
    11    55    58    1
    12    56    57    2
    13    63    66    1
    14    74    75    1
    15    58    59    1
    16    66    67    1
    17    75    76    1
    18    76    77    1
    19    69    67    1
    20    67    68    1
    21    59    60    1
    22    59    61    1
    23   109   108    2
    24   117   116    2
    25    77    78    1
    26    79    80    1
    27   116   115    1
    28   107   106    1
    29   107   108    1
    30   107   110    1
    31    44    45    2
    32    44    43    1
    33   108   114   am
    34    89    88   ar
    35    89    87   ar
    36    88    86   ar
    37    87    85   ar
    38    86    84   ar
    39   114   115    1
    40    80    81    1
    41    80    83    1
    42    43    46    1
    43    43    42    1
    44   115   118    1
    45    46    47    1
    46    85    84   ar
    47   110   111    1
    48   111   112    1
    49   111   113    1
    50    84    83    1
    51    48    47   ar
    52    48    50   ar
    53    12    13    1
    54    81    82    2
    55    47    49   ar
    56    36    35    2
    57    42    35   am
    58   118   119    1
    59    50    52   ar
    60   100    99    2
    61    13    16    1
    62    13    14    1
    63    35    34    1
    64    16    17    1
    65    99    98    1
    66   121   120    2
    67    49    51   ar
    68   119   120    1
    69    52    51   ar
    70    52    53    1
    71    14    15    2
    72    14    18   am
    73   120   122   am
    74    34    33    1
    75    34    37    1
    76    98   101    1
    77    98    97    1
    78    24    18    1
    79    24    23    1
    80    18    19    1
    81   101   102    1
    82    37    38    1
    83    90    91    1
    84    38    39    1
    85    23    22    1
    86    95    94    1
    87     1     2    1
    88    31    30    2
    89    19    22    1
    90    19    20    1
    91   102   103    1
    92    91    94    1
    93    91    92    1
    94    94    96    1
    95    20    25   am
    96    20    21    2
    97    27    28    2
    98    27    26    1
    99    39    40    1
   100    25    26    1
   101    30    32   am
   102    30    29    1
   103     2     3    1
   104     2     5    1
   105   103   104    1
   106    40    41    1
   107    26    29    1
   108    92    93    2
   109     3     4    2
   110     5     6    1
   111   104   105    1
   112     6     7    1
   113     7     8    1
   114     8     9    2
   115     9    10    1
   116     9    11    1
