@<TRIPOS>MOLECULE
tmp/4cy5A00.pdb
 122 116 0 0 0
SMALL
GASTEIGER

@<TRIPOS>ATOM
      1  N        -22.6900   20.8380   -4.3940 N.3   151  ARG151     -0.1245
      2  CA       -22.0630   20.6070   -3.0880 C.3   151  ARG151      0.1563
      3  C        -22.5230   19.3330   -2.3800 C.2   151  ARG151      0.2260
      4  O        -21.6940   18.6020   -1.8630 O.2   151  ARG151     -0.2867
      5  CB       -22.2820   21.8140   -2.1610 C.3   151  ARG151      0.0307
      6  CG       -21.7920   21.6090   -0.7250 C.3   151  ARG151      0.0489
      7  CD       -22.3460   22.6630    0.2220 C.3   151  ARG151      0.2205
      8  NE       -21.3980   23.7520    0.4740 N.pl3 151  ARG151     -0.0865
      9  CZ       -21.7350   25.0270    0.7030 C.cat 151  ARG151      0.5346
     10  NH1      -23.0090   25.4150    0.6950 N.pl3 151  ARG151      0.1354
     11  NH2      -20.7860   25.9360    0.9270 N.pl3 151  ARG151      0.1354
     12  N        -20.5060   26.3160   -8.6660 N.3   192  SER192     -0.1203
     13  CA       -19.6100   27.0340   -7.7750 C.3   192  SER192      0.2005
     14  C        -19.4250   26.1930   -6.5080 C.2   192  SER192      0.2461
     15  O        -20.1840   25.2620   -6.2700 O.2   192  SER192     -0.2732
     16  CB       -20.1990   28.4100   -7.4590 C.3   192  SER192      0.2103
     17  OG       -21.0250   28.3850   -6.3030 O.3   192  SER192     -0.2182
     18  N        -18.4040   26.4940   -5.7020 N.am  193  PRO193     -0.2717
     19  CA       -18.2380   25.7230   -4.4670 C.3   193  PRO193      0.1535
     20  C        -19.4900   25.6300   -3.5710 C.2   193  PRO193      0.2598
     21  O        -19.7570   24.5710   -3.0210 O.2   193  PRO193     -0.2715
     22  CB       -17.1050   26.4570   -3.7520 C.3   193  PRO193      0.0310
     23  CG       -16.3300   27.1410   -4.8340 C.3   193  PRO193      0.0237
     24  CD       -17.1560   27.1680   -6.0920 C.3   193  PRO193      0.0939
     25  N        -20.2490   26.7180   -3.4540 N.am  194  ASN194     -0.1973
     26  CA       -21.4460   26.7630   -2.5960 C.3   194  ASN194      0.1688
     27  C        -22.7210   26.2470   -3.2670 C.2   194  ASN194      0.2292
     28  O        -23.7840   26.2170   -2.6480 O.2   194  ASN194     -0.2864
     29  CB       -21.6760   28.1880   -2.0950 C.3   194  ASN194      0.1181
     30  CG       -21.9850   29.1630   -3.2200 C.2   194  ASN194      0.2629
     31  OD1      -22.3310   28.7600   -4.3260 O.2   194  ASN194     -0.2716
     32  ND2      -21.8720   30.4540   -2.9330 N.am  194  ASN194     -0.0877
     33  N        -24.5990   27.4660   -5.5930 N.3   196  LYS196     -0.1231
     34  CA       -25.5960   28.4710   -5.9850 C.3   196  LYS196      0.1693
     35  C        -25.4350   28.9420   -7.4250 C.2   196  LYS196      0.2592
     36  O        -26.4210   29.3170   -8.0690 O.2   196  LYS196     -0.2718
     37  CB       -25.5090   29.7030   -5.0850 C.3   196  LYS196      0.0285
     38  CG       -25.9390   29.4900   -3.6450 C.3   196  LYS196      0.0035
     39  CD       -25.7850   30.7890   -2.8640 C.3   196  LYS196      0.0206
     40  CE       -26.1600   30.6240   -1.3990 C.3   196  LYS196      0.1093
     41  NZ       -27.6330   30.5000   -1.2090 N.3   196  LYS196     -0.1314
     42  N        -24.1940   28.9540   -7.9120 N.am  197  TYR197     -0.1976
     43  CA       -23.8940   29.4840   -9.2390 C.3   197  TYR197      0.1639
     44  C        -23.2870   28.4310  -10.1600 C.2   197  TYR197      0.2290
     45  O        -22.8390   27.3780   -9.7130 O.2   197  TYR197     -0.2864
     46  CB       -22.9680   30.7000   -9.1230 C.3   197  TYR197      0.0560
     47  CG       -23.4860   31.7420   -8.1580 C.ar  197  TYR197     -0.0198
     48  CD1      -24.5060   32.6110   -8.5250 C.ar  197  TYR197     -0.0009
     49  CD2      -22.9730   31.8430   -6.8730 C.ar  197  TYR197     -0.0009
     50  CE1      -24.9960   33.5610   -7.6430 C.ar  197  TYR197      0.0417
     51  CE2      -23.4570   32.7880   -5.9830 C.ar  197  TYR197      0.0417
     52  CZ       -24.4680   33.6440   -6.3730 C.ar  197  TYR197      0.1957
     53  OH       -24.9390   34.5840   -5.4930 O.3   197  TYR197     -0.2866
     54  N        -21.0210   33.5350  -15.7290 N.3   209  LEU209     -0.1245
     55  CA       -21.3940   33.0300  -14.4120 C.3   209  LEU209      0.1561
     56  C        -22.9040   33.1700  -14.2200 C.2   209  LEU209      0.2260
     57  O        -23.4320   34.2820  -14.1920 O.2   209  LEU209     -0.2867
     58  CB       -20.6430   33.7770  -13.3130 C.3   209  LEU209      0.0270
     59  CG       -20.9880   33.3780  -11.8750 C.3   209  LEU209      0.0019
     60  CD1      -20.6600   31.9190  -11.6160 C.3   209  LEU209      0.0001
     61  CD2      -20.2470   34.2640  -10.8910 C.3   209  LEU209      0.0001
     62  N        -25.0750   36.4960  -14.5220 N.3   218  LEU218     -0.1231
     63  CA       -24.6300   37.5520  -13.6070 C.3   218  LEU218      0.1693
     64  C        -23.3020   38.2030  -13.9970 C.2   218  LEU218      0.2591
     65  O        -23.0900   39.3740  -13.6950 O.2   218  LEU218     -0.2718
     66  CB       -24.5380   37.0070  -12.1800 C.3   218  LEU218      0.0284
     67  CG       -25.8500   36.5760  -11.5200 C.3   218  LEU218      0.0019
     68  CD1      -25.5680   36.0780  -10.1100 C.3   218  LEU218      0.0001
     69  CD2      -26.8740   37.7010  -11.4910 C.3   218  LEU218      0.0001
     70  N        -22.4060   37.4510  -14.6370 N.am  219  LYS219     -0.1980
     71  CA       -21.1010   37.9810  -15.0670 C.3   219  LYS219      0.1596
     72  C        -20.6990   37.3620  -16.3920 C.2   219  LYS219      0.2287
     73  O        -20.9920   36.1900  -16.6370 O.2   219  LYS219     -0.2864
     74  CB       -19.9990   37.6470  -14.0570 C.3   219  LYS219      0.0298
     75  CG       -20.2390   38.0730  -12.6160 C.3   219  LYS219      0.0038
     76  CD       -20.0690   39.5700  -12.4010 C.3   219  LYS219      0.0206
     77  CE       -20.4660   39.9630  -10.9790 C.3   219  LYS219      0.1093
     78  NZ       -20.1940   41.3970  -10.6740 N.3   219  LYS219     -0.1314
     79  N        -13.0720   28.1050  -10.3970 N.3   235  PHE235     -0.1241
     80  CA       -13.0770   29.1150   -9.3520 C.3   235  PHE235      0.1605
     81  C        -11.7720   28.9490   -8.5880 C.2   235  PHE235      0.2264
     82  O        -11.4000   27.8240   -8.2380 O.2   235  PHE235     -0.2867
     83  CB       -14.2470   28.8960   -8.3980 C.3   235  PHE235      0.0534
     84  CG       -15.5880   29.0270   -9.0500 C.ar  235  PHE235     -0.0203
     85  CD1      -16.2220   30.2610   -9.1200 C.ar  235  PHE235     -0.0042
     86  CD2      -16.2140   27.9210   -9.6050 C.ar  235  PHE235     -0.0042
     87  CE1      -17.4610   30.3850   -9.7230 C.ar  235  PHE235     -0.0003
     88  CE2      -17.4490   28.0420  -10.2230 C.ar  235  PHE235     -0.0003
     89  CZ       -18.0750   29.2750  -10.2760 C.ar  235  PHE235     -0.0000
     90  N        -10.4220   30.2960   -5.0590 N.3   237  VAL237     -0.1245
     91  CA       -11.0060   30.9100   -3.8540 C.3   237  VAL237      0.1561
     92  C        -10.1610   30.7760   -2.5750 C.2   237  VAL237      0.2260
     93  O        -10.6380   31.0710   -1.4740 O.2   237  VAL237     -0.2867
     94  CB       -12.4330   30.3490   -3.5910 C.3   237  VAL237      0.0252
     95  CG1      -13.3700   30.7080   -4.7440 C.3   237  VAL237      0.0019
     96  CG2      -12.4140   28.8350   -3.3530 C.3   237  VAL237      0.0019
     97  N        -10.5320   36.1270   -5.0060 N.3   241  LYS241     -0.1245
     98  CA       -11.5830   35.4380   -5.7370 C.3   241  LYS241      0.1561
     99  C        -11.3810   35.6070   -7.2360 C.2   241  LYS241      0.2260
    100  O        -11.7040   36.6580   -7.7870 O.2   241  LYS241     -0.2867
    101  CB       -12.9480   35.9650   -5.2990 C.3   241  LYS241      0.0271
    102  CG       -13.5000   35.2910   -4.0490 C.3   241  LYS241      0.0035
    103  CD       -12.4770   35.1160   -2.9320 C.3   241  LYS241      0.0206
    104  CE       -13.1200   34.5060   -1.6950 C.3   241  LYS241      0.1093
    105  NZ       -12.1430   34.3440   -0.5830 N.3   241  LYS241     -0.1314
    106  N        -13.2340   37.9700  -10.1540 N.3   257  LEU257     -0.1231
    107  CA       -14.5890   37.4260  -10.1850 C.3   257  LEU257      0.1693
    108  C        -15.6630   38.5200  -10.2080 C.2   257  LEU257      0.2591
    109  O        -16.7140   38.3590  -10.8390 O.2   257  LEU257     -0.2718
    110  CB       -14.8070   36.4770   -8.9990 C.3   257  LEU257      0.0284
    111  CG       -16.1380   35.7060   -8.9580 C.3   257  LEU257      0.0019
    112  CD1      -15.9070   34.2140   -8.8020 C.3   257  LEU257      0.0001
    113  CD2      -17.0370   36.2190   -7.8460 C.3   257  LEU257      0.0001
    114  N        -15.3860   39.6380   -9.5440 N.am  258  GLN258     -0.1979
    115  CA       -16.3710   40.7080   -9.4040 C.3   258  GLN258      0.1601
    116  C        -16.3220   41.6670  -10.5850 C.2   258  GLN258      0.2287
    117  O        -17.3350   41.8970  -11.2470 O.2   258  GLN258     -0.2864
    118  CB       -16.1450   41.4740   -8.0990 C.3   258  GLN258      0.0394
    119  CG       -16.0520   40.5900   -6.8600 C.3   258  GLN258      0.0908
    120  CD       -17.3450   39.8560   -6.5290 C.2   258  GLN258      0.2608
    121  OE1      -18.4060   40.1190   -7.1110 O.2   258  GLN258     -0.2717
    122  NE2      -17.2620   38.9310   -5.5730 N.am  258  GLN258     -0.0878
@<TRIPOS>BOND
     1    73    72    2
     2    72    71    1
     3    54    55    1
     4    71    70    1
     5    71    74    1
     6    70    64   am
     7    62    63    1
     8    55    56    1
     9    55    58    1
    10    56    57    2
    11    74    75    1
    12    64    65    2
    13    64    63    1
    14    63    66    1
    15    58    59    1
    16    75    76    1
    17    76    77    1
    18    66    67    1
    19    59    60    1
    20    59    61    1
    21    67    69    1
    22    67    68    1
    23   117   116    2
    24    77    78    1
    25   109   108    2
    26   116   115    1
    27    79    80    1
    28    89    88   ar
    29    89    87   ar
    30    88    86   ar
    31   108   107    1
    32   108   114   am
    33   107   106    1
    34   107   110    1
    35    44    45    2
    36    44    43    1
    37    87    85   ar
    38    86    84   ar
    39   114   115    1
    40   115   118    1
    41    80    81    1
    42    80    83    1
    43    43    46    1
    44    43    42    1
    45    46    47    1
    46    85    84   ar
    47    84    83    1
    48   110   111    1
    49   111   112    1
    50   111   113    1
    51    12    13    1
    52    81    82    2
    53    48    47   ar
    54    48    50   ar
    55    47    49   ar
    56   118   119    1
    57    36    35    2
    58    42    35   am
    59   100    99    2
    60    13    16    1
    61    13    14    1
    62    50    52   ar
    63    16    17    1
    64    35    34    1
    65    99    98    1
    66   121   120    2
    67    49    51   ar
    68   119   120    1
    69   120   122   am
    70    14    15    2
    71    14    18   am
    72    52    51   ar
    73    52    53    1
    74    24    18    1
    75    24    23    1
    76    34    33    1
    77    34    37    1
    78    98   101    1
    79    98    97    1
    80    18    19    1
    81   101   102    1
    82    37    38    1
    83    90    91    1
    84    23    22    1
    85    95    94    1
    86    19    22    1
    87    19    20    1
    88     1     2    1
    89    31    30    2
    90   102   103    1
    91    91    94    1
    92    91    92    1
    93    38    39    1
    94    94    96    1
    95    20    25   am
    96    20    21    2
    97    25    26    1
    98    27    28    2
    99    27    26    1
   100    30    32   am
   101    30    29    1
   102     2     3    1
   103     2     5    1
   104   103   104    1
   105    39    40    1
   106    26    29    1
   107    92    93    2
   108     3     4    2
   109     5     6    1
   110   104   105    1
   111    40    41    1
   112     6     7    1
   113     7     8    1
   114     8     9    2
   115    10     9    1
   116     9    11    1
