@<TRIPOS>MOLECULE
tmp/4cygA00.pdb
 188 182 0 0 0
SMALL
GASTEIGER

@<TRIPOS>ATOM
      1  N         12.6970  177.7680   27.7680 N.3    59  GLU59      -0.1231
      2  CA        14.0930  177.6370   28.1480 C.3    59  GLU59       0.1699
      3  C         14.4080  176.1630   28.3800 C.2    59  GLU59       0.2592
      4  O         13.6120  175.4440   28.9760 O.2    59  GLU59      -0.2718
      5  CB        14.3800  178.4420   29.4170 C.3    59  GLU59       0.0402
      6  CG        15.8440  178.4530   29.8360 C.3    59  GLU59       0.1161
      7  CD        16.0870  179.1520   31.1670 C.2    59  GLU59       0.3649
      8  OE1       15.1230  179.3250   31.9460 O.co2  59  GLU59      -0.2457
      9  OE2       17.2510  179.5370   31.4410 O.co2  59  GLU59      -0.2457
     10  N         15.5670  175.7230   27.8890 N.am   60  ASP60      -0.1974
     11  CA        16.0450  174.3480   28.0700 C.3    60  ASP60       0.1709
     12  C         15.1200  173.2860   27.4730 C.2    60  ASP60       0.2293
     13  O         15.2060  172.1100   27.8370 O.2    60  ASP60      -0.2864
     14  CB        16.2590  174.0380   29.5570 C.3    60  ASP60       0.1436
     15  CG        17.3240  174.8980   30.2020 C.2    60  ASP60       0.3671
     16  OD1       18.2020  175.4230   29.4890 O.co2  60  ASP60      -0.2456
     17  OD2       17.2930  175.0210   31.4500 O.co2  60  ASP60      -0.2456
     18  N         18.1480  170.5960   31.8750 N.3    65  TRP65      -0.1241
     19  CA        18.8690  171.4800   32.8030 C.3    65  TRP65       0.1605
     20  C         19.8940  170.7680   33.7040 C.2    65  TRP65       0.2264
     21  O         20.4770  171.4070   34.5770 O.2    65  TRP65      -0.2867
     22  CB        17.8450  172.2490   33.6660 C.3    65  TRP65       0.0550
     23  CG        16.8440  171.3270   34.2690 C.ar   65  TRP65       0.0003
     24  CD1       17.0040  170.5740   35.4000 C.ar   65  TRP65       0.0946
     25  CD2       15.5560  170.9930   33.7430 C.ar   65  TRP65       0.0152
     26  NE1       15.8930  169.8100   35.6120 N.ar   65  TRP65      -0.2442
     27  CE2       14.9880  170.0460   34.6110 C.ar   65  TRP65       0.0810
     28  CE3       14.8260  171.4070   32.6250 C.ar   65  TRP65       0.0012
     29  CZ2       13.7270  169.5140   34.4050 C.ar   65  TRP65       0.0191
     30  CZ3       13.5670  170.8680   32.4150 C.ar   65  TRP65       0.0001
     31  CH2       13.0320  169.9290   33.3010 C.ar   65  TRP65       0.0015
     32  N         21.8950  184.5820   27.9270 N.3   158  LYS158     -0.1245
     33  CA        21.2880  184.8680   29.2320 C.3   158  LYS158      0.1561
     34  C         22.2610  185.5680   30.1830 C.2   158  LYS158      0.2260
     35  O         23.3630  185.0860   30.4200 O.2   158  LYS158     -0.2867
     36  CB        20.7900  183.5780   29.8610 C.3   158  LYS158      0.0271
     37  CG        19.9590  183.7600   31.1250 C.3   158  LYS158      0.0035
     38  CD        19.5590  182.3990   31.6610 C.3   158  LYS158      0.0206
     39  CE        18.6470  182.5030   32.8570 C.3   158  LYS158      0.1093
     40  NZ        18.3430  181.1600   33.3980 N.3   158  LYS158     -0.1314
     41  N         20.8910  181.5450   37.0960 N.3   162  PHE162     -0.1227
     42  CA        20.3770  181.0990   38.3780 C.3   162  PHE162      0.1736
     43  C         21.3760  180.1500   39.0230 C.2   162  PHE162      0.2595
     44  O         22.0910  179.4240   38.3240 O.2   162  PHE162     -0.2718
     45  CB        19.0310  180.3990   38.1920 C.3   162  PHE162      0.0547
     46  CG        18.3220  180.0980   39.4810 C.ar  162  PHE162     -0.0202
     47  CD1       17.8910  181.1340   40.3080 C.ar  162  PHE162     -0.0042
     48  CD2       18.0750  178.7840   39.8690 C.ar  162  PHE162     -0.0042
     49  CE1       17.2380  180.8610   41.4950 C.ar  162  PHE162     -0.0003
     50  CE2       17.4170  178.5050   41.0550 C.ar  162  PHE162     -0.0003
     51  CZ        17.0000  179.5460   41.8700 C.ar  162  PHE162     -0.0000
     52  N         21.4280  180.1690   40.3540 N.am  163  MET163     -0.1965
     53  CA        22.2700  179.2340   41.1090 C.3   163  MET163      0.1736
     54  C         22.0560  177.8070   40.5500 C.2   163  MET163      0.2617
     55  O         20.9210  177.3730   40.2780 O.2   163  MET163     -0.2715
     56  CB        22.0140  179.3080   42.6350 C.3   163  MET163      0.0427
     57  CG        21.1070  178.2250   43.1910 C.3   163  MET163      0.0599
     58  SD        20.8620  178.4450   44.9570 S.3   163  MET163     -0.1393
     59  CE        20.5790  176.7430   45.4430 C.3   163  MET163      0.0692
     60  N         23.1580  177.1010   40.3360 N.am  164  GLY164     -0.1940
     61  CA        23.1130  175.7730   39.7300 C.3   164  GLY164      0.2014
     62  C         23.3190  175.7400   38.2190 C.2   164  GLY164      0.2638
     63  O         23.4750  174.6620   37.6570 O.2   164  GLY164     -0.2714
     64  N         23.3380  176.9000   37.5550 N.am  165  GLU165     -0.1977
     65  CA        23.6450  176.9650   36.1120 C.3   165  GLU165      0.1602
     66  C         25.1590  177.1230   35.8800 C.2   165  GLU165      0.2287
     67  O         25.6110  177.9930   35.1280 O.2   165  GLU165     -0.2864
     68  CB        22.8700  178.0980   35.4220 C.3   165  GLU165      0.0415
     69  CG        21.3970  177.7970   35.2010 C.3   165  GLU165      0.1163
     70  CD        20.7070  178.8270   34.3200 C.2   165  GLU165      0.3649
     71  OE1       20.5380  179.9860   34.7640 O.co2 165  GLU165     -0.2457
     72  OE2       20.3210  178.4790   33.1820 O.co2 165  GLU165     -0.2457
     73  N         13.9130  183.7100   31.6680 N.3   191  CYS191     -0.1221
     74  CA        13.6380  183.2820   33.0450 C.3   191  CYS191      0.1808
     75  C         14.0540  184.2930   34.1320 C.2   191  CYS191      0.2601
     76  O         13.4560  185.3570   34.2490 O.2   191  CYS191     -0.2717
     77  CB        14.2630  181.9010   33.2610 C.3   191  CYS191      0.0970
     78  SG        13.6110  180.9900   34.6780 S.3   191  CYS191     -0.0800
     79  N         15.0960  183.9710   34.8860 N.am  192  PHE192     -0.1976
     80  CA        15.5800  184.7810   36.0090 C.3   192  PHE192      0.1639
     81  C         15.8400  186.2470   35.6590 C.2   192  PHE192      0.2290
     82  O         15.7830  187.1120   36.5380 O.2   192  PHE192     -0.2864
     83  CB        16.8660  184.1200   36.5390 C.3   192  PHE192      0.0560
     84  CG        17.2270  184.4610   37.9610 C.ar  192  PHE192     -0.0200
     85  CD1       16.2580  184.5970   38.9490 C.ar  192  PHE192     -0.0042
     86  CD2       18.5770  184.5680   38.3300 C.ar  192  PHE192     -0.0042
     87  CE1       16.6260  184.8650   40.2550 C.ar  192  PHE192     -0.0003
     88  CE2       18.9440  184.8370   39.6430 C.ar  192  PHE192     -0.0003
     89  CZ        17.9650  184.9820   40.6040 C.ar  192  PHE192     -0.0000
     90  N         13.7700  189.3640   37.0580 N.3   195  LEU195     -0.1245
     91  CA        13.9540  190.0010   38.3630 C.3   195  LEU195      0.1561
     92  C         15.0230  191.0870   38.3930 C.2   195  LEU195      0.2260
     93  O         15.2610  191.6840   39.4460 O.2   195  LEU195     -0.2867
     94  CB        14.2680  188.9450   39.4270 C.3   195  LEU195      0.0270
     95  CG        13.0500  188.1930   39.9640 C.3   195  LEU195      0.0019
     96  CD1       13.4810  186.9550   40.7410 C.3   195  LEU195      0.0001
     97  CD2       12.2040  189.0950   40.8440 C.3   195  LEU195      0.0001
     98  N         12.1420  178.4570   32.3830 N.3   217  ALA217     -0.1231
     99  CA        12.0460  177.1780   33.0770 C.3   217  ALA217      0.1694
    100  C         11.9780  177.5030   34.5740 C.2   217  ALA217      0.2592
    101  O         12.9270  177.3060   35.3270 O.2   217  ALA217     -0.2718
    102  CB        13.2350  176.2930   32.7340 C.3   217  ALA217      0.0304
    103  N         10.8290  178.0340   34.9700 N.am  218  TRP218     -0.1962
    104  CA        10.6370  178.6880   36.2540 C.3   218  TRP218      0.1771
    105  C         10.1530  177.6760   37.2900 C.2   218  TRP218      0.2619
    106  O          9.2740  176.8780   37.0100 O.2   218  TRP218     -0.2715
    107  CB         9.5910  179.7770   36.0480 C.3   218  TRP218      0.0590
    108  CG         9.3680  180.7620   37.1550 C.ar  218  TRP218      0.0006
    109  CD1        8.5020  180.6370   38.2050 C.ar  218  TRP218      0.0946
    110  CD2        9.9530  182.0580   37.2720 C.ar  218  TRP218      0.0152
    111  NE1        8.5440  181.7600   38.9880 N.ar  218  TRP218     -0.2442
    112  CE2        9.4250  182.6510   38.4390 C.ar  218  TRP218      0.0810
    113  CE3       10.8860  182.7700   36.5130 C.ar  218  TRP218      0.0012
    114  CZ2        9.7930  183.9270   38.8640 C.ar  218  TRP218      0.0191
    115  CZ3       11.2620  184.0330   36.9410 C.ar  218  TRP218      0.0001
    116  CH2       10.7150  184.6010   38.1090 C.ar  218  TRP218      0.0015
    117  N         10.7390  177.7080   38.4780 N.am  219  MET219     -0.1977
    118  CA        10.2500  176.9100   39.6010 C.3   219  MET219      0.1605
    119  C          9.3950  177.7950   40.5020 C.2   219  MET219      0.2287
    120  O          9.8800  178.7550   41.1070 O.2   219  MET219     -0.2864
    121  CB        11.4190  176.2750   40.3580 C.3   219  MET219      0.0413
    122  CG        12.2090  175.2900   39.4950 C.3   219  MET219      0.0598
    123  SD        13.7140  174.6270   40.2490 S.3   219  MET219     -0.1393
    124  CE        14.8470  175.9850   40.0410 C.3   219  MET219      0.0692
    125  N          7.4860  179.5860   43.3360 N.3   221  VAL221     -0.1245
    126  CA         7.5910  179.8260   44.7770 C.3   221  VAL221      0.1561
    127  C          6.4830  180.7880   45.2230 C.2   221  VAL221      0.2260
    128  O          6.5630  181.9940   44.9740 O.2   221  VAL221     -0.2867
    129  CB         8.9580  180.4280   45.1590 C.3   221  VAL221      0.0252
    130  CG1        9.0380  180.6830   46.6640 C.3   221  VAL221      0.0019
    131  CG2       10.0900  179.5020   44.7270 C.3   221  VAL221      0.0019
    132  N          5.9190  184.4860   43.7890 N.3   225  LEU225     -0.1245
    133  CA         6.7490  184.1460   42.6440 C.3   225  LEU225      0.1561
    134  C          6.3370  182.8420   41.9700 C.2   225  LEU225      0.2260
    135  O          7.1810  182.0120   41.6130 O.2   225  LEU225     -0.2867
    136  CB         8.2160  184.1140   43.0660 C.3   225  LEU225      0.0270
    137  CG         8.8030  185.4780   43.4540 C.3   225  LEU225      0.0019
    138  CD1       10.1820  185.2860   44.0500 C.3   225  LEU225      0.0001
    139  CD2        8.8830  186.4220   42.2600 C.3   225  LEU225      0.0001
    140  N          9.4880  169.5010   39.7290 N.3   252  LYS252     -0.1245
    141  CA        10.2490  170.6490   40.2440 C.3   252  LYS252      0.1561
    142  C          9.4230  171.9410   40.2790 C.2   252  LYS252      0.2260
    143  O          9.9810  173.0320   40.2770 O.2   252  LYS252     -0.2867
    144  CB        11.5060  170.8640   39.4040 C.3   252  LYS252      0.0271
    145  CG        12.4940  169.7050   39.4370 C.3   252  LYS252      0.0035
    146  CD        13.6700  169.9270   38.4840 C.3   252  LYS252      0.0206
    147  CE        14.6130  171.0540   38.8460 C.3   252  LYS252      0.1093
    148  NZ        15.5400  170.6770   39.9320 N.3   252  LYS252     -0.1314
    149  N          7.5140  173.2560   38.0050 N.3   254  MET254     -0.1245
    150  CA         7.5690  173.9740   36.7410 C.3   254  MET254      0.1570
    151  C          6.2470  173.8160   35.9970 C.2   254  MET254      0.2261
    152  O          5.9360  172.7440   35.4930 O.2   254  MET254     -0.2867
    153  CB         8.7140  173.4460   35.8710 C.3   254  MET254      0.0387
    154  CG        10.0950  173.6510   36.4690 C.3   254  MET254      0.0595
    155  SD        11.4000  172.9050   35.4790 S.3   254  MET254     -0.1393
    156  CE        12.8480  173.6520   36.2210 C.3   254  MET254      0.0692
    157  N          9.3840  183.7590   51.8620 N.3   318  PHE318     -0.1241
    158  CA        10.5010  183.4280   50.9780 C.3   318  PHE318      0.1605
    159  C         11.8000  184.0100   51.5540 C.2   318  PHE318      0.2264
    160  O         12.5110  184.7790   50.9060 O.2   318  PHE318     -0.2867
    161  CB        10.1820  183.9370   49.5600 C.3   318  PHE318      0.0534
    162  CG        11.2170  183.5990   48.5190 C.ar  318  PHE318     -0.0203
    163  CD1       11.7920  182.3350   48.4530 C.ar  318  PHE318     -0.0042
    164  CD2       11.5920  184.5510   47.5780 C.ar  318  PHE318     -0.0042
    165  CE1       12.7380  182.0360   47.4860 C.ar  318  PHE318     -0.0003
    166  CE2       12.5350  184.2580   46.6070 C.ar  318  PHE318     -0.0003
    167  CZ        13.1110  182.9990   46.5600 C.ar  318  PHE318     -0.0000
    168  N         19.1350  182.5870   47.2230 N.3   370  GLU370     -0.1245
    169  CA        18.9960  182.2050   45.8090 C.3   370  GLU370      0.1567
    170  C         19.0670  183.4300   44.9000 C.2   370  GLU370      0.2260
    171  O         18.4820  183.4380   43.8180 O.2   370  GLU370     -0.2867
    172  CB        17.6980  181.4100   45.5490 C.3   370  GLU370      0.0388
    173  CG        17.6070  180.0650   46.2650 C.3   370  GLU370      0.1160
    174  CD        16.2490  179.3800   46.1130 C.2   370  GLU370      0.3649
    175  OE1       15.4700  179.7330   45.1960 O.co2 370  GLU370     -0.2457
    176  OE2       15.9560  178.4760   46.9240 O.co2 370  GLU370     -0.2457
    177  N         18.7450  190.9080   45.5270 N.3   373  TYR373     -0.1241
    178  CA        17.9470  192.0030   44.9800 C.3   373  TYR373      0.1605
    179  C         17.1210  192.7200   46.0520 C.2   373  TYR373      0.2264
    180  O         16.6120  192.0850   46.9720 O.2   373  TYR373     -0.2867
    181  CB        17.0350  191.5150   43.8460 C.3   373  TYR373      0.0534
    182  CG        16.3680  190.1710   44.0620 C.ar  373  TYR373     -0.0201
    183  CD1       16.9930  188.9860   43.6790 C.ar  373  TYR373     -0.0009
    184  CD2       15.0940  190.0850   44.6110 C.ar  373  TYR373     -0.0009
    185  CE1       16.3780  187.7550   43.8600 C.ar  373  TYR373      0.0417
    186  CE2       14.4760  188.8590   44.8010 C.ar  373  TYR373      0.0417
    187  CZ        15.1180  187.7010   44.4210 C.ar  373  TYR373      0.1957
    188  OH        14.5000  186.4890   44.6150 O.3   373  TYR373     -0.2866
@<TRIPOS>BOND
     1    12    13    2
     2    12    11    1
     3     1     2    1
     4    10    11    1
     5    10     3   am
     6    32    33    1
     7    11    14    1
     8     2     3    1
     9     2     5    1
    10     3     4    2
    11    33    36    1
    12    33    34    1
    13     5     6    1
    14    16    15   ar
    15    14    15    1
    16     6     7    1
    17    36    37    1
    18    34    35    2
    19    15    17   ar
    20    37    38    1
    21     7     9   ar
    22     7     8   ar
    23    38    39    1
    24    73    74    1
    25    18    19    1
    26    98    99    1
    27    30    28   ar
    28    30    31   ar
    29    28    25   ar
    30   102    99    1
    31    19    22    1
    32    19    20    1
    33    39    40    1
    34    74    77    1
    35    74    75    1
    36    99   100    1
    37    72    70   ar
    38    77    78    1
    39    31    29   ar
    40    22    23    1
    41    20    21    2
    42    25    23   ar
    43    25    27   ar
    44    75    76    2
    45    75    79   am
    46    23    24   ar
    47    70    71   ar
    48    70    69    1
    49    29    27   ar
    50   100   103   am
    51   100   101    2
    52    27    26   ar
    53    79    80    1
    54   103   104    1
    55    67    66    2
    56    69    68    1
    57    24    26   ar
    58    68    65    1
    59   155   156    1
    60   155   154    1
    61   152   151    2
    62    81    80    1
    63    81    82    2
    64   153   154    1
    65   153   150    1
    66    66    65    1
    67   151   150    1
    68    80    83    1
    69   107   104    1
    70   107   108    1
    71    65    64    1
    72   104   105    1
    73   113   115   ar
    74   113   110   ar
    75    83    84    1
    76   150   149    1
    77   115   116   ar
    78   106   105    2
    79    90    91    1
    80    41    42    1
    81   108   110   ar
    82   108   109   ar
    83   110   112   ar
    84   105   117   am
    85    64    62   am
    86    63    62    2
    87    84    86   ar
    88    84    85   ar
    89   116   114   ar
    90    45    42    1
    91    45    46    1
    92   109   111   ar
    93    62    61    1
    94    44    43    2
    95    86    88   ar
    96    91    92    1
    97    91    94    1
    98    42    43    1
    99    92    93    2
   100   112   114   ar
   101   112   111   ar
   102   117   118    1
   103   146   147    1
   104   146   145    1
   105   147   148    1
   106    85    87   ar
   107    43    52   am
   108   144   145    1
   109   144   141    1
   110    94    95    1
   111    46    48   ar
   112    46    47   ar
   113   122   123    1
   114   122   121    1
   115   118   121    1
   116   118   119    1
   117    88    89   ar
   118   140   141    1
   119    61    60    1
   120    48    50   ar
   121    95    96    1
   122    95    97    1
   123   124   123    1
   124   141   142    1
   125    87    89   ar
   126   143   142    2
   127    55    54    2
   128    47    49   ar
   129    60    54   am
   130    52    53    1
   131   119   120    2
   132    54    53    1
   133    50    51   ar
   134    53    56    1
   135    49    51   ar
   136   135   134    2
   137   134   133    1
   138   139   137    1
   139    56    57    1
   140   133   136    1
   141   133   132    1
   142   136   137    1
   143    57    58    1
   144   125   126    1
   145   137   138    1
   146   183   185   ar
   147   183   182   ar
   148   171   170    2
   149   181   182    1
   150   181   178    1
   151   185   187   ar
   152   182   184   ar
   153   187   188    1
   154   187   186   ar
   155   184   186   ar
   156   131   129    1
   157   126   129    1
   158   126   127    1
   159   170   169    1
   160    58    59    1
   161   128   127    2
   162   178   177    1
   163   178   179    1
   164   129   130    1
   165   175   174   ar
   166   172   169    1
   167   172   173    1
   168   169   168    1
   169   179   180    2
   170   174   173    1
   171   174   176   ar
   172   167   166   ar
   173   167   165   ar
   174   166   164   ar
   175   165   163   ar
   176   164   162   ar
   177   163   162   ar
   178   162   161    1
   179   161   158    1
   180   160   159    2
   181   158   159    1
   182   158   157    1
