@<TRIPOS>MOLECULE
tmp/4cygA01.pdb
 89 84 0 0 0
SMALL
GASTEIGER

@<TRIPOS>ATOM
      1  N         -1.3520  208.2920   46.1730 N.3   299  TYR299     -0.1241
      2  CA        -2.4440  208.1490   47.1310 C.3   299  TYR299      0.1605
      3  C         -1.9340  207.7730   48.5170 C.2   299  TYR299      0.2264
      4  O         -2.4280  208.2870   49.5210 O.2   299  TYR299     -0.2867
      5  CB        -3.4470  207.1000   46.6570 C.3   299  TYR299      0.0534
      6  CG        -4.4690  206.6890   47.7000 C.ar  299  TYR299     -0.0201
      7  CD1       -4.1950  205.6660   48.5990 C.ar  299  TYR299     -0.0009
      8  CD2       -5.7180  207.3110   47.7730 C.ar  299  TYR299     -0.0009
      9  CE1       -5.1240  205.2800   49.5510 C.ar  299  TYR299      0.0417
     10  CE2       -6.6570  206.9320   48.7240 C.ar  299  TYR299      0.0417
     11  CZ        -6.3520  205.9120   49.6120 C.ar  299  TYR299      0.1957
     12  OH        -7.2620  205.5190   50.5640 O.3   299  TYR299     -0.2866
     13  N         -4.6180  204.2980   58.3590 N.3   306  LEU306     -0.1245
     14  CA        -5.9780  203.7790   58.4390 C.3   306  LEU306      0.1561
     15  C         -6.2630  203.0620   59.7580 C.2   306  LEU306      0.2260
     16  O         -7.4250  202.8120   60.0970 O.2   306  LEU306     -0.2867
     17  CB        -6.2330  202.8120   57.2850 C.3   306  LEU306      0.0270
     18  CG        -6.2010  203.3970   55.8820 C.3   306  LEU306      0.0019
     19  CD1       -6.2220  202.2770   54.8560 C.3   306  LEU306      0.0001
     20  CD2       -7.3690  204.3450   55.6670 C.3   306  LEU306      0.0001
     21  N        -14.7120  193.0780   57.5320 N.3   331  ALA331     -0.1231
     22  CA       -14.3780  194.3170   56.8370 C.3   331  ALA331      0.1697
     23  C        -13.4020  195.1170   57.6840 C.2   331  ALA331      0.2632
     24  O        -13.3290  194.9400   58.8980 O.2   331  ALA331     -0.2714
     25  CB       -15.6310  195.1210   56.5700 C.3   331  ALA331      0.0304
     26  N        -12.6270  195.9860   57.0500 N.am  332  GLY332     -0.1718
     27  CA       -11.6180  196.7310   57.7850 C.2   332  GLY332      0.1480
     28  C        -10.7330  197.6250   56.9470 C.2   332  GLY332      0.2820
     29  O        -10.8530  197.6840   55.7180 O.2   332  GLY332     -0.2669
     30  N         -9.8750  198.3600   57.6470 N.am  333  ASN333     -0.1937
     31  CA        -8.9420  199.2880   57.0410 C.3   333  ASN333      0.1691
     32  C         -7.6830  199.2650   57.8950 C.2   333  ASN333      0.2292
     33  O         -7.7440  199.5870   59.0820 O.2   333  ASN333     -0.2864
     34  CB        -9.5290  200.7060   57.0060 C.3   333  ASN333      0.1181
     35  CG       -10.9340  200.7500   56.4050 C.2   333  ASN333      0.2629
     36  OD1      -11.9030  200.4100   57.0840 O.2   333  ASN333     -0.2716
     37  ND2      -11.0520  201.1620   55.1450 N.am  333  ASN333     -0.0877
     38  N         -7.7600  198.5210   52.3770 N.3   346  SER346     -0.1202
     39  CA        -9.1820  198.5350   52.6970 C.3   346  SER346      0.2020
     40  C         -9.7870  197.2970   52.0650 C.2   346  SER346      0.2619
     41  O         -9.4780  196.9730   50.9270 O.2   346  SER346     -0.2717
     42  CB        -9.8600  199.7920   52.1300 C.3   346  SER346      0.2103
     43  OG        -9.3090  200.9670   52.7020 O.3   346  SER346     -0.2182
     44  N        -10.6650  196.6130   52.7870 N.am  347  TYR347     -0.1961
     45  CA       -11.2100  195.3600   52.2860 C.3   347  TYR347      0.1771
     46  C        -12.5870  195.0430   52.8340 C.2   347  TYR347      0.2619
     47  O        -13.0230  195.5990   53.8450 O.2   347  TYR347     -0.2715
     48  CB       -10.2740  194.2110   52.6540 C.3   347  TYR347      0.0574
     49  CG       -10.3270  193.8570   54.1250 C.ar  347  TYR347     -0.0198
     50  CD1       -9.5740  194.5630   55.0570 C.ar  347  TYR347     -0.0009
     51  CD2      -11.1450  192.8290   54.5880 C.ar  347  TYR347     -0.0009
     52  CE1       -9.6220  194.2510   56.4030 C.ar  347  TYR347      0.0417
     53  CE2      -11.2050  192.5130   55.9380 C.ar  347  TYR347      0.0417
     54  CZ       -10.4410  193.2290   56.8410 C.ar  347  TYR347      0.1957
     55  OH       -10.4760  192.9190   58.1830 O.3   347  TYR347     -0.2866
     56  N        -13.2510  194.1160   52.1590 N.am  348  LYS348     -0.1977
     57  CA       -14.4600  193.5120   52.6650 C.3   348  LYS348      0.1596
     58  C        -14.5340  192.0920   52.1240 C.2   348  LYS348      0.2287
     59  O        -14.6080  191.8790   50.9120 O.2   348  LYS348     -0.2864
     60  CB       -15.6830  194.3280   52.2520 C.3   348  LYS348      0.0298
     61  CG       -17.0250  193.7520   52.6870 C.3   348  LYS348      0.0038
     62  CD       -18.1620  194.7060   52.3260 C.3   348  LYS348      0.0206
     63  CE       -19.4280  193.9770   51.8870 C.3   348  LYS348      0.1093
     64  NZ       -20.1140  193.2790   53.0120 N.3   348  LYS348     -0.1314
     65  N        -14.5240  193.3370   48.0320 N.3   404  MET404     -0.1245
     66  CA       -13.7290  194.4910   47.6240 C.3   404  MET404      0.1570
     67  C        -12.3590  194.4530   48.2810 C.2   404  MET404      0.2261
     68  O        -12.1860  193.9350   49.3920 O.2   404  MET404     -0.2867
     69  CB       -14.4400  195.8360   47.9290 C.3   404  MET404      0.0387
     70  CG       -14.0920  196.4870   49.2660 C.3   404  MET404      0.0595
     71  SD       -12.6030  197.5080   49.3320 S.3   404  MET404     -0.1393
     72  CE       -12.8110  198.6270   47.9530 C.3   404  MET404      0.0692
     73  N         -8.5880  197.1590   48.2060 N.3   406  SER406     -0.1217
     74  CA        -7.7910  198.2490   47.6700 C.3   406  SER406      0.1889
     75  C         -6.4740  198.2740   48.4280 C.2   406  SER406      0.2288
     76  O         -6.4640  198.4300   49.6440 O.2   406  SER406     -0.2866
     77  CB        -8.5070  199.5920   47.8250 C.3   406  SER406      0.2089
     78  OG        -7.6470  200.6710   47.4890 O.3   406  SER406     -0.2183
     79  N         -3.1390  202.7120   43.3790 N.3   439  ARG439     -0.1245
     80  CA        -4.0080  201.7640   44.0690 C.3   439  ARG439      0.1563
     81  C         -4.3080  200.5430   43.2120 C.2   439  ARG439      0.2260
     82  O         -4.7470  200.6670   42.0690 O.2   439  ARG439     -0.2867
     83  CB        -5.3280  202.4280   44.4960 C.3   439  ARG439      0.0307
     84  CG        -5.2350  203.1860   45.8110 C.3   439  ARG439      0.0489
     85  CD        -6.5470  203.8520   46.1940 C.3   439  ARG439      0.2205
     86  NE        -6.7600  205.1180   45.5000 N.pl3 439  ARG439     -0.0865
     87  CZ        -7.7860  205.3890   44.6920 C.cat 439  ARG439      0.5346
     88  NH1       -8.7320  204.4860   44.4350 N.pl3 439  ARG439      0.1354
     89  NH2       -7.8620  206.5850   44.1220 N.pl3 439  ARG439      0.1354
@<TRIPOS>BOND
     1    82    81    2
     2    81    80    1
     3    79    80    1
     4    80    83    1
     5    89    87    1
     6    88    87    1
     7    83    84    1
     8    87    86    2
     9    86    85    1
    10    84    85    1
    11     1     2    1
    12     5     2    1
    13     5     6    1
    14     2     3    1
    15    78    77    1
    16    66    69    1
    17    66    65    1
    18    66    67    1
    19    74    77    1
    20    74    73    1
    21    74    75    1
    22     6     8   ar
    23     6     7   ar
    24     8    10   ar
    25    69    70    1
    26    72    71    1
    27    67    68    2
    28    75    76    2
    29     3     4    2
    30     7     9   ar
    31    10    11   ar
    32    70    71    1
    33     9    11   ar
    34    11    12    1
    35    59    58    2
    36    41    40    2
    37    63    62    1
    38    63    64    1
    39    40    39    1
    40    40    44   am
    41    58    57    1
    42    42    39    1
    43    42    43    1
    44    56    57    1
    45    56    46   am
    46    60    57    1
    47    60    61    1
    48    45    48    1
    49    45    44    1
    50    45    46    1
    51    62    61    1
    52    38    39    1
    53    48    49    1
    54    46    47    2
    55    49    51   ar
    56    49    50   ar
    57    51    53   ar
    58    19    18    1
    59    50    52   ar
    60    37    35   am
    61    20    18    1
    62    29    28    2
    63    18    17    1
    64    53    54   ar
    65    52    54   ar
    66    35    34    1
    67    35    36    2
    68    25    22    1
    69    22    21    1
    70    22    23    1
    71    54    55    1
    72    28    30   am
    73    28    27    1
    74    34    31    1
    75    31    30    1
    76    31    32    1
    77    26    23    1
    78    26    27    2
    79    17    14    1
    80    23    24    2
    81    32    33    2
    82    13    14    1
    83    14    15    1
    84    15    16    2
