@<TRIPOS>MOLECULE
tmp/4cyjB00.pdb
 181 171 0 0 0
SMALL
GASTEIGER

@<TRIPOS>ATOM
      1  N         16.0090   34.9540  113.6330 N.3    50  LEU50      -0.1231
      2  CA        14.6230   35.3870  113.4660 C.3    50  LEU50       0.1693
      3  C         14.4780   36.8930  113.2600 C.2    50  LEU50       0.2592
      4  O         13.4300   37.3790  112.8420 O.2    50  LEU50      -0.2718
      5  CB        13.8210   34.9910  114.7100 C.3    50  LEU50       0.0284
      6  CG        13.8540   33.5070  115.0660 C.3    50  LEU50       0.0019
      7  CD1       13.0210   33.2330  116.2980 C.3    50  LEU50       0.0001
      8  CD2       13.3550   32.6750  113.8960 C.3    50  LEU50       0.0001
      9  N         15.5240   37.6470  113.5560 N.am   51  ASP51      -0.1960
     10  CA        15.4280   39.1010  113.4360 C.3    51  ASP51       0.1840
     11  C         15.2170   39.6670  112.0290 C.2    51  ASP51       0.2623
     12  O         16.0420   39.4870  111.1250 O.2    51  ASP51      -0.2715
     13  CB        16.6560   39.7590  114.0580 C.3    51  ASP51       0.1450
     14  CG        16.9150   39.2870  115.4730 C.2    51  ASP51       0.3671
     15  OD1       16.2600   39.8140  116.4060 O.co2  51  ASP51      -0.2456
     16  OD2       17.7710   38.3850  115.6460 O.co2  51  ASP51      -0.2456
     17  N         14.0830   40.3440  111.8690 N.am   52  THR52      -0.1937
     18  CA        13.7360   41.0170  110.6220 C.3    52  THR52       0.2028
     19  C         14.6310   42.2430  110.4020 C.2    52  THR52       0.2642
     20  O         15.0740   42.5150  109.2850 O.2    52  THR52      -0.2714
     21  CB        12.2540   41.4320  110.5670 C.3    52  THR52       0.1808
     22  OG1       12.0130   42.1550  109.3540 O.3    52  THR52      -0.2208
     23  CG2       11.8790   42.3100  111.7570 C.3    52  THR52       0.0379
     24  N         14.8830   42.9740  111.4870 N.am   53  SER53      -0.1949
     25  CA        15.6660   44.2070  111.4570 C.3    53  SER53       0.1924
     26  C         17.0400   44.0150  112.0880 C.2    53  SER53       0.2314
     27  O         17.2150   43.2260  113.0170 O.2    53  SER53      -0.2863
     28  CB        14.9260   45.2870  112.2420 C.3    53  SER53       0.2116
     29  OG        14.4250   44.7540  113.4570 O.3    53  SER53      -0.2180
     30  N         16.5280   47.1550  122.2680 N.3    54  SER54      -0.1217
     31  CA        15.9030   48.4330  122.5930 C.3    54  SER54       0.1889
     32  C         15.6230   48.5320  124.0870 C.2    54  SER54       0.2288
     33  O         15.9770   49.5150  124.7370 O.2    54  SER54      -0.2866
     34  CB        14.6030   48.6010  121.8070 C.3    54  SER54       0.2089
     35  OG        14.8540   48.5960  120.4130 O.3    54  SER54      -0.2183
     36  N         21.0100   42.9040  120.6340 N.3    60  SER60      -0.1217
     37  CA        20.4370   41.5670  120.8040 C.3    60  SER60       0.1889
     38  C         20.0000   40.8680  119.5130 C.2    60  SER60       0.2288
     39  O         19.5670   41.5060  118.5560 O.2    60  SER60      -0.2866
     40  CB        19.2810   41.5910  121.8130 C.3    60  SER60       0.2089
     41  OG        18.0790   42.0230  121.2110 O.3    60  SER60      -0.2183
     42  N         17.8430   37.0990  118.1850 N.3    62  VAL62      -0.1245
     43  CA        16.9890   35.9850  118.5970 C.3    62  VAL62       0.1561
     44  C         17.1830   34.8330  117.6290 C.2    62  VAL62       0.2260
     45  O         17.1370   35.0310  116.4270 O.2    62  VAL62      -0.2867
     46  CB        15.4930   36.3410  118.6160 C.3    62  VAL62       0.0252
     47  CG1       14.6880   35.1770  119.1910 C.3    62  VAL62       0.0019
     48  CG2       15.2480   37.5830  119.4310 C.3    62  VAL62       0.0019
     49  N         13.3190   29.4490  121.7600 N.3    75  ALA75      -0.1245
     50  CA        13.8220   30.7080  121.2290 C.3    75  ALA75       0.1562
     51  C         14.9420   31.1920  122.1370 C.2    75  ALA75       0.2260
     52  O         14.7270   31.3550  123.3300 O.2    75  ALA75      -0.2867
     53  CB        12.7110   31.7270  121.1700 C.3    75  ALA75       0.0290
     54  N         17.3070   34.1480  123.1090 N.3    77  ARG77      -0.1245
     55  CA        17.6450   35.5570  123.0210 C.3    77  ARG77       0.1563
     56  C         19.0830   35.8080  123.4880 C.2    77  ARG77       0.2260
     57  O         19.4560   35.4740  124.6120 O.2    77  ARG77      -0.2867
     58  CB        16.6680   36.4020  123.8320 C.3    77  ARG77       0.0307
     59  CG        17.2000   37.7820  124.1440 C.3    77  ARG77       0.0489
     60  CD        16.1200   38.8270  124.1410 C.3    77  ARG77       0.2205
     61  NE        15.8190   39.2850  122.7910 N.pl3  77  ARG77      -0.0865
     62  CZ        14.5960   39.4090  122.2870 C.cat  77  ARG77       0.5346
     63  NH1       13.5140   39.1070  123.0060 N.pl3  77  ARG77       0.1354
     64  NH2       14.4580   39.8410  121.0430 N.pl3  77  ARG77       0.1354
     65  N          5.8400   34.2480  128.1840 N.3   106  VAL106     -0.1245
     66  CA         6.7230   33.3150  127.5000 C.3   106  VAL106      0.1561
     67  C          7.6790   32.7350  128.5440 C.2   106  VAL106      0.2260
     68  O          8.4870   33.4430  129.1580 O.2   106  VAL106     -0.2867
     69  CB         7.5210   33.9950  126.3780 C.3   106  VAL106      0.0252
     70  CG1        8.3300   32.9650  125.6160 C.3   106  VAL106      0.0019
     71  CG2        6.5930   34.7130  125.4190 C.3   106  VAL106      0.0019
     72  N         13.9260   30.4880  125.7960 N.3   126  TYR126     -0.1227
     73  CA        12.4860   30.6670  125.8990 C.3   126  TYR126      0.1736
     74  C         11.6870   29.5970  125.1600 C.2   126  TYR126      0.2595
     75  O         12.1870   28.9440  124.2570 O.2   126  TYR126     -0.2718
     76  CB        12.1150   32.0020  125.2600 C.3   126  TYR126      0.0548
     77  CG        12.5000   33.2290  126.0510 C.ar  126  TYR126     -0.0200
     78  CD1       11.6660   33.7210  127.0470 C.ar  126  TYR126     -0.0009
     79  CD2       13.6820   33.9170  125.7860 C.ar  126  TYR126     -0.0009
     80  CE1       11.9970   34.8530  127.7620 C.ar  126  TYR126      0.0417
     81  CE2       14.0260   35.0510  126.5080 C.ar  126  TYR126      0.0417
     82  CZ        13.1790   35.5120  127.4940 C.ar  126  TYR126      0.1957
     83  OH        13.4980   36.6390  128.2140 O.3   126  TYR126     -0.2866
     84  N         10.4170   29.4380  125.5290 N.am  127  ASP127     -0.1960
     85  CA         9.4830   28.7270  124.6580 C.3   127  ASP127      0.1840
     86  C          9.5760   29.3480  123.2800 C.2   127  ASP127      0.2622
     87  O          9.7060   30.5550  123.1620 O.2   127  ASP127     -0.2715
     88  CB         8.0370   28.8670  125.1380 C.3   127  ASP127      0.1450
     89  CG         7.6740   27.8760  126.2120 C.2   127  ASP127      0.3671
     90  OD1        8.4480   26.9220  126.4300 O.co2 127  ASP127     -0.2456
     91  OD2        6.6050   28.0560  126.8410 O.co2 127  ASP127     -0.2456
     92  N          9.5180   28.5260  122.2430 N.am  128  PHE128     -0.1960
     93  CA         9.4500   29.0400  120.8840 C.3   128  PHE128      0.1771
     94  C          7.9900   29.1480  120.4410 C.2   128  PHE128      0.2619
     95  O          7.2230   28.2030  120.5930 O.2   128  PHE128     -0.2715
     96  CB        10.2270   28.1230  119.9350 C.3   128  PHE128      0.0574
     97  CG        10.1090   28.5100  118.4870 C.ar  128  PHE128     -0.0200
     98  CD1       10.6050   29.7250  118.0420 C.ar  128  PHE128     -0.0042
     99  CD2        9.5120   27.6590  117.5710 C.ar  128  PHE128     -0.0042
    100  CE1       10.5050   30.0900  116.7140 C.ar  128  PHE128     -0.0003
    101  CE2        9.4070   28.0170  116.2420 C.ar  128  PHE128     -0.0003
    102  CZ         9.9050   29.2360  115.8110 C.ar  128  PHE128     -0.0000
    103  N          7.6180   30.3030  119.9000 N.am  129  HIS129     -0.1973
    104  CA         6.2750   30.5280  119.3630 C.3   129  HIS129      0.1656
    105  C          6.3530   30.8840  117.8760 C.2   129  HIS129      0.2291
    106  O          6.6110   32.0330  117.5230 O.2   129  HIS129     -0.2864
    107  CB         5.5670   31.6400  120.1420 C.3   129  HIS129      0.0771
    108  CG         5.2440   31.2650  121.5560 C.ar  129  HIS129      0.0820
    109  ND1        4.1630   30.4780  121.8860 N.ar  129  HIS129     -0.2267
    110  CD2        5.8740   31.5490  122.7200 C.ar  129  HIS129      0.1154
    111  CE1        4.1380   30.2960  123.1950 C.ar  129  HIS129      0.1986
    112  NE2        5.1620   30.9380  123.7240 N.ar  129  HIS129     -0.2212
    113  N          5.3230   34.2750  115.4010 N.3   132  SER132     -0.1202
    114  CA         4.9370   35.3660  116.2870 C.3   132  SER132      0.2020
    115  C          5.3430   36.7070  115.7180 C.2   132  SER132      0.2619
    116  O          6.3520   36.8150  115.0340 O.2   132  SER132     -0.2717
    117  CB         5.6200   35.2140  117.6420 C.3   132  SER132      0.2103
    118  OG         5.0540   34.1550  118.3870 O.3   132  SER132     -0.2182
    119  N          4.5480   37.7290  115.9930 N.am  133  LYS133     -0.1965
    120  CA         4.9480   39.1000  115.7090 C.3   133  LYS133      0.1728
    121  C          4.6830   39.9620  116.9320 C.2   133  LYS133      0.2616
    122  O          3.7390   39.7240  117.6580 O.2   133  LYS133     -0.2715
    123  CB         4.2270   39.6530  114.4770 C.3   133  LYS133      0.0311
    124  CG         2.7270   39.7730  114.6260 C.3   133  LYS133      0.0038
    125  CD         2.1410   40.6900  113.5630 C.3   133  LYS133      0.0206
    126  CE         2.2910   40.1330  112.1600 C.3   133  LYS133      0.1093
    127  NZ         1.2360   40.6740  111.2560 N.3   133  LYS133     -0.1314
    128  N          5.5260   40.9570  117.1620 N.am  134  THR134     -0.1951
    129  CA         5.3590   41.8490  118.3060 C.3   134  THR134      0.1897
    130  C          4.1770   42.7960  118.1130 C.2   134  THR134      0.2313
    131  O          3.7180   43.0160  116.9920 O.2   134  THR134     -0.2863
    132  CB         6.6110   42.7090  118.5380 C.3   134  THR134      0.1794
    133  OG1        6.7520   43.6240  117.4470 O.3   134  THR134     -0.2208
    134  CG2        7.8540   41.8400  118.6490 C.3   134  THR134      0.0378
    135  N          4.3960   45.8750  118.4420 N.3   136  GLN136     -0.1231
    136  CA         4.9360   47.0150  117.7060 C.3   136  GLN136      0.1698
    137  C          4.8520   46.7820  116.2040 C.2   136  GLN136      0.2592
    138  O          4.3290   47.6200  115.4690 O.2   136  GLN136     -0.2718
    139  CB         6.3760   47.3030  118.1050 C.3   136  GLN136      0.0381
    140  CG         6.9340   48.5420  117.4320 C.3   136  GLN136      0.0905
    141  CD         8.0070   49.2140  118.2590 C.2   136  GLN136      0.2608
    142  OE1        7.7220   49.8040  119.3030 O.2   136  GLN136     -0.2717
    143  NE2        9.2510   49.1250  117.8040 N.am  136  GLN136     -0.0878
    144  N          5.3800   45.6440  115.7630 N.am  137  GLU137     -0.1979
    145  CA         5.2710   45.2080  114.3750 C.3   137  GLU137      0.1602
    146  C          3.8160   45.1880  113.8870 C.2   137  GLU137      0.2287
    147  O          3.5400   45.5110  112.7330 O.2   137  GLU137     -0.2864
    148  CB         5.9010   43.8200  114.2190 C.3   137  GLU137      0.0415
    149  CG         7.4200   43.8560  114.0630 C.3   137  GLU137      0.1163
    150  CD         8.1240   42.6110  114.6110 C.2   137  GLU137      0.3649
    151  OE1        7.4690   41.5470  114.7570 O.co2 137  GLU137     -0.2457
    152  OE2        9.3400   42.7110  114.9040 O.co2 137  GLU137     -0.2457
    153  N          7.1780   46.3080  121.7730 N.3   181  SER181     -0.1202
    154  CA         8.2080   45.5280  121.1070 C.3   181  SER181      0.2020
    155  C          8.5980   44.2510  121.8550 C.2   181  SER181      0.2618
    156  O          9.1450   43.3250  121.2620 O.2   181  SER181     -0.2717
    157  CB         9.4440   46.4020  120.9120 C.3   181  SER181      0.2103
    158  OG         9.9870   46.7830  122.1600 O.3   181  SER181     -0.2182
    159  N          8.2640   44.1710  123.1350 N.am  182  LYS182     -0.1979
    160  CA         8.6290   43.0080  123.9350 C.3   182  LYS182      0.1596
    161  C          7.3810   42.2570  124.4120 C.2   182  LYS182      0.2287
    162  O          7.4510   41.4520  125.3370 O.2   182  LYS182     -0.2864
    163  CB         9.5090   43.4230  125.1140 C.3   182  LYS182      0.0298
    164  CG        10.8130   44.0950  124.7040 C.3   182  LYS182      0.0038
    165  CD        11.7460   43.1440  123.9590 C.3   182  LYS182      0.0206
    166  CE        12.8800   43.8940  123.2680 C.3   182  LYS182      0.1093
    167  NZ        12.4890   44.3990  121.9260 N.3   182  LYS182     -0.1314
    168  N          4.5250   39.7730  122.4890 N.3   184  ILE184     -0.1245
    169  CA         4.2720   39.1070  121.2040 C.3   184  ILE184      0.1561
    170  C          2.8620   38.5360  121.0360 C.2   184  ILE184      0.2260
    171  O          2.3010   37.9420  121.9600 O.2   184  ILE184     -0.2867
    172  CB         5.2990   37.9740  120.9240 C.3   184  ILE184      0.0252
    173  CG1        5.2400   36.8880  121.9960 C.3   184  ILE184      0.0019
    174  CG2        6.6960   38.5610  120.8140 C.3   184  ILE184      0.0019
    175  CD1        6.1290   35.6930  121.6920 C.3   184  ILE184      0.0001
    176  N          7.3980   38.6850  126.3760 N.3   194  SER194     -0.1217
    177  CA         8.4770   37.8740  125.7960 C.3   194  SER194      0.1889
    178  C          9.9030   38.1610  126.2850 C.2   194  SER194      0.2288
    179  O         10.8250   37.4700  125.8680 O.2   194  SER194     -0.2866
    180  CB         8.4410   37.9840  124.2720 C.3   194  SER194      0.2089
    181  OG         8.4650   39.3390  123.8840 O.3   194  SER194     -0.2183
@<TRIPOS>BOND
     1    20    19    2
     2    22    21    1
     3    19    18    1
     4    19    24   am
     5    21    18    1
     6    21    23    1
     7    18    17    1
     8    12    11    2
     9   127   126    1
    10    25    24    1
    11    25    26    1
    12    25    28    1
    13    17    11   am
    14    11    10    1
    15    26    27    2
    16   126   125    1
    17    28    29    1
    18   147   146    2
    19     4     3    2
    20     3     2    1
    21     3     9   am
    22    10     9    1
    23    10    13    1
    24     2     1    1
    25     2     5    1
    26   125   124    1
    27   146   145    1
    28     8     6    1
    29    13    14    1
    30   149   148    1
    31   149   150    1
    32   148   145    1
    33   145   144    1
    34   123   124    1
    35   123   120    1
    36   150   151   ar
    37   150   152   ar
    38     5     6    1
    39   116   115    2
    40     6     7    1
    41   113   114    1
    42   138   137    2
    43    14    16   ar
    44    14    15   ar
    45   120   119    1
    46   120   121    1
    47   115   119   am
    48   115   114    1
    49   144   137   am
    50   102   101   ar
    51   102   100   ar
    52   137   136    1
    53   101    99   ar
    54   114   117    1
    55    45    44    2
    56   100    98   ar
    57   121   128   am
    58   121   122    2
    59   131   130    2
    60   128   129    1
    61   140   139    1
    62   140   141    1
    63   133   132    1
    64   106   105    2
    65    99    97   ar
    66    44    43    1
    67   117   118    1
    68   136   139    1
    69   136   135    1
    70   143   141   am
    71   105   104    1
    72    98    97   ar
    73   130   129    1
    74    42    43    1
    75   141   142    2
    76   129   132    1
    77    97    96    1
    78   132   134    1
    79    39    38    2
    80    43    46    1
    81    46    47    1
    82    46    48    1
    83   104   103    1
    84   104   107    1
    85    38    37    1
    86   103    94   am
    87    96    93    1
    88   107   108    1
    89    35    34    1
    90    94    95    2
    91    94    93    1
    92    36    37    1
    93    37    40    1
    94   174   172    1
    95    93    92    1
    96   157   154    1
    97   157   158    1
    98   172   169    1
    99   172   173    1
   100   170   169    1
   101   170   171    2
   102    64    62    1
   103   154   153    1
   104   154   155    1
   105    53    50    1
   106   169   168    1
   107    41    40    1
   108    50    49    1
   109    50    51    1
   110   156   155    2
   111   108   109   ar
   112   108   110   ar
   113   175   173    1
   114    34    31    1
   115   155   159   am
   116   109   111   ar
   117   167   166    1
   118    51    52    2
   119    92    86   am
   120    30    31    1
   121    62    61    2
   122    62    63    1
   123    31    32    1
   124   110   112   ar
   125    61    60    1
   126    55    54    1
   127    55    56    1
   128    55    58    1
   129   159   160    1
   130    87    86    2
   131   111   112   ar
   132   166   165    1
   133    86    85    1
   134    56    57    2
   135    58    59    1
   136   181   180    1
   137   160   161    1
   138   160   163    1
   139   165   164    1
   140    32    33    2
   141    60    59    1
   142    75    74    2
   143   180   177    1
   144   161   162    2
   145    85    88    1
   146    85    84    1
   147   164   163    1
   148    88    89    1
   149    74    84   am
   150    74    73    1
   151    76    73    1
   152    76    77    1
   153    71    69    1
   154    70    69    1
   155    79    77   ar
   156    79    81   ar
   157   177   178    1
   158   177   176    1
   159    72    73    1
   160   179   178    2
   161    77    78   ar
   162    89    90   ar
   163    89    91   ar
   164    69    66    1
   165    81    82   ar
   166    78    80   ar
   167    82    80   ar
   168    82    83    1
   169    66    65    1
   170    66    67    1
   171    67    68    2
