@<TRIPOS>MOLECULE
tmp/4cymC00.pdb
 195 191 0 0 0
SMALL
GASTEIGER

@<TRIPOS>ATOM
      1  N          1.4340  -64.4820    2.9650 N.3    13  LEU13      -0.1231
      2  CA         2.3010  -65.5550    2.4980 C.3    13  LEU13       0.1693
      3  C          3.2300  -65.1280    1.3780 C.2    13  LEU13       0.2593
      4  O          3.0240  -64.1150    0.7270 O.2    13  LEU13      -0.2718
      5  CB         1.4620  -66.7280    2.0170 C.3    13  LEU13       0.0284
      6  CG         0.5910  -66.4440    0.7930 C.3    13  LEU13       0.0019
      7  CD1        0.8220  -67.5160   -0.2520 C.3    13  LEU13       0.0001
      8  CD2       -0.8800  -66.3870    1.1650 C.3    13  LEU13       0.0001
      9  N          4.2250  -65.9680    1.1360 N.am   14  GLY14      -0.1942
     10  CA         5.3050  -65.7240    0.1600 C.3    14  GLY14       0.2014
     11  C          5.9210  -64.3490   -0.0110 C.2    14  GLY14       0.2639
     12  O          6.5090  -64.0430   -1.0460 O.2    14  GLY14      -0.2714
     13  N          5.8270  -63.5280    1.0130 N.am   15  VAL15      -0.1963
     14  CA         6.1710  -62.1200    0.8940 C.3    15  VAL15       0.1727
     15  C          7.6640  -61.9080    1.1400 C.2    15  VAL15       0.2617
     16  O          8.2270  -60.9120    0.6870 O.2    15  VAL15      -0.2715
     17  CB         5.2980  -61.3190    1.8680 C.3    15  VAL15       0.0290
     18  CG1        6.1050  -60.3550    2.7070 C.3    15  VAL15       0.0023
     19  CG2        4.1810  -60.6190    1.1030 C.3    15  VAL15       0.0023
     20  N          8.2950  -62.8610    1.8400 N.am   16  GLY16      -0.1940
     21  CA         9.7400  -62.8380    2.1240 C.3    16  GLY16       0.2014
     22  C         10.1380  -62.7570    3.5970 C.2    16  GLY16       0.2639
     23  O         11.3180  -62.5650    3.9210 O.2    16  GLY16      -0.2714
     24  N          9.1530  -62.8560    4.4940 N.am   17  LYS17      -0.1963
     25  CA         9.3720  -62.5770    5.9150 C.3    17  LYS17       0.1728
     26  C         10.5060  -63.4670    6.4370 C.2    17  LYS17       0.2617
     27  O         11.5090  -62.9810    6.9390 O.2    17  LYS17      -0.2715
     28  CB         8.1020  -62.8330    6.7070 C.3    17  LYS17       0.0311
     29  CG         6.9410  -61.9550    6.2870 C.3    17  LYS17       0.0038
     30  CD         5.6550  -62.1780    7.0900 C.3    17  LYS17       0.0206
     31  CE         5.1220  -63.6020    7.0100 C.3    17  LYS17       0.1093
     32  NZ         4.7850  -64.0710    5.6390 N.3    17  LYS17      -0.1314
     33  N         10.3790  -64.7650    6.2220 N.am   18  THR18      -0.1937
     34  CA        11.4190  -65.6780    6.6160 C.3    18  THR18       0.2028
     35  C         12.7630  -65.3340    5.9580 C.2    18  THR18       0.2642
     36  O         13.7930  -65.3550    6.6260 O.2    18  THR18      -0.2714
     37  CB        11.0220  -67.1280    6.3000 C.3    18  THR18       0.1808
     38  OG1        9.8630  -67.4720    7.0720 O.3    18  THR18      -0.2208
     39  CG2       12.1430  -68.0830    6.6400 C.3    18  THR18       0.0379
     40  N         12.7510  -65.0260    4.6600 N.am   19  SER19      -0.1949
     41  CA        13.9830  -64.7850    3.8950 C.3    19  SER19       0.1924
     42  C         14.7500  -63.5550    4.3500 C.2    19  SER19       0.2314
     43  O         15.9810  -63.5550    4.4360 O.2    19  SER19      -0.2863
     44  CB        13.6480  -64.5850    2.4250 C.3    19  SER19       0.2116
     45  OG        13.1260  -65.7580    1.8640 O.3    19  SER19      -0.2180
     46  N         20.3950  -66.6650    1.5460 N.3    29  PHE29      -0.1227
     47  CA        19.1410  -66.5720    0.8150 C.3    29  PHE29       0.1736
     48  C         18.9070  -67.8330    0.0060 C.2    29  PHE29       0.2596
     49  O         19.8390  -68.3820   -0.5730 O.2    29  PHE29      -0.2718
     50  CB        19.1590  -65.3750   -0.0980 C.3    29  PHE29       0.0547
     51  CG        17.9650  -65.2860   -0.9760 C.ar   29  PHE29      -0.0202
     52  CD1       17.9610  -65.8850   -2.2150 C.ar   29  PHE29      -0.0042
     53  CD2       16.8390  -64.6070   -0.5630 C.ar   29  PHE29      -0.0042
     54  CE1       16.8520  -65.8000   -3.0400 C.ar   29  PHE29      -0.0003
     55  CE2       15.7210  -64.5060   -1.3810 C.ar   29  PHE29      -0.0003
     56  CZ        15.7270  -65.1100   -2.6240 C.ar   29  PHE29      -0.0000
     57  N         17.6640  -68.3000   -0.0360 N.am   30  SER30      -0.1938
     58  CA        17.3190  -69.3950   -0.9390 C.3    30  SER30       0.2055
     59  C         16.1160  -69.0400   -1.8160 C.2    30  SER30       0.2643
     60  O         15.1810  -68.3820   -1.3640 O.2    30  SER30      -0.2714
     61  CB        17.0460  -70.6570   -0.1510 C.3    30  SER30       0.2130
     62  OG        16.6710  -71.6960   -1.0300 O.3    30  SER30      -0.2179
     63  N         16.1770  -69.4280   -3.0850 N.am   31  GLN31      -0.1963
     64  CA        15.0650  -69.1970   -4.0030 C.3    31  GLN31       0.1733
     65  C         13.9180  -70.1550   -3.6870 C.2    31  GLN31       0.2616
     66  O         12.7820  -69.8860   -4.0250 O.2    31  GLN31      -0.2715
     67  CB        15.5210  -69.3180   -5.4670 C.3    31  GLN31       0.0408
     68  CG        14.5880  -68.6520   -6.4740 C.3    31  GLN31       0.0908
     69  CD        14.4090  -67.1390   -6.2700 C.2    31  GLN31       0.2608
     70  OE1       15.2930  -66.3460   -6.6100 O.2    31  GLN31      -0.2717
     71  NE2       13.2460  -66.7330   -5.7470 N.am   31  GLN31      -0.0878
     72  N         14.2280  -71.2510   -3.0010 N.am   32  HIS32      -0.1959
     73  CA        13.2810  -72.3150   -2.7150 C.3    32  HIS32       0.1787
     74  C         12.3360  -71.8530   -1.6080 C.2    32  HIS32       0.2620
     75  O         12.7840  -71.3090   -0.5870 O.2    32  HIS32      -0.2715
     76  CB        14.0900  -73.5330   -2.2930 C.3    32  HIS32       0.0785
     77  CG        13.2950  -74.7830   -2.1330 C.ar   32  HIS32       0.0821
     78  ND1       12.9690  -75.3000   -0.8990 N.ar   32  HIS32      -0.2267
     79  CD2       12.8190  -75.6610   -3.0470 C.ar   32  HIS32       0.1154
     80  CE1       12.2970  -76.4270   -1.0580 C.ar   32  HIS32       0.1986
     81  NE2       12.1940  -76.6700   -2.3510 N.ar   32  HIS32      -0.2212
     82  N         11.0280  -72.0300   -1.8210 N.am   33  TYR33      -0.1960
     83  CA         9.9950  -71.5920   -0.8520 C.3    33  TYR33       0.1771
     84  C          9.4890  -72.7120    0.0620 C.2    33  TYR33       0.2619
     85  O          8.9600  -73.7220   -0.3910 O.2    33  TYR33      -0.2715
     86  CB         8.8120  -70.9910   -1.5790 C.3    33  TYR33       0.0574
     87  CG         7.6560  -70.5090   -0.7130 C.ar   33  TYR33      -0.0198
     88  CD1        7.8140  -70.1220    0.6080 C.ar   33  TYR33      -0.0009
     89  CD2        6.3890  -70.4310   -1.2420 C.ar   33  TYR33      -0.0009
     90  CE1        6.7190  -69.6880    1.3520 C.ar   33  TYR33       0.0417
     91  CE2        5.3030  -69.9900   -0.5090 C.ar   33  TYR33       0.0417
     92  CZ         5.4580  -69.6140    0.7750 C.ar   33  TYR33       0.1957
     93  OH         4.3320  -69.1830    1.4500 O.3    33  TYR33      -0.2866
     94  N          9.6580  -72.5250    1.3630 N.am   34  ARG34      -0.1963
     95  CA         9.1060  -73.4550    2.3230 C.3    34  ARG34       0.1729
     96  C          8.2740  -72.6540    3.2940 C.2    34  ARG34       0.2616
     97  O          8.8000  -71.8700    4.0760 O.2    34  ARG34      -0.2715
     98  CB        10.2330  -74.2130    3.0220 C.3    34  ARG34       0.0348
     99  CG        11.2060  -74.8540    2.0240 C.3    34  ARG34       0.0492
    100  CD        11.2300  -76.3630    2.0770 C.3    34  ARG34       0.2205
    101  NE        10.9290  -76.8970    3.4050 N.pl3  34  ARG34      -0.0865
    102  CZ        11.7140  -77.6630    4.1600 C.cat  34  ARG34       0.5346
    103  NH1       12.9250  -78.0450    3.7580 N.pl3  34  ARG34       0.1354
    104  NH2       11.2740  -78.0530    5.3580 N.pl3  34  ARG34       0.1354
    105  N          6.9620  -72.8270    3.2070 N.am   35  ALA35      -0.1963
    106  CA         6.0490  -72.0160    3.9820 C.3    35  ALA35       0.1728
    107  C          6.2950  -72.3170    5.4450 C.2    35  ALA35       0.2616
    108  O          6.5170  -73.4710    5.8500 O.2    35  ALA35      -0.2715
    109  CB         4.6150  -72.3140    3.6210 C.3    35  ALA35       0.0334
    110  N          6.2480  -71.2520    6.2250 N.am   36  THR36      -0.1951
    111  CA         6.4660  -71.3250    7.6390 C.3    36  THR36       0.1897
    112  C          5.2790  -72.0180    8.3300 C.2    36  THR36       0.2313
    113  O          4.1260  -71.7340    8.0180 O.2    36  THR36      -0.2863
    114  CB         6.7590  -69.9100    8.1580 C.3    36  THR36       0.1794
    115  OG1        8.0270  -69.5230    7.6320 O.3    36  THR36      -0.2208
    116  CG2        6.7990  -69.8500    9.6720 C.3    36  THR36       0.0378
    117  N          9.0350  -64.6080   13.4990 N.3    60  ASP60      -0.1239
    118  CA         8.6110  -64.8190   12.1220 C.3    60  ASP60       0.1674
    119  C          7.2480  -65.5030   12.0970 C.2    60  ASP60       0.2266
    120  O          7.1150  -66.6580   12.4660 O.2    60  ASP60      -0.2867
    121  CB         9.6550  -65.6790   11.4460 C.3    60  ASP60       0.1410
    122  CG         9.3640  -65.9280   10.0150 C.2    60  ASP60       0.3668
    123  OD1        8.3420  -65.3940    9.5270 O.co2  60  ASP60      -0.2456
    124  OD2       10.1700  -66.6750    9.3970 O.co2  60  ASP60      -0.2456
    125  N          3.7780  -66.8130   10.3510 N.3    62  ALA62      -0.1231
    126  CA         3.4570  -67.3660    9.0550 C.3    62  ALA62       0.1694
    127  C          2.2780  -66.5730    8.5030 C.2    62  ALA62       0.2593
    128  O          1.4390  -66.1370    9.2740 O.2    62  ALA62      -0.2718
    129  CB         3.1340  -68.8480    9.1950 C.3    62  ALA62       0.0304
    130  N          2.2080  -66.3800    7.1900 N.am   63  GLY63      -0.1942
    131  CA         1.2000  -65.4780    6.6500 C.3    63  GLY63       0.2014
    132  C         -0.2190  -65.9930    6.8270 C.2    63  GLY63       0.2638
    133  O         -1.1870  -65.2160    6.8670 O.2    63  GLY63      -0.2714
    134  N         -0.3310  -67.3150    6.9430 N.am   64  LEU64      -0.1977
    135  CA        -1.5870  -67.9970    7.1790 C.3    64  LEU64       0.1596
    136  C         -2.1920  -67.6740    8.5200 C.2    64  LEU64       0.2287
    137  O         -3.3880  -67.8380    8.7140 O.2    64  LEU64      -0.2864
    138  CB        -1.3660  -69.5040    7.1370 C.3    64  LEU64       0.0297
    139  CG        -2.5630  -70.4530    7.3330 C.3    64  LEU64       0.0022
    140  CD1       -3.6420  -70.1390    6.3120 C.3    64  LEU64       0.0001
    141  CD2       -2.1460  -71.9050    7.2080 C.3    64  LEU64       0.0001
    142  N          9.2670  -55.5540   -0.1300 N.3   122  ASN122     -0.1225
    143  CA        10.3130  -56.5400   -0.3380 C.3   122  ASN122      0.1785
    144  C         10.3570  -57.0220   -1.7820 C.2   122  ASN122      0.2597
    145  O          9.3600  -56.9300   -2.4910 O.2   122  ASN122     -0.2718
    146  CB        10.1650  -57.7260    0.6120 C.3   122  ASN122      0.1169
    147  CG        11.3960  -58.6280    0.6110 C.2   122  ASN122      0.2627
    148  OD1       11.2770  -59.8530    0.4970 O.2   122  ASN122     -0.2716
    149  ND2       12.5850  -58.0350    0.7000 N.am  122  ASN122     -0.0877
    150  N         11.5140  -57.5670   -2.1750 N.am  123  LYS123     -0.1980
    151  CA        11.7750  -58.1030   -3.5160 C.3   123  LYS123      0.1596
    152  C         11.9300  -56.9790   -4.5250 C.2   123  LYS123      0.2287
    153  O         11.4250  -57.0680   -5.6510 O.2   123  LYS123     -0.2864
    154  CB        10.6770  -59.0810   -3.9860 C.3   123  LYS123      0.0298
    155  CG        10.5450  -60.3610   -3.2020 C.3   123  LYS123      0.0038
    156  CD         9.0990  -60.8070   -3.2080 C.3   123  LYS123      0.0206
    157  CE         8.8900  -62.1150   -2.4550 C.3   123  LYS123      0.1093
    158  NZ         8.6380  -63.2680   -3.3660 N.3   123  LYS123     -0.1314
    159  N         14.6070  -55.9340   -5.9580 N.3   125  ASP125     -0.1225
    160  CA        15.2820  -56.5260   -7.1010 C.3   125  ASP125      0.1805
    161  C         14.3740  -57.0090   -8.2500 C.2   125  ASP125      0.2597
    162  O         14.8840  -57.3940   -9.2950 O.2   125  ASP125     -0.2718
    163  CB        16.1510  -57.6900   -6.6410 C.3   125  ASP125      0.1424
    164  CG        15.3330  -58.8440   -6.0920 C.2   125  ASP125      0.3668
    165  OD1       14.8740  -58.7390   -4.9380 O.co2 125  ASP125     -0.2456
    166  OD2       15.1520  -59.8490   -6.8090 O.co2 125  ASP125     -0.2456
    167  N         13.0560  -57.0130   -8.0780 N.am  126  GLN126     -0.1979
    168  CA        12.1360  -57.4190   -9.1460 C.3   126  GLN126      0.1601
    169  C         11.3670  -56.2400   -9.7630 C.2   126  GLN126      0.2287
    170  O         11.5560  -55.0880   -9.3740 O.2   126  GLN126     -0.2864
    171  CB        11.1480  -58.4480   -8.6030 C.3   126  GLN126      0.0394
    172  CG        11.7620  -59.7890   -8.2520 C.3   126  GLN126      0.0908
    173  CD        10.6860  -60.8220   -7.9320 C.2   126  GLN126      0.2608
    174  OE1        9.5070  -60.4790   -7.7300 O.2   126  GLN126     -0.2717
    175  NE2       11.0790  -62.0880   -7.8660 N.am  126  GLN126     -0.0878
    176  N         15.5280  -55.9830   -0.3250 N.3   153  SER153     -0.1202
    177  CA        15.6650  -57.2620   -0.9920 C.3   153  SER153      0.2020
    178  C         16.4470  -58.2440   -0.1500 C.2   153  SER153      0.2619
    179  O         17.6430  -58.0810    0.0750 O.2   153  SER153     -0.2717
    180  CB        16.3510  -57.1070   -2.3430 C.3   153  SER153      0.2103
    181  OG        16.6190  -58.3770   -2.9160 O.3   153  SER153     -0.2182
    182  N         15.7670  -59.3050    0.2610 N.am  154  ALA154     -0.1965
    183  CA        16.4350  -60.4640    0.8150 C.3   154  ALA154      0.1728
    184  C         17.4050  -61.0850   -0.1670 C.2   154  ALA154      0.2616
    185  O         18.4190  -61.6200    0.2520 O.2   154  ALA154     -0.2715
    186  CB        15.4190  -61.5070    1.2490 C.3   154  ALA154      0.0334
    187  N         17.1060  -61.0460   -1.4650 N.am  155  LYS155     -0.1977
    188  CA        17.9760  -61.7150   -2.4330 C.3   155  LYS155      0.1596
    189  C         19.3340  -61.0190   -2.4980 C.2   155  LYS155      0.2287
    190  O         20.3750  -61.6780   -2.4320 O.2   155  LYS155     -0.2864
    191  CB        17.3580  -61.7310   -3.8160 C.3   155  LYS155      0.0298
    192  CG        18.1240  -62.6110   -4.7840 C.3   155  LYS155      0.0038
    193  CD        17.8930  -62.1090   -6.2170 C.3   155  LYS155      0.0206
    194  CE        16.6290  -62.6930   -6.8140 C.3   155  LYS155      0.1093
    195  NZ        16.9180  -64.0490   -7.3300 N.3   155  LYS155     -0.1314
@<TRIPOS>BOND
     1   169   170    2
     2   169   168    1
     3   162   161    2
     4   168   171    1
     5   168   167    1
     6   171   172    1
     7   172   173    1
     8   161   167   am
     9   161   160    1
    10   173   175   am
    11   173   174    2
    12   195   194    1
    13   160   163    1
    14   160   159    1
    15   194   193    1
    16   166   164   ar
    17   163   164    1
    18    70    69    2
    19    68    69    1
    20    68    67    1
    21    69    71   am
    22   193   192    1
    23   164   165   ar
    24   153   152    2
    25    67    64    1
    26   192   191    1
    27   152   151    1
    28    66    65    2
    29    64    65    1
    30    64    63    1
    31   154   151    1
    32   154   155    1
    33   191   188    1
    34    65    72   am
    35   151   150    1
    36   158   157    1
    37   156   155    1
    38   156   157    1
    39    63    59   am
    40    79    81   ar
    41    79    77   ar
    42    54    56   ar
    43    54    52   ar
    44    72    73    1
    45   181   180    1
    46    73    76    1
    47    73    74    1
    48    56    55   ar
    49   189   188    1
    50   189   190    2
    51   145   144    2
    52   188   187    1
    53    81    80   ar
    54   180   177    1
    55    76    77    1
    56    52    51   ar
    57   150   144   am
    58    77    78   ar
    59    82    74   am
    60    82    83    1
    61    59    60    2
    62    59    58    1
    63   144   143    1
    64    74    75    2
    65    86    83    1
    66    86    87    1
    67   187   184   am
    68    55    53   ar
    69    89    87   ar
    70    89    91   ar
    71    80    78   ar
    72    12    11    2
    73    62    61    1
    74   177   176    1
    75   177   178    1
    76    51    53   ar
    77    51    50    1
    78    58    61    1
    79    58    57    1
    80    83    84    1
    81    87    88   ar
    82    49    48    2
    83    91    92   ar
    84    85    84    2
    85   143   142    1
    86   143   146    1
    87     7     6    1
    88   184   185    2
    89   184   183    1
    90   178   179    2
    91   178   182   am
    92    50    47    1
    93    57    48   am
    94    11    10    1
    95    11    13   am
    96    48    47    1
    97    84    94   am
    98    10     9    1
    99   182   183    1
   100   148   147    2
   101    88    90   ar
   102   147   146    1
   103   147   149   am
   104    16    15    2
   105     4     3    2
   106    92    90   ar
   107    92    93    1
   108     6     8    1
   109     6     5    1
   110    47    46    1
   111   183   186    1
   112    14    13    1
   113    14    15    1
   114    14    17    1
   115    19    17    1
   116     9     3   am
   117    15    20   am
   118    94    95    1
   119     3     2    1
   120    20    21    1
   121    45    44    1
   122    17    18    1
   123     5     2    1
   124    99   100    1
   125    99    98    1
   126   100   101    1
   127    21    22    1
   128    95    98    1
   129    95    96    1
   130    44    41    1
   131     2     1    1
   132   105    96   am
   133   105   106    1
   134    96    97    2
   135   101   102    2
   136    22    23    2
   137    22    24   am
   138   109   106    1
   139   103   102    1
   140    41    42    1
   141    41    40    1
   142   106   107    1
   143   102   104    1
   144    42    43    2
   145    24    25    1
   146    40    35   am
   147   107   108    2
   148   107   110   am
   149    32    31    1
   150    25    26    1
   151    25    28    1
   152    35    34    1
   153    35    36    2
   154    33    26   am
   155    33    34    1
   156   110   111    1
   157    29    28    1
   158    29    30    1
   159    37    34    1
   160    37    39    1
   161    37    38    1
   162   140   139    1
   163    26    27    2
   164   131   132    1
   165   131   130    1
   166   132   133    2
   167   132   134   am
   168   134   135    1
   169    31    30    1
   170   138   135    1
   171   138   139    1
   172   135   136    1
   173   130   127   am
   174   141   139    1
   175   115   114    1
   176   111   114    1
   177   111   112    1
   178   113   112    2
   179   114   116    1
   180   127   126    1
   181   127   128    2
   182   136   137    2
   183   126   129    1
   184   126   125    1
   185   124   122   ar
   186   123   122   ar
   187   122   121    1
   188   121   118    1
   189   119   118    1
   190   119   120    2
   191   118   117    1
