@<TRIPOS>MOLECULE
tmp/4cyoA00.pdb
 261 257 0 0 0
SMALL
GASTEIGER

@<TRIPOS>ATOM
      1  N          6.7950   40.0400   66.6150 N.3    70  TYR70      -0.1227
      2  CA         6.3250   40.7320   65.3730 C.3    70  TYR70       0.1736
      3  C          7.0960   42.0270   65.0870 C.2    70  TYR70       0.2595
      4  O          8.2320   42.2390   65.5320 O.2    70  TYR70      -0.2718
      5  CB         4.8160   40.9880   65.4390 C.3    70  TYR70       0.0548
      6  CG         4.1070   41.2190   64.0720 C.ar   70  TYR70      -0.0200
      7  CD1        4.3680   40.3100   62.9460 C.ar   70  TYR70      -0.0009
      8  CD2        3.1780   42.2290   63.9240 C.ar   70  TYR70      -0.0009
      9  CE1        3.7640   40.4940   61.7040 C.ar   70  TYR70       0.0417
     10  CE2        2.4910   42.3910   62.7300 C.ar   70  TYR70       0.0417
     11  CZ         2.8080   41.5370   61.6490 C.ar   70  TYR70       0.1957
     12  OH         2.1390   41.7710   60.4950 O.3    70  TYR70      -0.2866
     13  N          6.5250   42.8910   64.2250 N.am   71  VAL71      -0.1966
     14  CA         7.2670   44.0360   63.6750 C.3    71  VAL71       0.1727
     15  C          7.6720   45.0370   64.8110 C.2    71  VAL71       0.2616
     16  O          6.9120   45.3850   65.6980 O.2    71  VAL71      -0.2715
     17  CB         6.3530   44.7900   62.6270 C.3    71  VAL71       0.0290
     18  CG1        7.0250   46.0270   62.0740 C.3    71  VAL71       0.0023
     19  CG2        6.1010   43.8510   61.4040 C.3    71  VAL71       0.0023
     20  N          8.9420   45.4300   64.6910 N.am   72  GLU72      -0.1963
     21  CA         9.5900   46.5250   65.5080 C.3    72  GLU72       0.1733
     22  C          9.9080   47.7160   64.6590 C.2    72  GLU72       0.2616
     23  O          9.9670   47.6100   63.4470 O.2    72  GLU72      -0.2715
     24  CB        10.9100   45.9750   66.1420 C.3    72  GLU72       0.0429
     25  CG        10.6040   44.7800   67.0600 C.3    72  GLU72       0.1163
     26  CD        11.8800   44.1980   67.6880 C.2    72  GLU72       0.3649
     27  OE1       13.0330   44.6990   67.5050 O.co2  72  GLU72      -0.2457
     28  OE2       11.7160   43.0730   68.2390 O.co2  72  GLU72      -0.2457
     29  N         10.1070   48.8390   65.3540 N.am   73  ASP73      -0.1971
     30  CA        10.7060   49.9870   64.6080 C.3    73  ASP73       0.1709
     31  C         12.1870   49.6530   64.2330 C.2    73  ASP73       0.2293
     32  O         12.7370   48.6290   64.5770 O.2    73  ASP73      -0.2864
     33  CB        10.6940   51.2250   65.5120 C.3    73  ASP73       0.1436
     34  CG        11.6680   51.1060   66.6500 C.2    73  ASP73       0.3671
     35  OD1       11.6850   50.1320   67.4280 O.co2  73  ASP73      -0.2456
     36  OD2       12.6550   51.9610   66.8030 O.co2  73  ASP73      -0.2456
     37  N         10.3680   49.9680   69.8990 N.3    78  PHE78      -0.1227
     38  CA         8.9030   49.7010   69.9620 C.3    78  PHE78       0.1736
     39  C          8.6550   48.3430   69.2960 C.2    78  PHE78       0.2595
     40  O          9.3560   47.9820   68.3530 O.2    78  PHE78      -0.2718
     41  CB         8.0830   50.7900   69.2460 C.3    78  PHE78       0.0547
     42  CG         8.3870   52.1900   69.7650 C.ar   78  PHE78      -0.0202
     43  CD1        7.9930   52.5220   71.0840 C.ar   78  PHE78      -0.0042
     44  CD2        9.2390   53.0030   69.0480 C.ar   78  PHE78      -0.0042
     45  CE1        8.3520   53.7450   71.6090 C.ar   78  PHE78      -0.0003
     46  CE2        9.6080   54.2300   69.5780 C.ar   78  PHE78      -0.0003
     47  CZ         9.1640   54.5500   70.8510 C.ar   78  PHE78      -0.0000
     48  N          7.6010   47.6450   69.7550 N.am   79  ARG79      -0.1966
     49  CA         7.1700   46.4350   69.0190 C.3    79  ARG79       0.1729
     50  C          5.6180   46.4430   69.0900 C.2    79  ARG79       0.2613
     51  O          5.0070   46.6290   70.1390 O.2    79  ARG79      -0.2715
     52  CB         7.7460   45.1710   69.6430 C.3    79  ARG79       0.0348
     53  CG         7.3340   43.8620   68.8730 C.3    79  ARG79       0.0492
     54  CD         8.3080   42.7140   69.2090 C.3    79  ARG79       0.2205
     55  NE         8.3740   42.5000   70.6740 N.pl3  79  ARG79      -0.0865
     56  CZ         9.4870   42.6060   71.3940 C.cat  79  ARG79       0.5346
     57  NH1       10.6690   42.8820   70.8660 N.pl3  79  ARG79       0.1354
     58  NH2        9.2830   42.4080   72.7120 N.pl3  79  ARG79       0.1354
     59  N          4.9920   46.1830   67.9370 N.am   80  PHE80      -0.2027
     60  CA         3.4940   46.1270   67.9540 C.3    80  PHE80       0.1325
     61  C          2.9210   45.1130   68.9710 C.3    80  PHE80       0.2039
     62  O          3.6010   44.0110   69.1250 O.3    80  PHE80      -0.2185
     63  CB         2.9850   45.7440   66.4920 C.3    80  PHE80       0.0507
     64  CG         3.0130   46.9020   65.5680 C.ar   80  PHE80      -0.0204
     65  CD1        1.9670   47.7740   65.5540 C.ar   80  PHE80      -0.0042
     66  CD2        4.1080   47.1030   64.7410 C.ar   80  PHE80      -0.0042
     67  CE1        1.9730   48.8700   64.6550 C.ar   80  PHE80      -0.0003
     68  CE2        4.1450   48.2010   63.8530 C.ar   80  PHE80      -0.0003
     69  CZ         3.0450   49.0370   63.8260 C.ar   80  PHE80      -0.0000
     70  N         -0.5840   43.8270   69.0600 N.3    82  TYR82      -0.1241
     71  CA        -1.9650   43.5870   68.7090 C.3    82  TYR82       0.1605
     72  C         -2.7120   42.8590   69.8260 C.2    82  TYR82       0.2264
     73  O         -2.1830   41.8410   70.3470 O.2    82  TYR82      -0.2867
     74  CB        -1.9700   42.7570   67.4210 C.3    82  TYR82       0.0534
     75  CG        -1.6290   43.5170   66.1830 C.ar   82  TYR82      -0.0201
     76  CD1       -0.2910   43.6260   65.7230 C.ar   82  TYR82      -0.0009
     77  CD2       -2.6380   44.0980   65.4190 C.ar   82  TYR82      -0.0009
     78  CE1        0.0350   44.3180   64.5740 C.ar   82  TYR82       0.0417
     79  CE2       -2.3150   44.7180   64.2150 C.ar   82  TYR82       0.0417
     80  CZ        -0.9820   44.8180   63.8030 C.ar   82  TYR82       0.1957
     81  OH        -0.6250   45.4960   62.6170 O.3    82  TYR82      -0.2866
     82  N         -2.8950   38.6800   52.6100 N.3   156  ILE156     -0.1231
     83  CA        -1.9570   37.9840   53.5060 C.3   156  ILE156      0.1692
     84  C         -1.4290   39.0130   54.4860 C.2   156  ILE156      0.2592
     85  O         -1.0580   40.1270   54.0730 O.2   156  ILE156     -0.2718
     86  CB        -0.7680   37.3540   52.7500 C.3   156  ILE156      0.0266
     87  CG1       -1.2530   36.1580   51.8670 C.3   156  ILE156      0.0019
     88  CG2        0.3080   36.8870   53.7470 C.3   156  ILE156      0.0020
     89  CD1       -1.6150   34.9020   52.7250 C.3   156  ILE156      0.0001
     90  N         -1.3780   38.6130   55.7830 N.am  157  ASN157     -0.1960
     91  CA        -0.8300   39.5250   56.8330 C.3   157  ASN157      0.1819
     92  C         -0.3510   38.6300   57.9610 C.2   157  ASN157      0.2621
     93  O         -0.5110   37.4160   57.9910 O.2   157  ASN157     -0.2715
     94  CB        -1.9630   40.4600   57.2470 C.3   157  ASN157      0.1195
     95  CG        -1.4920   41.8020   57.8890 C.2   157  ASN157      0.2630
     96  OD1       -0.3120   42.0190   58.1210 O.2   157  ASN157     -0.2716
     97  ND2       -2.4330   42.7400   57.9780 N.am  157  ASN157     -0.0877
     98  N          0.3240   39.2770   58.9340 N.am  158  PHE158     -0.1974
     99  CA         0.7460   38.6800   60.1960 C.3   158  PHE158      0.1639
    100  C          1.7740   37.5710   60.0060 C.2   158  PHE158      0.2290
    101  O          1.8210   36.6880   60.8820 O.2   158  PHE158     -0.2864
    102  CB        -0.4530   38.2200   61.0630 C.3   158  PHE158      0.0560
    103  CG        -1.3610   39.3800   61.3960 C.ar  158  PHE158     -0.0200
    104  CD1       -0.9260   40.3310   62.3380 C.ar  158  PHE158     -0.0042
    105  CD2       -2.6650   39.5030   60.8400 C.ar  158  PHE158     -0.0042
    106  CE1       -1.7380   41.4330   62.7150 C.ar  158  PHE158     -0.0003
    107  CE2       -3.5100   40.6120   61.2070 C.ar  158  PHE158     -0.0003
    108  CZ        -3.0210   41.6320   62.1230 C.ar  158  PHE158     -0.0000
    109  N          1.1200   43.7650   52.0810 N.3   193  THR193     -0.1203
    110  CA         2.0770   44.9270   52.2210 C.3   193  THR193      0.1994
    111  C          3.2380   44.4390   53.0940 C.2   193  THR193      0.2618
    112  O          3.1430   43.4750   53.8770 O.2   193  THR193     -0.2717
    113  CB         1.4310   46.1150   52.8800 C.3   193  THR193      0.1784
    114  OG1        0.7280   45.6890   54.0600 O.3   193  THR193     -0.2211
    115  CG2        0.4340   46.8850   51.9110 C.3   193  THR193      0.0376
    116  N          4.3450   45.1890   52.9560 N.am  194  ALA194     -0.1965
    117  CA         5.5000   44.9890   53.8630 C.3   194  ALA194      0.1728
    118  C          6.2590   46.2840   53.9290 C.2   194  ALA194      0.2616
    119  O          6.2700   47.0790   52.9780 O.2   194  ALA194     -0.2715
    120  CB         6.4520   43.9040   53.3430 C.3   194  ALA194      0.0334
    121  N          6.9770   46.4100   55.0340 N.am  195  GLY195     -0.1955
    122  CA         7.7560   47.6070   55.2840 C.3   195  GLY195      0.1869
    123  C          9.1900   47.4000   54.7780 C.2   195  GLY195      0.2309
    124  O         10.0560   48.2120   55.1380 O.2   195  GLY195     -0.2863
    125  N          4.9140   56.7960   55.5590 N.3   207  TYR207     -0.1227
    126  CA         4.0640   56.8300   56.7540 C.3   207  TYR207      0.1736
    127  C          3.9520   58.2590   57.2860 C.2   207  TYR207      0.2595
    128  O          4.9340   59.0410   57.1560 O.2   207  TYR207     -0.2718
    129  CB         4.7310   56.0380   57.8530 C.3   207  TYR207      0.0548
    130  CG         5.0630   54.5880   57.4810 C.ar  207  TYR207     -0.0200
    131  CD1        4.1050   53.5990   57.5620 C.ar  207  TYR207     -0.0009
    132  CD2        6.3690   54.2090   57.0920 C.ar  207  TYR207     -0.0009
    133  CE1        4.4140   52.2630   57.3120 C.ar  207  TYR207      0.0417
    134  CE2        6.7280   52.8450   56.7890 C.ar  207  TYR207      0.0417
    135  CZ         5.7100   51.8850   56.9230 C.ar  207  TYR207      0.1957
    136  OH         6.0900   50.5890   56.6420 O.3   207  TYR207     -0.2866
    137  N          2.8660   58.5520   57.9920 N.am  208  PHE208     -0.1962
    138  CA         2.6980   59.8760   58.6090 C.3   208  PHE208      0.1771
    139  C          2.1890   59.7610   59.9930 C.2   208  PHE208      0.2619
    140  O          1.4000   58.8590   60.2340 O.2   208  PHE208     -0.2715
    141  CB         1.7500   60.7430   57.7660 C.3   208  PHE208      0.0574
    142  CG         2.3700   61.1510   56.4550 C.ar  208  PHE208     -0.0200
    143  CD1        3.1270   62.3650   56.4050 C.ar  208  PHE208     -0.0042
    144  CD2        2.2510   60.3870   55.3190 C.ar  208  PHE208     -0.0042
    145  CE1        3.7460   62.7670   55.2200 C.ar  208  PHE208     -0.0003
    146  CE2        2.9110   60.7820   54.0920 C.ar  208  PHE208     -0.0003
    147  CZ         3.6790   61.9790   54.1220 C.ar  208  PHE208     -0.0000
    148  N          2.6070   60.6600   60.8920 N.am  209  HIS209     -0.1973
    149  CA         2.2670   60.5990   62.3610 C.3   209  HIS209      0.1656
    150  C          1.7850   62.0000   62.8290 C.2   209  HIS209      0.2291
    151  O          2.4230   63.0340   62.5380 O.2   209  HIS209     -0.2864
    152  CB         3.5010   60.2440   63.2190 C.3   209  HIS209      0.0771
    153  CG         4.3060   59.0710   62.7390 C.ar  209  HIS209      0.0820
    154  ND1        3.7960   57.7870   62.6790 N.ar  209  HIS209     -0.2267
    155  CD2        5.6090   58.9610   62.4060 C.ar  209  HIS209      0.1154
    156  CE1        4.7330   56.9510   62.2600 C.ar  209  HIS209      0.1986
    157  NE2        5.8470   57.6340   62.0840 N.ar  209  HIS209     -0.2212
    158  N          9.5580   58.2480   71.0620 N.3   222  PHE222     -0.1241
    159  CA         8.9100   58.1570   69.7660 C.3   222  PHE222      0.1605
    160  C          9.1440   59.4100   68.9620 C.2   222  PHE222      0.2264
    161  O          9.1910   59.3830   67.7240 O.2   222  PHE222     -0.2867
    162  CB         7.4100   57.9420   69.9760 C.3   222  PHE222      0.0534
    163  CG         6.6180   57.7700   68.7030 C.ar  222  PHE222     -0.0203
    164  CD1        6.1120   58.8940   68.0410 C.ar  222  PHE222     -0.0042
    165  CD2        6.3550   56.4870   68.1540 C.ar  222  PHE222     -0.0042
    166  CE1        5.3460   58.7630   66.8540 C.ar  222  PHE222     -0.0003
    167  CE2        5.6010   56.3440   66.9770 C.ar  222  PHE222     -0.0003
    168  CZ         5.1050   57.4850   66.3260 C.ar  222  PHE222     -0.0000
    169  N         -8.6290   52.6650   63.8810 N.3   316  TYR316     -0.1241
    170  CA        -8.4710   51.4810   64.7460 C.3   316  TYR316      0.1605
    171  C         -7.2890   51.6660   65.6890 C.2   316  TYR316      0.2264
    172  O         -6.4460   52.5470   65.5400 O.2   316  TYR316     -0.2867
    173  CB        -8.4040   50.1460   63.9330 C.3   316  TYR316      0.0534
    174  CG        -7.2550   50.1690   62.9430 C.ar  316  TYR316     -0.0201
    175  CD1       -5.9500   49.8020   63.3170 C.ar  316  TYR316     -0.0009
    176  CD2       -7.4570   50.6180   61.5530 C.ar  316  TYR316     -0.0009
    177  CE1       -4.8770   49.7730   62.3890 C.ar  316  TYR316      0.0417
    178  CE2       -6.3220   50.6680   60.6720 C.ar  316  TYR316      0.0417
    179  CZ        -5.1080   50.2260   61.0550 C.ar  316  TYR316      0.1957
    180  OH        -4.0220   50.3050   60.1750 O.3   316  TYR316     -0.2866
    181  N         -4.0140   50.1620   67.8680 N.3   318  ILE318     -0.1245
    182  CA        -2.9630   49.1170   68.1290 C.3   318  ILE318      0.1561
    183  C         -1.9740   49.6940   69.1150 C.2   318  ILE318      0.2260
    184  O         -1.3440   50.7500   68.8160 O.2   318  ILE318     -0.2867
    185  CB        -2.1740   48.6410   66.8790 C.3   318  ILE318      0.0252
    186  CG1       -3.0760   48.2530   65.7340 C.3   318  ILE318      0.0019
    187  CG2       -1.3570   47.4040   67.3690 C.3   318  ILE318      0.0019
    188  CD1       -2.2990   48.1710   64.4040 C.3   318  ILE318      0.0001
    189  N          1.5980   49.5930   71.1190 N.3   320  SER320     -0.1217
    190  CA         2.9500   49.0360   71.0160 C.3   320  SER320      0.1889
    191  C          3.6550   48.9900   72.3400 C.2   320  SER320      0.2288
    192  O          3.5330   49.9290   73.1500 O.2   320  SER320     -0.2866
    193  CB         3.8650   49.7600   69.9850 C.3   320  SER320      0.2089
    194  OG         3.3770   49.6010   68.6460 O.3   320  SER320     -0.2183
    195  N          2.7380   52.5070   74.0250 N.3   331  LEU331     -0.1245
    196  CA         2.3000   53.6160   73.0980 C.3   331  LEU331      0.1561
    197  C          0.8710   53.2860   72.6210 C.2   331  LEU331      0.2260
    198  O          0.6310   52.2130   72.0450 O.2   331  LEU331     -0.2867
    199  CB         3.2710   53.6350   71.9380 C.3   331  LEU331      0.0270
    200  CG         2.8760   54.3890   70.6270 C.3   331  LEU331      0.0019
    201  CD1        3.0200   55.8840   70.8750 C.3   331  LEU331      0.0001
    202  CD2        3.6640   53.9650   69.3430 C.3   331  LEU331      0.0001
    203  N         -5.0060   54.6000   64.2220 N.3   335  TYR335     -0.1241
    204  CA        -4.6390   54.5000   62.8050 C.3   335  TYR335      0.1605
    205  C         -5.8480   54.8800   61.9780 C.2   335  TYR335      0.2264
    206  O         -6.9370   54.3770   62.1450 O.2   335  TYR335     -0.2867
    207  CB        -4.2580   53.0440   62.4820 C.3   335  TYR335      0.0534
    208  CG        -2.9280   52.7120   63.1750 C.ar  335  TYR335     -0.0201
    209  CD1       -2.9220   52.2450   64.4930 C.ar  335  TYR335     -0.0009
    210  CD2       -1.7090   52.7520   62.4790 C.ar  335  TYR335     -0.0009
    211  CE1       -1.7220   52.0000   65.1190 C.ar  335  TYR335      0.0417
    212  CE2       -0.4860   52.5030   63.1310 C.ar  335  TYR335      0.0417
    213  CZ        -0.5260   52.0970   64.4630 C.ar  335  TYR335      0.1957
    214  OH         0.7080   51.8970   65.0980 O.3   335  TYR335     -0.2866
    215  N         -1.7620   57.7370   63.3300 N.3   366  ASN366     -0.1225
    216  CA        -0.8770   57.3540   62.2050 C.3   366  ASN366      0.1785
    217  C         -1.6100   56.9430   60.9380 C.2   366  ASN366      0.2597
    218  O         -2.8170   56.5650   60.9770 O.2   366  ASN366     -0.2718
    219  CB        -0.0830   56.1070   62.6870 C.3   366  ASN366      0.1169
    220  CG         0.8730   56.3880   63.8140 C.2   366  ASN366      0.2627
    221  OD1        1.3670   57.4600   63.9660 O.2   366  ASN366     -0.2716
    222  ND2        1.1750   55.3340   64.6360 N.am  366  ASN366     -0.0877
    223  N         -0.9300   57.0210   59.8180 N.am  367  MET367     -0.1965
    224  CA        -1.5960   56.6620   58.5470 C.3   367  MET367      0.1736
    225  C         -0.4530   56.5020   57.4730 C.2   367  MET367      0.2616
    226  O          0.7190   56.7820   57.7110 O.2   367  MET367     -0.2715
    227  CB        -2.6220   57.7160   58.0580 C.3   367  MET367      0.0427
    228  CG        -1.9050   59.0260   57.7430 C.3   367  MET367      0.0599
    229  SD        -3.1320   60.2540   57.2570 S.3   367  MET367     -0.1393
    230  CE        -2.0150   61.6130   56.6480 C.3   367  MET367      0.0692
    231  N         -0.8530   55.8680   56.3720 N.am  368  VAL368     -0.1977
    232  CA         0.0250   55.7440   55.1500 C.3   368  VAL368      0.1596
    233  C         -0.5540   56.6790   54.1150 C.2   368  VAL368      0.2287
    234  O         -1.7420   57.0220   54.1670 O.2   368  VAL368     -0.2864
    235  CB         0.0500   54.2850   54.6360 C.3   368  VAL368      0.0276
    236  CG1        0.9890   54.0860   53.4040 C.3   368  VAL368      0.0022
    237  CG2        0.5370   53.3820   55.7670 C.3   368  VAL368      0.0022
    238  N          6.0150   52.0720   53.1210 N.3   389  LEU389     -0.1245
    239  CA         5.1630   50.8560   53.0820 C.3   389  LEU389      0.1561
    240  C          5.0780   50.4920   51.5660 C.2   389  LEU389      0.2260
    241  O          4.8370   51.4120   50.7600 O.2   389  LEU389     -0.2867
    242  CB         3.8000   51.1540   53.7060 C.3   389  LEU389      0.0270
    243  CG         2.9880   49.8490   53.8090 C.3   389  LEU389      0.0019
    244  CD1        3.6310   48.8080   54.8130 C.3   389  LEU389      0.0001
    245  CD2        1.5280   50.1670   54.1230 C.3   389  LEU389      0.0001
    246  N         -4.3760   48.1280   55.1950 N.3   410  MET410     -0.1230
    247  CA        -3.9570   46.8750   55.7190 C.3   410  MET410      0.1702
    248  C         -3.6370   46.9460   57.2190 C.2   410  MET410      0.2592
    249  O         -2.8890   47.8800   57.6490 O.2   410  MET410     -0.2718
    250  CB        -2.6130   46.5520   55.0360 C.3   410  MET410      0.0401
    251  CG        -2.7290   46.3000   53.5360 C.3   410  MET410      0.0596
    252  SD        -3.3420   44.6340   53.3050 S.3   410  MET410     -0.1393
    253  CE        -2.4880   44.2350   51.8290 C.3   410  MET410      0.0692
    254  N         -4.2150   46.0210   57.9750 N.am  411  LEU411     -0.1980
    255  CA        -4.2840   46.2410   59.4550 C.3   411  LEU411      0.1596
    256  C         -2.9550   45.7900   60.0790 C.2   411  LEU411      0.2287
    257  O         -2.1920   44.9620   59.5620 O.2   411  LEU411     -0.2864
    258  CB        -5.3940   45.4030   60.0540 C.3   411  LEU411      0.0297
    259  CG        -6.8210   45.7910   59.6140 C.3   411  LEU411      0.0022
    260  CD1       -7.8520   44.7690   60.0390 C.3   411  LEU411      0.0001
    261  CD2       -7.1530   47.2160   60.0460 C.3   411  LEU411      0.0001
@<TRIPOS>BOND
     1   241   240    2
     2   240   239    1
     3   253   252    1
     4    87    89    1
     5    87    86    1
     6   115   113    1
     7   109   110    1
     8   110   113    1
     9   110   111    1
    10    82    83    1
    11    86    83    1
    12    86    88    1
    13   113   114    1
    14   116   111   am
    15   116   117    1
    16   119   118    2
    17   239   238    1
    18   239   242    1
    19   111   112    2
    20   252   251    1
    21   120   117    1
    22   236   235    1
    23    83    84    1
    24   251   250    1
    25   242   243    1
    26   243   245    1
    27   243   244    1
    28   117   118    1
    29   118   121   am
    30    85    84    2
    31   146   147   ar
    32   146   144   ar
    33   233   234    2
    34   233   232    1
    35   147   145   ar
    36    84    90   am
    37   235   232    1
    38   235   237    1
    39   123   124    2
    40   123   122    1
    41   121   122    1
    42   250   247    1
    43   232   231    1
    44   246   247    1
    45   145   143   ar
    46   144   142   ar
    47   125   126    1
    48   247   248    1
    49    90    91    1
    50   231   225   am
    51   143   142   ar
    52   142   141    1
    53   136   135    1
    54   230   229    1
    55   126   127    1
    56   126   129    1
    57   134   135   ar
    58   134   132   ar
    59    91    94    1
    60    91    92    1
    61   135   133   ar
    62   132   130   ar
    63   128   127    2
    64   248   249    2
    65   248   254   am
    66    94    95    1
    67   229   228    1
    68   127   137   am
    69   133   131   ar
    70   225   226    2
    71   225   224    1
    72   130   131   ar
    73   130   129    1
    74   228   227    1
    75   141   138    1
    76    95    97   am
    77    95    96    2
    78    92    93    2
    79    92    98   am
    80   254   255    1
    81   137   138    1
    82   227   224    1
    83   224   223    1
    84   138   139    1
    85    98    99    1
    86   255   258    1
    87   255   256    1
    88   257   256    2
    89   259   260    1
    90   259   261    1
    91   259   258    1
    92   223   217   am
    93   139   140    2
    94   139   148   am
    95   100    99    1
    96   100   101    2
    97   180   179    1
    98    99   102    1
    99    12    11    1
   100   178   179   ar
   101   178   176   ar
   102   105   107   ar
   103   105   103   ar
   104   148   149    1
   105   217   218    2
   106   217   216    1
   107   179   177   ar
   108   102   103    1
   109   107   108   ar
   110   103   104   ar
   111    19    17    1
   112   176   174   ar
   113    11     9   ar
   114    11    10   ar
   115     9     7   ar
   116   205   206    2
   117   205   204    1
   118    18    17    1
   119   157   156   ar
   120   157   155   ar
   121   108   106   ar
   122   216   219    1
   123   216   215    1
   124   156   154   ar
   125   104   106   ar
   126   149   150    1
   127   149   152    1
   128   177   175   ar
   129   155   153   ar
   130   210   212   ar
   131   210   208   ar
   132   207   204    1
   133   207   208    1
   134   151   150    2
   135    81    80    1
   136    17    14    1
   137   154   153   ar
   138   219   220    1
   139    10     8   ar
   140   153   152    1
   141   204   203    1
   142   174   175   ar
   143   174   173    1
   144     7     6   ar
   145   212   213   ar
   146   208   209   ar
   147    23    22    2
   148    14    13    1
   149    14    15    1
   150    80    79   ar
   151    80    78   ar
   152   220   221    2
   153   220   222   am
   154    69    68   ar
   155    69    67   ar
   156    68    66   ar
   157   169   170    1
   158     8     6   ar
   159   173   170    1
   160     6     5    1
   161    79    77   ar
   162    13     3   am
   163    31    32    2
   164    31    30    1
   165   188   186    1
   166   213   214    1
   167   213   211   ar
   168   209   211   ar
   169    78    76   ar
   170    30    29    1
   171    30    33    1
   172    67    65   ar
   173    22    29   am
   174    22    21    1
   175    20    15   am
   176    20    21    1
   177    66    64   ar
   178   170   171    1
   179    15    16    2
   180     3     2    1
   181     3     4    2
   182     2     5    1
   183     2     1    1
   184    77    75   ar
   185    21    24    1
   186    33    34    1
   187   172   171    2
   188    65    64   ar
   189    64    63    1
   190    76    75   ar
   191   186   185    1
   192    24    25    1
   193    75    74    1
   194   168   166   ar
   195   168   167   ar
   196    63    60    1
   197    34    36   ar
   198    34    35   ar
   199   166   164   ar
   200   185   187    1
   201   185   182    1
   202   167   165   ar
   203    25    26    1
   204    74    71    1
   205    27    26   ar
   206    26    28   ar
   207   161   160    2
   208   181   182    1
   209    59    60    1
   210    59    50   am
   211    60    61    1
   212   164   163   ar
   213   182   183    1
   214   165   163   ar
   215    40    39    2
   216   194   193    1
   217   163   162    1
   218    71    70    1
   219    71    72    1
   220   184   183    2
   221    53    54    1
   222    53    52    1
   223   160   159    1
   224    61    62    1
   225    49    50    1
   226    49    52    1
   227    49    48    1
   228    44    46   ar
   229    44    42   ar
   230    50    51    2
   231    54    55    1
   232    41    42    1
   233    41    38    1
   234    39    48   am
   235    39    38    1
   236   202   200    1
   237    46    47   ar
   238    42    43   ar
   239   159   162    1
   240   159   158    1
   241    72    73    2
   242    37    38    1
   243   193   190    1
   244   200   201    1
   245   200   199    1
   246    55    56    2
   247    47    45   ar
   248    57    56    1
   249   190   189    1
   250   190   191    1
   251    43    45   ar
   252    56    58    1
   253   199   196    1
   254   198   197    2
   255   191   192    2
   256   197   196    1
   257   196   195    1
