@<TRIPOS>MOLECULE
tmp/4cypA00.pdb
 197 194 0 0 0
SMALL
GASTEIGER

@<TRIPOS>ATOM
      1  N          7.7430   39.8580   67.2350 N.3    70  TYR70      -0.1227
      2  CA         7.2290   40.5220   66.0170 C.3    70  TYR70       0.1736
      3  C          8.0200   41.8030   65.6800 C.2    70  TYR70       0.2595
      4  O          9.1360   41.9810   66.1720 O.2    70  TYR70      -0.2718
      5  CB         5.7630   40.7450   66.0970 C.3    70  TYR70       0.0548
      6  CG         5.0470   40.9300   64.7280 C.ar   70  TYR70      -0.0200
      7  CD1        5.3530   40.0510   63.6100 C.ar   70  TYR70      -0.0009
      8  CD2        4.0520   41.9580   64.6100 C.ar   70  TYR70      -0.0009
      9  CE1        4.6360   40.2010   62.4160 C.ar   70  TYR70       0.0417
     10  CE2        3.3530   42.1460   63.4190 C.ar   70  TYR70       0.0417
     11  CZ         3.6400   41.2610   62.3430 C.ar   70  TYR70       0.1957
     12  OH         2.9590   41.4910   61.1450 O.3    70  TYR70      -0.2866
     13  N          7.4780   42.6580   64.8150 N.am   71  VAL71      -0.1980
     14  CA         8.2650   43.7900   64.1890 C.3    71  VAL71       0.1595
     15  C          8.8270   44.7670   65.2910 C.2    71  VAL71       0.2287
     16  O          8.0900   45.1950   66.1520 O.2    71  VAL71      -0.2864
     17  CB         7.3320   44.5360   63.1960 C.3    71  VAL71       0.0276
     18  CG1        8.0150   45.7900   62.5940 C.3    71  VAL71       0.0022
     19  CG2        6.8590   43.5810   62.0280 C.3    71  VAL71       0.0022
     20  N          6.0630   45.9810   68.3400 N.3    80  PHE80      -0.1241
     21  CA         4.6020   45.9480   68.3980 C.3    80  PHE80       0.1605
     22  C          4.0570   44.9300   69.4220 C.2    80  PHE80       0.2264
     23  O          4.6480   43.8050   69.5600 O.2    80  PHE80      -0.2867
     24  CB         4.0160   45.5560   66.9920 C.3    80  PHE80       0.0534
     25  CG         4.1110   46.6650   65.9870 C.ar   80  PHE80      -0.0203
     26  CD1        5.3200   46.8500   65.2390 C.ar   80  PHE80      -0.0042
     27  CD2        3.0040   47.4270   65.7190 C.ar   80  PHE80      -0.0042
     28  CE1        5.3840   47.8760   64.2790 C.ar   80  PHE80      -0.0003
     29  CE2        3.0790   48.4600   64.7750 C.ar   80  PHE80      -0.0003
     30  CZ         4.2610   48.6690   64.0840 C.ar   80  PHE80      -0.0000
     31  N          0.3510   43.7990   69.6170 N.3    82  TYR82      -0.1298
     32  CA        -1.0460   43.5810   69.3130 C.3    82  TYR82       0.1290
     33  C         -1.7780   42.8420   70.4430 C.3    82  TYR82       0.2013
     34  O         -1.2250   41.7820   70.9190 O.3    82  TYR82      -0.2188
     35  CB        -1.1220   42.7410   68.0200 C.3    82  TYR82       0.0480
     36  CG        -0.7350   43.4510   66.7410 C.ar   82  TYR82      -0.0204
     37  CD1        0.6000   43.4830   66.3070 C.ar   82  TYR82      -0.0009
     38  CD2       -1.7180   44.0640   65.9390 C.ar   82  TYR82      -0.0009
     39  CE1        0.9840   44.0880   65.0750 C.ar   82  TYR82       0.0417
     40  CE2       -1.3250   44.6610   64.7110 C.ar   82  TYR82       0.0417
     41  CZ        -0.0230   44.7050   64.3290 C.ar   82  TYR82       0.1957
     42  OH         0.1940   45.3230   63.1190 O.3    82  TYR82      -0.2866
     43  N         -2.3320   38.4860   53.3900 N.3   156  ILE156     -0.1231
     44  CA        -1.3830   37.8770   54.3100 C.3   156  ILE156      0.1692
     45  C         -0.9170   38.9070   55.3330 C.2   156  ILE156      0.2592
     46  O         -0.7910   40.1000   55.0050 O.2   156  ILE156     -0.2718
     47  CB        -0.1570   37.2950   53.5390 C.3   156  ILE156      0.0266
     48  CG1       -0.6790   36.0830   52.6890 C.3   156  ILE156      0.0019
     49  CG2        0.9470   36.8570   54.5000 C.3   156  ILE156      0.0020
     50  CD1       -0.7830   34.7610   53.4560 C.3   156  ILE156      0.0001
     51  N         -0.7220   38.4290   56.5770 N.am  157  ASN157     -0.1960
     52  CA        -0.2240   39.4050   57.6350 C.3   157  ASN157      0.1819
     53  C          0.3810   38.5090   58.7170 C.2   157  ASN157      0.2621
     54  O          0.3040   37.2790   58.6930 O.2   157  ASN157     -0.2715
     55  CB        -1.4330   40.2090   58.1700 C.3   157  ASN157      0.1195
     56  CG        -1.0300   41.5590   58.8160 C.2   157  ASN157      0.2630
     57  OD1        0.1580   41.7900   59.1150 O.2   157  ASN157     -0.2716
     58  ND2       -1.9720   42.4370   58.9590 N.am  157  ASN157     -0.0877
     59  N          1.0870   39.1150   59.6850 N.am  158  PHE158     -0.1974
     60  CA         1.5450   38.4440   60.8780 C.3   158  PHE158      0.1639
     61  C          2.5500   37.3450   60.6640 C.2   158  PHE158      0.2290
     62  O          2.6060   36.4060   61.4930 O.2   158  PHE158     -0.2864
     63  CB         0.3660   38.0330   61.7800 C.3   158  PHE158      0.0560
     64  CG        -0.5380   39.1420   62.1740 C.ar  158  PHE158     -0.0200
     65  CD1       -0.0710   40.1750   63.0720 C.ar  158  PHE158     -0.0042
     66  CD2       -1.8180   39.2210   61.6840 C.ar  158  PHE158     -0.0042
     67  CE1       -0.9960   41.2450   63.4120 C.ar  158  PHE158     -0.0003
     68  CE2       -2.7250   40.2460   62.0070 C.ar  158  PHE158     -0.0003
     69  CZ        -2.2760   41.2800   62.8780 C.ar  158  PHE158     -0.0000
     70  N          2.0620   43.4120   52.5770 N.3   193  THR193     -0.1203
     71  CA         2.9270   44.6060   52.6600 C.3   193  THR193      0.1994
     72  C          4.1500   44.1890   53.5550 C.2   193  THR193      0.2618
     73  O          4.1100   43.2270   54.3150 O.2   193  THR193     -0.2717
     74  CB         2.1580   45.7720   53.3010 C.3   193  THR193      0.1784
     75  OG1        1.5250   45.3360   54.5650 O.3   193  THR193     -0.2211
     76  CG2        1.1450   46.4300   52.3360 C.3   193  THR193      0.0376
     77  N          5.2530   44.9320   53.4430 N.am  194  ALA194     -0.1965
     78  CA         6.3970   44.7790   54.3340 C.3   194  ALA194      0.1728
     79  C          7.1280   46.1230   54.4310 C.2   194  ALA194      0.2616
     80  O          7.1330   46.9760   53.4920 O.2   194  ALA194     -0.2715
     81  CB         7.3510   43.6710   53.8800 C.3   194  ALA194      0.0334
     82  N          7.7570   46.2980   55.5960 N.am  195  GLY195     -0.1955
     83  CA         8.6570   47.4560   55.7660 C.3   195  GLY195      0.1869
     84  C         10.0710   47.1040   55.2720 C.2   195  GLY195      0.2309
     85  O         11.0540   47.8490   55.5930 O.2   195  GLY195     -0.2863
     86  N          6.0090   56.5560   55.9330 N.3   207  TYR207     -0.1227
     87  CA         5.2280   56.5490   57.1780 C.3   207  TYR207      0.1736
     88  C          5.1120   57.9680   57.6840 C.2   207  TYR207      0.2595
     89  O          6.0670   58.7890   57.4870 O.2   207  TYR207     -0.2718
     90  CB         5.9930   55.7470   58.1920 C.3   207  TYR207      0.0548
     91  CG         6.2570   54.3220   57.8240 C.ar  207  TYR207     -0.0200
     92  CD1        5.2260   53.3910   57.9430 C.ar  207  TYR207     -0.0009
     93  CD2        7.5480   53.8720   57.4740 C.ar  207  TYR207     -0.0009
     94  CE1        5.4570   52.0520   57.7080 C.ar  207  TYR207      0.0417
     95  CE2        7.7920   52.5090   57.2300 C.ar  207  TYR207      0.0417
     96  CZ         6.7100   51.6150   57.3350 C.ar  207  TYR207      0.1957
     97  OH         6.9790   50.2610   57.1490 O.3   207  TYR207     -0.2866
     98  N          4.0320   58.2880   58.3980 N.am  208  PHE208     -0.1962
     99  CA         3.8620   59.6300   59.0120 C.3   208  PHE208      0.1771
    100  C          3.3630   59.5400   60.4490 C.2   208  PHE208      0.2619
    101  O          2.6590   58.6170   60.7400 O.2   208  PHE208     -0.2715
    102  CB         2.8410   60.5070   58.2120 C.3   208  PHE208      0.0574
    103  CG         3.4020   60.9750   56.8950 C.ar  208  PHE208     -0.0200
    104  CD1        3.3430   60.1760   55.7820 C.ar  208  PHE208     -0.0042
    105  CD2        4.1170   62.2430   56.8390 C.ar  208  PHE208     -0.0042
    106  CE1        3.9630   60.5450   54.6000 C.ar  208  PHE208     -0.0003
    107  CE2        4.7820   62.6100   55.6290 C.ar  208  PHE208     -0.0003
    108  CZ         4.6560   61.7510   54.5180 C.ar  208  PHE208     -0.0000
    109  N          3.7930   60.4840   61.3210 N.am  209  HIS209     -0.1973
    110  CA         3.4400   60.4850   62.8040 C.3   209  HIS209      0.1656
    111  C          2.9640   61.8530   63.2180 C.2   209  HIS209      0.2291
    112  O          3.5150   62.8270   62.7180 O.2   209  HIS209     -0.2864
    113  CB         4.6700   60.1710   63.7160 C.3   209  HIS209      0.0771
    114  CG         5.4860   59.0250   63.2510 C.ar  209  HIS209      0.0820
    115  ND1        5.0290   57.7120   63.3390 N.ar  209  HIS209     -0.2267
    116  CD2        6.7050   58.9500   62.6560 C.ar  209  HIS209      0.1154
    117  CE1        5.9570   56.8830   62.8860 C.ar  209  HIS209      0.1986
    118  NE2        6.9680   57.6030   62.4280 N.ar  209  HIS209     -0.2212
    119  N         -7.4960   52.6670   64.6630 N.3   316  TYR316     -0.1241
    120  CA        -7.2930   51.4730   65.4920 C.3   316  TYR316      0.1605
    121  C         -6.1280   51.6050   66.4090 C.2   316  TYR316      0.2264
    122  O         -5.2180   52.3910   66.2010 O.2   316  TYR316     -0.2867
    123  CB        -7.2710   50.1940   64.5920 C.3   316  TYR316      0.0534
    124  CG        -6.1640   50.2130   63.5520 C.ar  316  TYR316     -0.0201
    125  CD1       -4.8560   49.7640   63.8520 C.ar  316  TYR316     -0.0009
    126  CD2       -6.4910   50.6020   62.2610 C.ar  316  TYR316     -0.0009
    127  CE1       -3.8220   49.7510   62.9010 C.ar  316  TYR316      0.0417
    128  CE2       -5.4770   50.6510   61.3100 C.ar  316  TYR316      0.0417
    129  CZ        -4.2010   50.2070   61.6010 C.ar  316  TYR316      0.1957
    130  OH        -3.2140   50.2680   60.6400 O.3   316  TYR316     -0.2866
    131  N         -2.7890   50.0770   68.4810 N.3   318  ILE318     -0.1245
    132  CA        -1.7960   49.0440   68.7280 C.3   318  ILE318      0.1561
    133  C         -0.7840   49.6560   69.6520 C.2   318  ILE318      0.2260
    134  O         -0.1010   50.6190   69.2490 O.2   318  ILE318     -0.2867
    135  CB        -1.0200   48.5490   67.4690 C.3   318  ILE318      0.0252
    136  CG1       -2.0050   48.1700   66.3180 C.3   318  ILE318      0.0019
    137  CG2       -0.2260   47.2690   67.8830 C.3   318  ILE318      0.0019
    138  CD1       -1.2330   48.0660   65.0030 C.3   318  ILE318      0.0001
    139  N         -3.8150   54.5650   64.8840 N.3   335  TYR335     -0.1241
    140  CA        -3.4500   54.4150   63.4220 C.3   335  TYR335      0.1605
    141  C         -4.6720   54.7940   62.6150 C.2   335  TYR335      0.2264
    142  O         -5.7800   54.3440   62.8560 O.2   335  TYR335     -0.2867
    143  CB        -3.1200   52.9420   63.0880 C.3   335  TYR335      0.0534
    144  CG        -1.7820   52.5590   63.7100 C.ar  335  TYR335     -0.0201
    145  CD1       -1.7080   52.1890   65.0860 C.ar  335  TYR335     -0.0009
    146  CD2       -0.6250   52.5160   62.9430 C.ar  335  TYR335     -0.0009
    147  CE1       -0.4750   51.8530   65.6750 C.ar  335  TYR335      0.0417
    148  CE2        0.6460   52.2180   63.5300 C.ar  335  TYR335      0.0417
    149  CZ         0.6470   51.8970   64.9160 C.ar  335  TYR335      0.1957
    150  OH         1.8980   51.5740   65.5270 O.3   335  TYR335     -0.2866
    151  N         -0.5160   57.5840   63.8780 N.3   366  ASN366     -0.1225
    152  CA         0.3270   57.1290   62.7560 C.3   366  ASN366      0.1785
    153  C         -0.4510   56.7330   61.4850 C.2   366  ASN366      0.2597
    154  O         -1.6420   56.4100   61.5710 O.2   366  ASN366     -0.2718
    155  CB         1.0160   55.8100   63.2010 C.3   366  ASN366      0.1169
    156  CG         2.0330   55.9980   64.2870 C.2   366  ASN366      0.2627
    157  OD1        2.6240   57.0340   64.3710 O.2   366  ASN366     -0.2716
    158  ND2        2.3050   54.9210   65.0950 N.am  366  ASN366     -0.0877
    159  N          0.2140   56.8280   60.3030 N.am  367  MET367     -0.1965
    160  CA        -0.4770   56.4920   59.0600 C.3   367  MET367      0.1736
    161  C          0.6090   56.3370   57.9580 C.2   367  MET367      0.2616
    162  O          1.7670   56.7500   58.1000 O.2   367  MET367     -0.2715
    163  CB        -1.4700   57.6460   58.6760 C.3   367  MET367      0.0427
    164  CG        -0.8150   58.9550   58.1940 C.3   367  MET367      0.0599
    165  SD        -2.0310   60.1550   57.8230 S.3   367  MET367     -0.1393
    166  CE        -0.9140   61.5840   57.3320 C.3   367  MET367      0.0692
    167  N          0.2210   55.6920   56.8840 N.am  368  VAL368     -0.1977
    168  CA         1.0950   55.6420   55.6350 C.3   368  VAL368      0.1596
    169  C          0.4510   56.6330   54.6400 C.2   368  VAL368      0.2287
    170  O         -0.7320   56.9810   54.7490 O.2   368  VAL368     -0.2864
    171  CB         1.1500   54.2420   55.0460 C.3   368  VAL368      0.0276
    172  CG1        2.0270   54.2360   53.7590 C.3   368  VAL368      0.0022
    173  CG2        1.7330   53.3030   56.0910 C.3   368  VAL368      0.0022
    174  N          6.8200   51.8700   53.6450 N.3   389  LEU389     -0.1245
    175  CA         6.0230   50.6390   53.5270 C.3   389  LEU389      0.1561
    176  C          5.8680   50.2490   52.0400 C.2   389  LEU389      0.2260
    177  O          5.5410   51.1230   51.2400 O.2   389  LEU389     -0.2867
    178  CB         4.6590   50.8520   54.1860 C.3   389  LEU389      0.0270
    179  CG         3.8150   49.5720   54.3020 C.3   389  LEU389      0.0019
    180  CD1        4.4540   48.5700   55.2740 C.3   389  LEU389      0.0001
    181  CD2        2.3710   49.8950   54.6790 C.3   389  LEU389      0.0001
    182  N         -3.5840   48.1140   55.8290 N.3   410  MET410     -0.1230
    183  CA        -3.1380   46.8390   56.3200 C.3   410  MET410      0.1702
    184  C         -2.9270   46.9180   57.8580 C.2   410  MET410      0.2592
    185  O         -2.1180   47.7310   58.3560 O.2   410  MET410     -0.2718
    186  CB        -1.7950   46.3890   55.7410 C.3   410  MET410      0.0401
    187  CG        -1.7840   46.1910   54.2230 C.3   410  MET410      0.0596
    188  SD        -2.7310   44.7140   53.8100 S.3   410  MET410     -0.1393
    189  CE        -1.9180   43.4600   54.8300 C.3   410  MET410      0.0692
    190  N         -3.6430   46.0810   58.5810 N.am  411  LEU411     -0.1980
    191  CA        -3.6690   46.2240   60.0500 C.3   411  LEU411      0.1596
    192  C         -2.3370   45.7450   60.6860 C.2   411  LEU411      0.2287
    193  O         -1.5810   44.8440   60.1990 O.2   411  LEU411     -0.2864
    194  CB        -4.8110   45.3420   60.6310 C.3   411  LEU411      0.0297
    195  CG        -6.2110   45.7890   60.2360 C.3   411  LEU411      0.0022
    196  CD1       -7.1370   44.6820   60.7360 C.3   411  LEU411      0.0001
    197  CD2       -6.6090   47.2110   60.6830 C.3   411  LEU411      0.0001
@<TRIPOS>BOND
     1   177   176    2
     2   176   175    1
     3    76    74    1
     4    70    71    1
     5    71    74    1
     6    71    72    1
     7    48    50    1
     8    48    47    1
     9    74    75    1
    10    43    44    1
    11    77    72   am
    12    77    78    1
    13    80    79    2
    14   175   174    1
    15   175   178    1
    16    47    44    1
    17    47    49    1
    18    72    73    2
    19   172   171    1
    20   188   187    1
    21   188   189    1
    22    81    78    1
    23   178   179    1
    24   187   186    1
    25   179   181    1
    26   179   180    1
    27    44    45    1
    28    78    79    1
    29    79    82   am
    30   108   106   ar
    31   108   107   ar
    32   106   104   ar
    33   169   170    2
    34   169   168    1
    35    46    45    2
    36   171   168    1
    37   171   173    1
    38    84    85    2
    39    84    83    1
    40    45    51   am
    41    82    83    1
    42   107   105   ar
    43   168   167    1
    44   186   183    1
    45   104   103   ar
    46   182   183    1
    47    86    87    1
    48   183   184    1
    49    51    52    1
    50   105   103   ar
    51   167   161   am
    52   103   102    1
    53    97    96    1
    54    87    88    1
    55    87    90    1
    56    95    96   ar
    57    95    93   ar
    58   166   165    1
    59    96    94   ar
    60    93    91   ar
    61    89    88    2
    62    52    55    1
    63    52    53    1
    64    88    98   am
    65    94    92   ar
    66   165   164    1
    67    91    92   ar
    68    91    90    1
    69   184   185    2
    70   184   190   am
    71   161   162    2
    72   161   160    1
    73    55    56    1
    74   164   163    1
    75   102    99    1
    76    98    99    1
    77   190   191    1
    78   163   160    1
    79    54    53    2
    80    53    59   am
    81    56    58   am
    82    56    57    2
    83    99   100    1
    84   160   159    1
    85    59    60    1
    86   191   194    1
    87   191   192    1
    88   193   192    2
    89   195   194    1
    90   195   197    1
    91   195   196    1
    92   159   153   am
    93   100   101    2
    94   100   109   am
    95   130   129    1
    96    61    60    1
    97    61    62    2
    98    60    63    1
    99    12    11    1
   100   128   129   ar
   101   128   126   ar
   102   109   110    1
   103   153   154    2
   104   153   152    1
   105   129   127   ar
   106    66    68   ar
   107    66    64   ar
   108    63    64    1
   109    68    69   ar
   110    19    17    1
   111    64    65   ar
   112   126   124   ar
   113    11     9   ar
   114    11    10   ar
   115     9     7   ar
   116   118   116   ar
   117   118   117   ar
   118    18    17    1
   119   141   142    2
   120   141   140    1
   121   116   114   ar
   122   112   111    2
   123   152   155    1
   124   152   151    1
   125   110   111    1
   126   110   113    1
   127    69    67   ar
   128   117   115   ar
   129   127   125   ar
   130   146   148   ar
   131   146   144   ar
   132    65    67   ar
   133   143   140    1
   134   143   144    1
   135    42    41    1
   136    17    14    1
   137   155   156    1
   138   114   115   ar
   139   114   113    1
   140    10     8   ar
   141   140   139    1
   142   148   149   ar
   143   124   125   ar
   144   124   123    1
   145     7     6   ar
   146   144   145   ar
   147    30    28   ar
   148    30    29   ar
   149    14    13    1
   150    14    15    1
   151    28    26   ar
   152   156   157    2
   153   156   158   am
   154    41    40   ar
   155    41    39   ar
   156   123   120    1
   157     8     6   ar
   158   119   120    1
   159    40    38   ar
   160     6     5    1
   161    29    27   ar
   162    13     3   am
   163   149   150    1
   164   149   147   ar
   165   138   136    1
   166    39    37   ar
   167   145   147   ar
   168    26    25   ar
   169    15    16    2
   170   120   121    1
   171     3     2    1
   172     3     4    2
   173    27    25   ar
   174    38    36   ar
   175    25    24    1
   176     2     5    1
   177     2     1    1
   178   122   121    2
   179    37    36   ar
   180   136   135    1
   181    36    35    1
   182    24    21    1
   183   135   137    1
   184   135   132    1
   185    35    32    1
   186    20    21    1
   187    21    22    1
   188   131   132    1
   189   132   133    1
   190   134   133    2
   191    32    31    1
   192    32    33    1
   193    22    23    2
   194    33    34    1
