@<TRIPOS>MOLECULE
tmp/4cysA00.pdb
 161 152 0 0 0
SMALL
GASTEIGER

@<TRIPOS>ATOM
      1  N         67.5280   -3.1800   21.2230 N.3    11  ASP11      -0.1225
      2  CA        68.9620   -3.0240   21.1130 C.3    11  ASP11       0.1805
      3  C         69.2960   -2.0700   19.9370 C.2    11  ASP11       0.2597
      4  O         69.2260   -2.4740   18.7940 O.2    11  ASP11      -0.2718
      5  CB        69.5510   -4.3950   20.8780 C.3    11  ASP11       0.1424
      6  CG        71.0640   -4.4360   21.0290 C.2    11  ASP11       0.3668
      7  OD1       71.6770   -3.3960   21.3810 O.co2  11  ASP11      -0.2456
      8  OD2       71.6070   -5.5860   20.9210 O.co2  11  ASP11      -0.2456
      9  N         69.6400   -0.8190   20.2590 N.am   12  ASP12      -0.1974
     10  CA        70.0100    0.2340   19.2820 C.3    12  ASP12       0.1709
     11  C         68.8230    0.8020   18.5560 C.2    12  ASP12       0.2293
     12  O         68.9720    1.4990   17.5470 O.2    12  ASP12      -0.2864
     13  CB        71.0730   -0.2840   18.2710 C.3    12  ASP12       0.1436
     14  CG        72.4560   -0.5600   18.8990 C.2    12  ASP12       0.3671
     15  OD1       72.5650   -0.4270   20.1230 O.co2  12  ASP12      -0.2456
     16  OD2       73.3660   -0.9270   18.1860 O.co2  12  ASP12      -0.2456
     17  N         76.1050    2.9880   25.5720 N.3    48  ALA48      -0.1245
     18  CA        76.2890    1.7530   24.9330 C.3    48  ALA48       0.1562
     19  C         75.6540    0.5980   25.7460 C.2    48  ALA48       0.2260
     20  O         75.4250    0.7180   26.9370 O.2    48  ALA48      -0.2867
     21  CB        77.7900    1.4960   24.7550 C.3    48  ALA48       0.0290
     22  N         76.2980   -2.6760   27.1010 N.3    49  SER49      -0.1217
     23  CA        76.6120   -3.3820   28.3730 C.3    49  SER49       0.1889
     24  C         76.6260   -2.4740   29.5750 C.2    49  SER49       0.2288
     25  O         76.0760   -2.8380   30.6000 O.2    49  SER49      -0.2866
     26  CB        77.8560   -4.2930   28.2670 C.3    49  SER49       0.2089
     27  OG        78.8860   -3.6980   27.5060 O.3    49  SER49      -0.2183
     28  N         83.3480   -1.1670   27.8240 N.3    69  VAL69      -0.1245
     29  CA        82.8440   -2.3590   27.1370 C.3    69  VAL69       0.1561
     30  C         83.9800   -3.4190   27.1240 C.2    69  VAL69       0.2260
     31  O         85.1730   -3.0970   26.9170 O.2    69  VAL69      -0.2867
     32  CB        82.3230   -2.0130   25.7220 C.3    69  VAL69       0.0252
     33  CG1       81.2380   -0.9450   25.7690 C.3    69  VAL69       0.0019
     34  CG2       83.4340   -1.5370   24.8240 C.3    69  VAL69       0.0019
     35  N         84.9300   -5.6960   25.2440 N.3    71  GLU71      -0.1245
     36  CA        85.5550   -5.9720   23.9830 C.3    71  GLU71       0.1567
     37  C         86.6220   -4.9610   23.6410 C.2    71  GLU71       0.2260
     38  O         87.2800   -5.0910   22.6120 O.2    71  GLU71      -0.2867
     39  CB        84.4570   -5.9870   22.9040 C.3    71  GLU71       0.0388
     40  CG        83.3770   -7.0720   23.1070 C.3    71  GLU71       0.1160
     41  CD        82.1250   -6.6350   23.8880 C.2    71  GLU71       0.3649
     42  OE1       82.0950   -5.5790   24.5520 O.co2  71  GLU71      -0.2457
     43  OE2       81.1140   -7.3720   23.8300 O.co2  71  GLU71      -0.2457
     44  N         69.3050  -11.1070   24.8090 N.3   110  LYS110     -0.1245
     45  CA        70.7040  -10.7990   24.8840 C.3   110  LYS110      0.1561
     46  C         71.0990  -10.4510   26.2960 C.2   110  LYS110      0.2260
     47  O         70.4340   -9.6730   26.9530 O.2   110  LYS110     -0.2867
     48  CB        71.0420   -9.6050   23.9830 C.3   110  LYS110      0.0271
     49  CG        72.4490   -9.0120   24.1450 C.3   110  LYS110      0.0035
     50  CD        72.6770   -7.9250   23.0670 C.3   110  LYS110      0.0206
     51  CE        73.3290   -6.7240   23.6400 C.3   110  LYS110      0.1093
     52  NZ        73.7690   -5.7530   22.5630 N.3   110  LYS110     -0.1314
     53  N         74.8970   -9.8440   27.5280 N.3   112  HIS112     -0.1241
     54  CA        75.9960   -8.9050   27.4180 C.3   112  HIS112      0.1621
     55  C         76.6290   -8.4960   28.7480 C.2   112  HIS112      0.2264
     56  O         77.3000   -7.4680   28.8670 O.2   112  HIS112     -0.2867
     57  CB        75.5520   -7.6600   26.6300 C.3   112  HIS112      0.0745
     58  CG        76.6500   -7.0490   25.8250 C.ar  112  HIS112      0.0817
     59  ND1       76.4980   -5.8620   25.1300 N.ar  112  HIS112     -0.2268
     60  CD2       77.9270   -7.4590   25.6110 C.ar  112  HIS112      0.1154
     61  CE1       77.6560   -5.5390   24.5740 C.ar  112  HIS112      0.1986
     62  NE2       78.5320   -6.5040   24.8260 N.ar  112  HIS112     -0.2212
     63  N         77.5760   -9.4360   22.7970 N.3   135  GLY135     -0.1210
     64  CA        76.8990   -8.1490   22.4920 C.3   135  GLY135      0.1956
     65  C         76.1670   -8.1530   21.1650 C.2   135  GLY135      0.2611
     66  O         75.2810   -7.2890   20.8740 O.2   135  GLY135     -0.2717
     67  N         76.5150   -9.1310   20.3240 N.am  136  ALA136     -0.1979
     68  CA        75.8290   -9.3340   19.0770 C.3   136  ALA136      0.1597
     69  C         76.1380  -10.7240   18.5150 C.2   136  ALA136      0.2287
     70  O         77.0390  -11.4400   19.0170 O.2   136  ALA136     -0.2864
     71  CB        76.1830   -8.2540   18.0730 C.3   136  ALA136      0.0319
     72  N         85.8220   -7.9310   15.4290 N.3   153  ILE153     -0.1245
     73  CA        84.4150   -7.6950   15.7140 C.3   153  ILE153      0.1561
     74  C         83.5280   -8.9500   15.4880 C.2   153  ILE153      0.2260
     75  O         82.5490   -9.1380   16.1950 O.2   153  ILE153     -0.2867
     76  CB        83.8850   -6.5090   14.9110 C.3   153  ILE153      0.0252
     77  CG1       82.4690   -6.2020   15.3440 C.3   153  ILE153      0.0019
     78  CG2       83.8170   -6.8370   13.4140 C.3   153  ILE153      0.0019
     79  CD1       81.9710   -4.9090   14.7900 C.3   153  ILE153      0.0001
     80  N         84.3520  -11.6530   18.2280 N.3   156  GLY156     -0.1210
     81  CA        83.7090  -11.3060   19.5080 C.3   156  GLY156      0.1956
     82  C         82.1800  -11.4000   19.5310 C.2   156  GLY156      0.2612
     83  O         81.5700  -11.1550   20.5720 O.2   156  GLY156     -0.2717
     84  N         81.5820  -11.8410   18.4240 N.am  157  THR157     -0.1952
     85  CA        80.1180  -11.9440   18.2700 C.3   157  THR157      0.1897
     86  C         79.6550  -13.2960   17.7570 C.2   157  THR157      0.2313
     87  O         78.8930  -13.3510   16.8230 O.2   157  THR157     -0.2863
     88  CB        79.6060  -10.7920   17.3840 C.3   157  THR157      0.1794
     89  OG1       80.2960  -10.7350   16.0970 O.3   157  THR157     -0.2208
     90  CG2       79.8430   -9.5160   18.1220 C.3   157  THR157      0.0378
     91  N         69.7760   -4.4960   16.2810 N.3   208  HIS208     -0.1226
     92  CA        71.2750   -4.3460   16.2280 C.3   208  HIS208      0.1752
     93  C         71.8460   -5.0230   14.9730 C.2   208  HIS208      0.2596
     94  O         71.2750   -6.0200   14.4440 O.2   208  HIS208     -0.2718
     95  CB        71.8350   -4.9510   17.4960 C.3   208  HIS208      0.0759
     96  CG        73.2530   -4.6210   17.8030 C.ar  208  HIS208      0.0818
     97  ND1       74.2870   -5.1580   17.0850 N.ar  208  HIS208     -0.2268
     98  CD2       73.8060   -3.9370   18.8390 C.ar  208  HIS208      0.1154
     99  CE1       75.4370   -4.7420   17.6010 C.ar  208  HIS208      0.1986
    100  NE2       75.1710   -4.0260   18.6930 N.ar  208  HIS208     -0.2212
    101  N         72.9610   -4.5030   14.4770 N.am  209  TRP209     -0.1976
    102  CA        73.5600   -5.1040   13.3050 C.3   209  TRP209      0.1640
    103  C         74.0160   -6.5080   13.6790 C.2   209  TRP209      0.2290
    104  O         74.1940   -6.7880   14.8820 O.2   209  TRP209     -0.2864
    105  CB        74.7530   -4.2930   12.7610 C.3   209  TRP209      0.0576
    106  CG        75.6340   -3.6360   13.7410 C.ar  209  TRP209      0.0006
    107  CD1       75.6430   -2.3090   14.0580 C.ar  209  TRP209      0.0946
    108  CD2       76.7270   -4.2270   14.4690 C.ar  209  TRP209      0.0152
    109  NE1       76.6150   -2.0590   14.9670 N.ar  209  TRP209     -0.2442
    110  CE2       77.2920   -3.2010   15.2550 C.ar  209  TRP209      0.0810
    111  CE3       77.2230   -5.5320   14.5980 C.ar  209  TRP209      0.0012
    112  CZ2       78.2960   -3.4260   16.1340 C.ar  209  TRP209      0.0191
    113  CZ3       78.2740   -5.7570   15.4710 C.ar  209  TRP209      0.0001
    114  CH2       78.7840   -4.7170   16.2380 C.ar  209  TRP209      0.0015
    115  N         68.3310    0.5990   24.6510 N.3   314  ASP314     -0.1225
    116  CA        69.4260    0.5470   25.5690 C.3   314  ASP314      0.1805
    117  C         70.4650    1.6580   25.3900 C.2   314  ASP314      0.2597
    118  O         71.3700    1.7790   26.2380 O.2   314  ASP314     -0.2718
    119  CB        70.0950   -0.8690   25.5680 C.3   314  ASP314      0.1424
    120  CG        70.8370   -1.1860   24.3060 C.2   314  ASP314      0.3668
    121  OD1       70.5360   -0.5890   23.2050 O.co2 314  ASP314     -0.2456
    122  OD2       71.6990   -2.1000   24.3670 O.co2 314  ASP314     -0.2456
    123  N         70.3470    2.4270   24.2960 N.am  315  ASN315     -0.1974
    124  CA        71.2600    3.4690   23.9290 C.3   315  ASN315      0.1688
    125  C         70.6860    4.1710   22.6920 C.2   315  ASN315      0.2292
    126  O         69.6320    3.8260   22.2340 O.2   315  ASN315     -0.2864
    127  CB        72.7210    2.9850   23.7440 C.3   315  ASN315      0.1181
    128  CG        72.8580    1.8530   22.7090 C.2   315  ASN315      0.2629
    129  OD1       72.6020    2.0560   21.4970 O.2   315  ASN315     -0.2716
    130  ND2       73.2190    0.6690   23.1610 N.am  315  ASN315     -0.0877
    131  N         88.1780   -3.3280   15.1020 N.3   328  PHE328     -0.1241
    132  CA        87.1640   -4.3070   14.6110 C.3   328  PHE328      0.1605
    133  C         87.6760   -5.2410   13.5080 C.2   328  PHE328      0.2264
    134  O         87.0940   -6.2870   13.2790 O.2   328  PHE328     -0.2867
    135  CB        85.9040   -3.6050   14.0880 C.3   328  PHE328      0.0534
    136  CG        85.1290   -2.8430   15.1440 C.ar  328  PHE328     -0.0203
    137  CD1       85.2680   -3.1160   16.5210 C.ar  328  PHE328     -0.0042
    138  CD2       84.2480   -1.8480   14.7550 C.ar  328  PHE328     -0.0042
    139  CE1       84.5340   -2.4090   17.4590 C.ar  328  PHE328     -0.0003
    140  CE2       83.5220   -1.1440   15.6830 C.ar  328  PHE328     -0.0003
    141  CZ        83.6620   -1.4220   17.0400 C.ar  328  PHE328     -0.0000
    142  N         74.5430    6.6950   19.2230 N.3   372  LYS372     -0.1245
    143  CA        75.1580    5.6930   20.1160 C.3   372  LYS372      0.1561
    144  C         76.6670    5.9240   20.2770 C.2   372  LYS372      0.2260
    145  O         77.3220    6.3040   19.3670 O.2   372  LYS372     -0.2867
    146  CB        74.9490    4.2820   19.5640 C.3   372  LYS372      0.0271
    147  CG        75.5860    3.1480   20.3360 C.3   372  LYS372      0.0035
    148  CD        75.4270    1.9070   19.5000 C.3   372  LYS372      0.0206
    149  CE        76.1440    0.6560   20.0840 C.3   372  LYS372      0.1093
    150  NZ        76.0580   -0.4670   19.0830 N.3   372  LYS372     -0.1314
    151  N         84.4360    5.6440   26.5970 N.3   460  PHE460     -0.1241
    152  CA        85.2330    5.8900   25.3880 C.3   460  PHE460      0.1605
    153  C         85.9030    7.2870   25.4240 C.2   460  PHE460      0.2264
    154  O         86.0820    7.9170   24.3800 O.2   460  PHE460     -0.2867
    155  CB        84.3680    5.7320   24.1070 C.3   460  PHE460      0.0534
    156  CG        83.6760    4.3840   23.9830 C.ar  460  PHE460     -0.0203
    157  CD1       84.3820    3.1850   24.1170 C.ar  460  PHE460     -0.0042
    158  CD2       82.3410    4.3290   23.7110 C.ar  460  PHE460     -0.0042
    159  CE1       83.7400    1.9760   23.9880 C.ar  460  PHE460     -0.0003
    160  CE2       81.6950    3.1220   23.5860 C.ar  460  PHE460     -0.0003
    161  CZ        82.3940    1.9590   23.7230 C.ar  460  PHE460     -0.0000
@<TRIPOS>BOND
     1   105   102    1
     2   105   106    1
     3   134   133    2
     4   102   103    1
     5   102   101    1
     6    78    76    1
     7   133   132    1
     8   103   104    2
     9   106   107   ar
    10   106   108   ar
    11   107   109   ar
    12   135   132    1
    13   135   136    1
    14    94    93    2
    15   108   111   ar
    16   108   110   ar
    17   101    93   am
    18   111   113   ar
    19   132   131    1
    20   138   136   ar
    21   138   140   ar
    22    79    77    1
    23    76    77    1
    24    76    73    1
    25   109   110   ar
    26    93    92    1
    27   136   137   ar
    28   110   112   ar
    29    72    73    1
    30   113   114   ar
    31    74    73    1
    32    74    75    2
    33   140   141   ar
    34    89    88    1
    35   112   114   ar
    36    92    91    1
    37    92    95    1
    38   137   139   ar
    39    87    86    2
    40   141   139   ar
    41    97    99   ar
    42    97    96   ar
    43    88    90    1
    44    88    85    1
    45    95    96    1
    46    12    11    2
    47    99   100   ar
    48    86    85    1
    49    96    98   ar
    50    71    68    1
    51    16    14   ar
    52    80    81    1
    53    85    84    1
    54    13    14    1
    55    13    10    1
    56    84    82   am
    57    69    70    2
    58    69    68    1
    59    11    10    1
    60   100    98   ar
    61     4     3    2
    62    14    15   ar
    63    68    67    1
    64   150   149    1
    65   142   143    1
    66    10     9    1
    67   145   144    2
    68   148   149    1
    69   148   147    1
    70    81    82    1
    71    82    83    2
    72   146   143    1
    73   146   147    1
    74     3     9   am
    75     3     2    1
    76   143   144    1
    77    67    65   am
    78    66    65    2
    79     5     6    1
    80     5     2    1
    81     8     6   ar
    82     6     7   ar
    83     2     1    1
    84    65    64    1
    85   129   128    2
    86   126   125    2
    87    64    63    1
    88    52    51    1
    89    38    37    2
    90   125   124    1
    91   128   130   am
    92   128   127    1
    93    39    40    1
    94    39    36    1
    95    50    51    1
    96    50    49    1
    97    40    41    1
    98   121   120   ar
    99   160   158   ar
   100   160   161   ar
   101    37    36    1
   102   158   156   ar
   103   161   159   ar
   104   127   124    1
   105    43    41   ar
   106    41    42   ar
   107   124   123    1
   108   156   155    1
   109   156   157   ar
   110    36    35    1
   111    48    49    1
   112    48    45    1
   113   159   157   ar
   114   155   152    1
   115   123   117   am
   116   120   122   ar
   117   120   119    1
   118   154   153    2
   119    61    62   ar
   120    61    59   ar
   121   115   116    1
   122    21    18    1
   123    44    45    1
   124    34    32    1
   125    62    60   ar
   126    45    46    1
   127    18    17    1
   128    18    19    1
   129    59    58   ar
   130   152   153    1
   131   152   151    1
   132   117   116    1
   133   117   118    2
   134   119   116    1
   135    60    58   ar
   136    32    33    1
   137    32    29    1
   138    19    20    2
   139    58    57    1
   140    46    47    2
   141    57    54    1
   142    31    30    2
   143    22    23    1
   144    30    29    1
   145    29    28    1
   146    54    53    1
   147    54    55    1
   148    27    26    1
   149    26    23    1
   150    23    24    1
   151    55    56    2
   152    24    25    2
