@<TRIPOS>MOLECULE
tmp/4cysA02.pdb
 111 108 0 0 0
SMALL
GASTEIGER

@<TRIPOS>ATOM
      1  N         80.7690   11.5010    7.8610 N.3   258  LEU258     -0.1245
      2  CA        81.9080   11.5520    6.9490 C.3   258  LEU258      0.1561
      3  C         81.5770   10.8110    5.6500 C.2   258  LEU258      0.2260
      4  O         82.3300   10.8290    4.7210 O.2   258  LEU258     -0.2867
      5  CB        83.1370   10.9290    7.6110 C.3   258  LEU258      0.0270
      6  CG        83.5620   11.5820    8.9330 C.3   258  LEU258      0.0019
      7  CD1       84.7570   10.8570    9.4900 C.3   258  LEU258      0.0001
      8  CD2       83.8820   13.0580    8.7250 C.3   258  LEU258      0.0001
      9  N         86.8130    1.5070   12.3130 N.3   325  PHE325     -0.1241
     10  CA        87.5810    1.2130   13.5270 C.3   325  PHE325      0.1605
     11  C         88.5950    0.1080   13.3390 C.2   325  PHE325      0.2264
     12  O         88.2110   -1.0830   13.3270 O.2   325  PHE325     -0.2867
     13  CB        86.6110    0.7880   14.6280 C.3   325  PHE325      0.0534
     14  CG        85.6070    1.8580   14.9940 C.ar  325  PHE325     -0.0203
     15  CD1       85.9760    2.9310   15.8380 C.ar  325  PHE325     -0.0042
     16  CD2       84.2840    1.8260   14.4990 C.ar  325  PHE325     -0.0042
     17  CE1       85.0530    3.9320   16.1880 C.ar  325  PHE325     -0.0003
     18  CE2       83.3640    2.8250   14.8490 C.ar  325  PHE325     -0.0003
     19  CZ        83.7430    3.8760   15.6970 C.ar  325  PHE325     -0.0000
     20  N         88.1780   -3.3280   15.1020 N.3   328  PHE328     -0.1241
     21  CA        87.1640   -4.3070   14.6110 C.3   328  PHE328      0.1605
     22  C         87.6760   -5.2410   13.5080 C.2   328  PHE328      0.2264
     23  O         87.0940   -6.2870   13.2790 O.2   328  PHE328     -0.2867
     24  CB        85.9040   -3.6050   14.0880 C.3   328  PHE328      0.0534
     25  CG        85.1290   -2.8430   15.1440 C.ar  328  PHE328     -0.0203
     26  CD1       85.2680   -3.1160   16.5210 C.ar  328  PHE328     -0.0042
     27  CD2       84.2480   -1.8480   14.7550 C.ar  328  PHE328     -0.0042
     28  CE1       84.5340   -2.4090   17.4590 C.ar  328  PHE328     -0.0003
     29  CE2       83.5220   -1.1440   15.6830 C.ar  328  PHE328     -0.0003
     30  CZ        83.6620   -1.4220   17.0400 C.ar  328  PHE328     -0.0000
     31  N         74.5730   10.2040   18.3360 N.3   371  TYR371     -0.1227
     32  CA        74.0420    8.8590   18.3150 C.3   371  TYR371      0.1736
     33  C         74.8180    7.9900   19.2550 C.2   371  TYR371      0.2595
     34  O         75.6000    8.5160   20.0480 O.2   371  TYR371     -0.2718
     35  CB        74.0330    8.2580   16.8880 C.3   371  TYR371      0.0548
     36  CG        75.3160    8.3670   16.1560 C.ar  371  TYR371     -0.0200
     37  CD1       76.3470    7.4750   16.4150 C.ar  371  TYR371     -0.0009
     38  CD2       75.5100    9.3540   15.1860 C.ar  371  TYR371     -0.0009
     39  CE1       77.5470    7.5640   15.7560 C.ar  371  TYR371      0.0417
     40  CE2       76.6950    9.4410   14.4940 C.ar  371  TYR371      0.0417
     41  CZ        77.7090    8.5690   14.7800 C.ar  371  TYR371      0.1957
     42  OH        78.9030    8.6210   14.1060 O.3   371  TYR371     -0.2866
     43  N         74.5430    6.6950   19.2230 N.am  372  LYS372     -0.1966
     44  CA        75.1580    5.6930   20.1160 C.3   372  LYS372      0.1728
     45  C         76.6670    5.9240   20.2770 C.2   372  LYS372      0.2616
     46  O         77.3220    6.3040   19.3670 O.2   372  LYS372     -0.2715
     47  CB        74.9490    4.2820   19.5640 C.3   372  LYS372      0.0311
     48  CG        75.5860    3.1480   20.3360 C.3   372  LYS372      0.0038
     49  CD        75.4270    1.9070   19.5000 C.3   372  LYS372      0.0206
     50  CE        76.1440    0.6560   20.0840 C.3   372  LYS372      0.1093
     51  NZ        76.0580   -0.4670   19.0830 N.3   372  LYS372     -0.1314
     52  N         77.1300    5.7120   21.5050 N.am  373  ALA373     -0.1963
     53  CA        78.5380    5.7850   21.8980 C.3   373  ALA373      0.1728
     54  C         79.0770    7.2170   22.0630 C.2   373  ALA373      0.2616
     55  O         80.2640    7.4070   22.3270 O.2   373  ALA373     -0.2715
     56  CB        79.3860    4.9610   20.9600 C.3   373  ALA373      0.0334
     57  N         78.2010    8.2040   21.8780 N.am  374  PHE374     -0.1974
     58  CA        78.4300    9.5590   22.3670 C.3   374  PHE374      0.1639
     59  C         77.6260    9.8750   23.6290 C.2   374  PHE374      0.2290
     60  O         76.5370    9.3010   23.9170 O.2   374  PHE374     -0.2864
     61  CB        78.1150   10.5570   21.2670 C.3   374  PHE374      0.0560
     62  CG        79.0510   10.4690   20.0610 C.ar  374  PHE374     -0.0200
     63  CD1       78.8430    9.5380   19.0380 C.ar  374  PHE374     -0.0042
     64  CD2       80.1780   11.2560   19.9840 C.ar  374  PHE374     -0.0042
     65  CE1       79.6740    9.4900   17.9080 C.ar  374  PHE374     -0.0003
     66  CE2       81.0470   11.1730   18.9020 C.ar  374  PHE374     -0.0003
     67  CZ        80.8130   10.3110   17.8650 C.ar  374  PHE374     -0.0000
     68  N         84.4360    5.6440   26.5970 N.3   460  PHE460     -0.1241
     69  CA        85.2330    5.8900   25.3880 C.3   460  PHE460      0.1605
     70  C         85.9030    7.2870   25.4240 C.2   460  PHE460      0.2264
     71  O         86.0820    7.9170   24.3800 O.2   460  PHE460     -0.2867
     72  CB        84.3680    5.7320   24.1070 C.3   460  PHE460      0.0534
     73  CG        83.6760    4.3840   23.9830 C.ar  460  PHE460     -0.0203
     74  CD1       84.3820    3.1850   24.1170 C.ar  460  PHE460     -0.0042
     75  CD2       82.3410    4.3290   23.7110 C.ar  460  PHE460     -0.0042
     76  CE1       83.7400    1.9760   23.9880 C.ar  460  PHE460     -0.0003
     77  CE2       81.6950    3.1220   23.5860 C.ar  460  PHE460     -0.0003
     78  CZ        82.3940    1.9590   23.7230 C.ar  460  PHE460     -0.0000
     79  N         84.6430   10.0780   26.3960 N.3   462  MET462     -0.1245
     80  CA        83.6750   11.1200   26.4100 C.3   462  MET462      0.1570
     81  C         83.0750   11.2250   27.7890 C.2   462  MET462      0.2261
     82  O         83.0590   10.2240   28.5610 O.2   462  MET462     -0.2867
     83  CB        82.5800   10.8220   25.3890 C.3   462  MET462      0.0387
     84  CG        83.2290   10.2840   24.1080 C.3   462  MET462      0.0595
     85  SD        82.1470   10.4550   22.6910 S.3   462  MET462     -0.1393
     86  CE        82.7460    9.1560   21.6400 C.3   462  MET462      0.0692
     87  N         86.3600   13.7540   17.3660 N.3   479  VAL479     -0.1245
     88  CA        84.9040   13.9120   17.2900 C.3   479  VAL479      0.1561
     89  C         84.3660   15.1340   18.0280 C.2   479  VAL479      0.2260
     90  O         83.1890   15.4470   17.9160 O.2   479  VAL479     -0.2867
     91  CB        84.1460   12.6710   17.7780 C.3   479  VAL479      0.0252
     92  CG1       84.3620   11.5170   16.7980 C.3   479  VAL479      0.0019
     93  CG2       84.5280   12.3020   19.2130 C.3   479  VAL479      0.0019
     94  N         89.7320    6.0050   21.6540 N.3   530  PHE530     -0.1241
     95  CA        89.4600    5.0300   20.5980 C.3   530  PHE530      0.1605
     96  C         90.3070    5.5380   19.4400 C.2   530  PHE530      0.2264
     97  O         90.8520    6.6510   19.5070 O.2   530  PHE530     -0.2867
     98  CB        87.9740    5.0350   20.1960 C.3   530  PHE530      0.0534
     99  CG        87.3980    6.4230   20.0060 C.ar  530  PHE530     -0.0203
    100  CD1       86.8390    7.1000   21.1000 C.ar  530  PHE530     -0.0042
    101  CD2       87.4230    7.0590   18.7550 C.ar  530  PHE530     -0.0042
    102  CE1       86.3350    8.3820   20.9550 C.ar  530  PHE530     -0.0003
    103  CE2       86.9040    8.3420   18.6050 C.ar  530  PHE530     -0.0003
    104  CZ        86.3600    8.9990   19.7090 C.ar  530  PHE530     -0.0000
    105  N         89.8290    6.0560   15.1650 N.3   532  VAL532     -0.1245
    106  CA        89.1320    5.9610   13.8890 C.3   532  VAL532      0.1561
    107  C         90.2030    6.0740   12.7810 C.2   532  VAL532      0.2260
    108  O         91.3330    6.5390   13.0240 O.2   532  VAL532     -0.2867
    109  CB        87.9070    6.9280   13.7510 C.3   532  VAL532      0.0252
    110  CG1       86.6180    6.2430   14.1990 C.3   532  VAL532      0.0019
    111  CG2       88.0930    8.2330   14.5100 C.3   532  VAL532      0.0019
@<TRIPOS>BOND
     1     4     3    2
     2     3     2    1
     3     2     5    1
     4     2     1    1
     5     5     6    1
     6     8     6    1
     7     6     7    1
     8     9    10    1
     9   107   108    2
    10   107   106    1
    11    23    22    2
    12    12    11    2
    13    11    10    1
    14    22    21    1
    15    10    13    1
    16   109   106    1
    17   109   110    1
    18   109   111    1
    19   106   105    1
    20    24    21    1
    21    24    25    1
    22    42    41    1
    23    40    41   ar
    24    40    38   ar
    25    16    18   ar
    26    16    14   ar
    27    21    20    1
    28    13    14    1
    29    27    25   ar
    30    27    29   ar
    31    41    39   ar
    32    18    19   ar
    33    14    15   ar
    34    25    26   ar
    35    38    36   ar
    36    29    30   ar
    37    19    17   ar
    38    39    37   ar
    39    15    17   ar
    40    36    37   ar
    41    36    35    1
    42    26    28   ar
    43    92    91    1
    44    35    32    1
    45    30    28   ar
    46    88    87    1
    47    88    91    1
    48    88    89    1
    49    91    93    1
    50    67    65   ar
    51    67    66   ar
    52    65    63   ar
    53    90    89    2
    54    32    31    1
    55    32    33    1
    56   103   101   ar
    57   103   104   ar
    58   101    99   ar
    59    66    64   ar
    60    63    62   ar
    61    51    50    1
    62    43    33   am
    63    43    44    1
    64    33    34    2
    65    46    45    2
    66    96    97    2
    67    96    95    1
    68    49    50    1
    69    49    48    1
    70    47    44    1
    71    47    48    1
    72   104   102   ar
    73    64    62   ar
    74    99    98    1
    75    99   100   ar
    76    62    61    1
    77    44    45    1
    78    98    95    1
    79    45    52   am
    80    95    94    1
    81   102   100   ar
    82    56    53    1
    83    61    58    1
    84    52    53    1
    85    86    85    1
    86    57    54   am
    87    57    58    1
    88    53    54    1
    89    54    55    2
    90    58    59    1
    91    85    84    1
    92    77    75   ar
    93    77    78   ar
    94    59    60    2
    95    75    73   ar
    96    78    76   ar
    97    73    72    1
    98    73    74   ar
    99    76    74   ar
   100    72    69    1
   101    84    83    1
   102    71    70    2
   103    69    70    1
   104    69    68    1
   105    83    80    1
   106    79    80    1
   107    80    81    1
   108    81    82    2
