@<TRIPOS>MOLECULE
tmp/4cyzA01.pdb
 133 126 0 0 0
SMALL
GASTEIGER

@<TRIPOS>ATOM
      1  N         40.0070   -4.9470   22.0850 N.3    88  TYR88      -0.1241
      2  CA        40.5910   -6.1990   21.6280 C.3    88  TYR88       0.1605
      3  C         40.7430   -6.1000   20.1100 C.2    88  TYR88       0.2264
      4  O         39.8350   -5.6210   19.4300 O.2    88  TYR88      -0.2867
      5  CB        39.6930   -7.3770   22.0170 C.3    88  TYR88       0.0534
      6  CG        40.3290   -8.7390   21.8640 C.ar   88  TYR88      -0.0201
      7  CD1       40.3160   -9.4040   20.6420 C.ar   88  TYR88      -0.0009
      8  CD2       40.9330   -9.3690   22.9450 C.ar   88  TYR88      -0.0009
      9  CE1       40.8860  -10.6610   20.5020 C.ar   88  TYR88       0.0417
     10  CE2       41.5080  -10.6220   22.8130 C.ar   88  TYR88       0.0417
     11  CZ        41.4750  -11.2640   21.5900 C.ar   88  TYR88       0.1957
     12  OH        42.0440  -12.4990   21.4530 O.3    88  TYR88      -0.2866
     13  N         33.9210  -14.5930   29.8130 N.3   125  GLY125     -0.1210
     14  CA        35.2930  -14.4770   29.3110 C.3   125  GLY125      0.1956
     15  C         35.7190  -13.0300   29.1100 C.2   125  GLY125      0.2613
     16  O         34.9510  -12.2060   28.5890 O.2   125  GLY125     -0.2717
     17  N         36.9430  -12.7150   29.5310 N.am  126  THR126     -0.1938
     18  CA        37.4190  -11.3370   29.5330 C.3   126  THR126      0.2028
     19  C         38.8410  -11.2150   28.9930 C.2   126  THR126      0.2643
     20  O         39.5270  -12.2150   28.7660 O.2   126  THR126     -0.2714
     21  CB        37.3830  -10.7190   30.9460 C.3   126  THR126      0.1808
     22  OG1       38.2880  -11.4310   31.7960 O.3   126  THR126     -0.2208
     23  CG2       35.9720  -10.7450   31.5390 C.3   126  THR126      0.0379
     24  N         39.2730   -9.9770   28.7860 N.am  127  THR127     -0.1936
     25  CA        40.5970   -9.7130   28.2510 C.3   127  THR127      0.2028
     26  C         41.2270   -8.4820   28.9010 C.2   127  THR127      0.2642
     27  O         40.5390   -7.5180   29.2450 O.2   127  THR127     -0.2714
     28  CB        40.5880   -9.5820   26.7000 C.3   127  THR127      0.1808
     29  OG1       41.8590   -9.1070   26.2450 O.3   127  THR127     -0.2208
     30  CG2       39.4930   -8.6310   26.2200 C.3   127  THR127      0.0379
     31  N         42.5430   -8.5430   29.0680 N.am  128  LYS128     -0.1977
     32  CA        43.3270   -7.4220   29.5460 C.3   128  LYS128      0.1596
     33  C         43.2570   -6.2430   28.5760 C.2   128  LYS128      0.2287
     34  O         43.5450   -5.1090   28.9510 O.2   128  LYS128     -0.2864
     35  CB        44.7800   -7.8630   29.7530 C.3   128  LYS128      0.0298
     36  CG        45.6850   -6.7920   30.3370 C.3   128  LYS128      0.0038
     37  CD        46.9660   -7.3830   30.9040 C.3   128  LYS128      0.0206
     38  CE        47.8410   -6.2910   31.4970 C.3   128  LYS128      0.1093
     39  NZ        48.9850   -6.8700   32.2450 N.3   128  LYS128     -0.1314
     40  N         40.2740   -6.8410   34.0550 N.3   136  ASN136     -0.1240
     41  CA        40.0300   -7.4150   32.7380 C.3   136  ASN136      0.1653
     42  C         38.5360   -7.5040   32.5040 C.2   136  ASN136      0.2266
     43  O         37.7930   -7.9970   33.3550 O.2   136  ASN136     -0.2867
     44  CB        40.6790   -8.7990   32.6060 C.3   136  ASN136      0.1155
     45  CG        42.1950   -8.7490   32.7150 C.2   136  ASN136      0.2627
     46  OD1       42.7740   -7.7110   33.0340 O.2   136  ASN136     -0.2716
     47  ND2       42.8450   -9.8760   32.4570 N.am  136  ASN136     -0.0877
     48  N         31.8080  -13.1200   25.5740 N.3   144  TRP144     -0.1241
     49  CA        32.8110  -14.0560   25.1070 C.3   144  TRP144      0.1605
     50  C         32.5270  -15.4320   25.7070 C.2   144  TRP144      0.2264
     51  O         32.7300  -15.6620   26.8980 O.2   144  TRP144     -0.2867
     52  CB        34.2300  -13.5860   25.4580 C.3   144  TRP144      0.0550
     53  CG        35.3050  -14.2640   24.6340 C.ar  144  TRP144      0.0003
     54  CD1       35.1780  -15.4140   23.9020 C.ar  144  TRP144      0.0946
     55  CD2       36.6640  -13.8490   24.4860 C.ar  144  TRP144      0.0152
     56  NE1       36.3610  -15.7290   23.3020 N.ar  144  TRP144     -0.2442
     57  CE2       37.2960  -14.7880   23.6410 C.ar  144  TRP144      0.0810
     58  CE3       37.4120  -12.7690   24.9770 C.ar  144  TRP144      0.0012
     59  CZ2       38.6440  -14.6800   23.2710 C.ar  144  TRP144      0.0191
     60  CZ3       38.7550  -12.6610   24.6090 C.ar  144  TRP144      0.0001
     61  CH2       39.3540  -13.6120   23.7660 C.ar  144  TRP144      0.0015
     62  N         33.2200  -19.2620   26.1540 N.3   146  VAL146     -0.1245
     63  CA        34.1990  -20.3370   26.0610 C.3   146  VAL146      0.1561
     64  C         33.7240  -21.5230   26.8930 C.2   146  VAL146      0.2260
     65  O         32.8190  -21.3760   27.7310 O.2   146  VAL146     -0.2867
     66  CB        35.6080  -19.8880   26.5150 C.3   146  VAL146      0.0252
     67  CG1       36.2100  -18.8940   25.5240 C.3   146  VAL146      0.0019
     68  CG2       35.5750  -19.3180   27.9280 C.3   146  VAL146      0.0019
     69  N         35.7140  -15.0300   17.1460 N.3   176  HIS176     -0.1241
     70  CA        37.0560  -15.0270   17.6650 C.3   176  HIS176      0.1621
     71  C         37.9580  -15.8520   16.7680 C.2   176  HIS176      0.2264
     72  O         37.6050  -16.9570   16.3670 O.2   176  HIS176     -0.2867
     73  CB        37.1210  -15.5490   19.0910 C.3   176  HIS176      0.0745
     74  CG        38.5130  -15.5900   19.6310 C.ar  176  HIS176      0.0817
     75  ND1       39.0870  -16.7400   20.1250 N.ar  176  HIS176     -0.2268
     76  CD2       39.4650  -14.6280   19.7130 C.ar  176  HIS176      0.1154
     77  CE1       40.3260  -16.4790   20.5050 C.ar  176  HIS176      0.1986
     78  NE2       40.5770  -15.2050   20.2700 N.ar  176  HIS176     -0.2212
     79  N         45.0800  -17.5130   17.9250 N.3   179  SER179     -0.1217
     80  CA        46.4370  -17.3870   17.3870 C.3   179  SER179      0.1889
     81  C         47.1740  -18.7220   17.2630 C.2   179  SER179      0.2288
     82  O         48.2820  -18.7670   16.7290 O.2   179  SER179     -0.2866
     83  CB        47.2560  -16.4390   18.2530 C.3   179  SER179      0.2089
     84  OG        47.2530  -16.8730   19.5970 O.3   179  SER179     -0.2183
     85  N         45.5570  -22.8600   21.6740 N.3   183  GLU183     -0.1245
     86  CA        44.6140  -21.9050   22.2450 C.3   183  GLU183      0.1567
     87  C         43.1900  -22.2370   21.8000 C.2   183  GLU183      0.2260
     88  O         42.2760  -22.2570   22.6230 O.2   183  GLU183     -0.2867
     89  CB        45.0060  -20.4780   21.8580 C.3   183  GLU183      0.0388
     90  CG        43.9980  -19.4040   22.2150 C.3   183  GLU183      0.1160
     91  CD        44.5320  -18.0140   21.9290 C.2   183  GLU183      0.3649
     92  OE1       45.1980  -17.4380   22.8210 O.co2 183  GLU183     -0.2457
     93  OE2       44.2940  -17.4960   20.8110 O.co2 183  GLU183     -0.2457
     94  N         40.2030  -23.2260   24.3950 N.3   187  LEU187     -0.1245
     95  CA        39.0170  -22.3890   24.4990 C.3   187  LEU187      0.1561
     96  C         37.7410  -23.0910   24.0540 C.2   187  LEU187      0.2260
     97  O         36.7090  -22.9430   24.7060 O.2   187  LEU187     -0.2867
     98  CB        39.2110  -21.0800   23.7260 C.3   187  LEU187      0.0270
     99  CG        39.7820  -19.8410   24.4370 C.3   187  LEU187      0.0019
    100  CD1       40.9840  -20.1280   25.3270 C.3   187  LEU187      0.0001
    101  CD2       40.1340  -18.7750   23.4070 C.3   187  LEU187      0.0001
    102  N         50.9630   -9.4400   17.7680 N.3   215  GLN215     -0.1245
    103  CA        50.2290   -8.9920   18.9350 C.3   215  GLN215      0.1566
    104  C         49.8200   -7.5320   18.7430 C.2   215  GLN215      0.2260
    105  O         50.6650   -6.6740   18.4620 O.2   215  GLN215     -0.2867
    106  CB        51.0890   -9.1340   20.1880 C.3   215  GLN215      0.0367
    107  CG        51.6630  -10.5200   20.4010 C.3   215  GLN215      0.0905
    108  CD        52.4010  -10.6370   21.7160 C.2   215  GLN215      0.2608
    109  OE1       51.8120  -10.9530   22.7470 O.2   215  GLN215     -0.2717
    110  NE2       53.7010  -10.3910   21.6840 N.am  215  GLN215     -0.0878
    111  N         48.7120   -6.3940   22.8560 N.3   218  GLY218     -0.1210
    112  CA        49.1300   -7.5800   23.5920 C.3   218  GLY218      0.1956
    113  C         48.4740   -8.8860   23.1760 C.2   218  GLY218      0.2612
    114  O         48.7430   -9.9280   23.7740 O.2   218  GLY218     -0.2717
    115  N         47.6150   -8.8500   22.1580 N.am  219  GLN219     -0.1965
    116  CA        46.8550  -10.0480   21.7770 C.3   219  GLN219      0.1733
    117  C         47.0100  -10.4150   20.3050 C.2   219  GLN219      0.2617
    118  O         46.8290   -9.5710   19.4210 O.2   219  GLN219     -0.2715
    119  CB        45.3740   -9.8780   22.1060 C.3   219  GLN219      0.0408
    120  CG        45.0750   -9.5210   23.5550 C.3   219  GLN219      0.0908
    121  CD        45.4730  -10.6010   24.5440 C.2   219  GLN219      0.2608
    122  OE1       45.4370  -11.7990   24.2460 O.2   219  GLN219     -0.2717
    123  NE2       45.8440  -10.1750   25.7430 N.am  219  GLN219     -0.0878
    124  N         47.3400  -11.6810   20.0590 N.am  220  SER220     -0.1936
    125  CA        47.4740  -12.2100   18.7020 C.3   220  SER220      0.2055
    126  C         46.1530  -12.7400   18.1520 C.2   220  SER220      0.2643
    127  O         46.0080  -12.9200   16.9380 O.2   220  SER220     -0.2714
    128  CB        48.5380  -13.2980   18.6510 C.3   220  SER220      0.2130
    129  OG        49.8180  -12.7120   18.6580 O.3   220  SER220     -0.2179
    130  N         45.2060  -13.0040   19.0490 N.am  221  GLY221     -0.1954
    131  CA        43.8440  -13.3360   18.6630 C.3   221  GLY221      0.1869
    132  C         43.1550  -12.1240   18.0620 C.2   221  GLY221      0.2309
    133  O         43.6620  -11.0000   18.1480 O.2   221  GLY221     -0.2863
@<TRIPOS>BOND
     1    72    71    2
     2    82    81    2
     3    71    70    1
     4   127   126    2
     5    69    70    1
     6    81    80    1
     7    80    79    1
     8    80    83    1
     9    70    73    1
    10   102   103    1
    11   132   133    2
    12   132   131    1
    13   126   125    1
    14   126   130   am
    15    83    84    1
    16   105   104    2
    17   128   129    1
    18   128   125    1
    19   131   130    1
    20   125   124    1
    21   104   103    1
    22   103   106    1
    23    73    74    1
    24   118   117    2
    25     4     3    2
    26    74    76   ar
    27    74    75   ar
    28    76    78   ar
    29   124   117   am
    30     3     2    1
    31    75    77   ar
    32   106   107    1
    33    78    77   ar
    34   117   116    1
    35   107   108    1
    36     9     7   ar
    37     9    11   ar
    38     7     6   ar
    39    93    91   ar
    40    12    11    1
    41    11    10   ar
    42     2     5    1
    43     2     1    1
    44    85    86    1
    45   110   108   am
    46   108   109    2
    47   116   119    1
    48   116   115    1
    49    87    86    1
    50    87    88    2
    51    89    90    1
    52    89    86    1
    53     6     5    1
    54     6     8   ar
    55    91    90    1
    56    91    92   ar
    57   119   120    1
    58   115   113   am
    59    10     8   ar
    60   111   112    1
    61   113   112    1
    62   113   114    2
    63    59    57   ar
    64    59    61   ar
    65    56    57   ar
    66    56    54   ar
    67   101    99    1
    68   120   121    1
    69    57    55   ar
    70    98    99    1
    71    98    95    1
    72    61    60   ar
    73    54    53   ar
    74    96    95    1
    75    96    97    2
    76   122   121    2
    77    94    95    1
    78    99   100    1
    79    55    53   ar
    80    55    58   ar
    81   121   123   am
    82    60    58   ar
    83    53    52    1
    84    49    52    1
    85    49    48    1
    86    49    50    1
    87    67    66    1
    88    50    51    2
    89    63    62    1
    90    63    66    1
    91    63    64    1
    92    30    28    1
    93    29    28    1
    94    66    68    1
    95    28    25    1
    96    64    65    2
    97    25    24    1
    98    25    26    1
    99    33    34    2
   100    33    32    1
   101    16    15    2
   102    20    19    2
   103    24    19   am
   104    26    31   am
   105    26    27    2
   106    19    18    1
   107    31    32    1
   108    15    14    1
   109    15    17   am
   110    14    13    1
   111    17    18    1
   112    18    21    1
   113    32    35    1
   114    35    36    1
   115    36    37    1
   116    37    38    1
   117    21    23    1
   118    21    22    1
   119    38    39    1
   120    47    45   am
   121    42    41    1
   122    42    43    2
   123    44    45    1
   124    44    41    1
   125    45    46    2
   126    41    40    1
