@<TRIPOS>MOLECULE
tmp/4cyzE00.pdb
 112 106 0 0 0
SMALL
GASTEIGER

@<TRIPOS>ATOM
      1  N         10.8320  -20.8260   -2.9510 N.3    88  TYR88      -0.1241
      2  CA        11.6650  -21.3630   -1.8940 C.3    88  TYR88       0.1605
      3  C         12.5690  -20.2330   -1.4060 C.2    88  TYR88       0.2264
      4  O         13.1390  -19.5080   -2.2230 O.2    88  TYR88      -0.2867
      5  CB        12.5050  -22.5190   -2.4160 C.3    88  TYR88       0.0534
      6  CG        13.0730  -23.3830   -1.3240 C.ar   88  TYR88      -0.0201
      7  CD1       14.2940  -23.0720   -0.7320 C.ar   88  TYR88      -0.0009
      8  CD2       12.3880  -24.5170   -0.8790 C.ar   88  TYR88      -0.0009
      9  CE1       14.8220  -23.8620    0.2710 C.ar   88  TYR88       0.0417
     10  CE2       12.9110  -25.3150    0.1250 C.ar   88  TYR88       0.0417
     11  CZ        14.1300  -24.9800    0.6960 C.ar   88  TYR88       0.1957
     12  OH        14.6630  -25.7580    1.6910 O.3    88  TYR88      -0.2866
     13  N         13.6070  -33.3170   -7.2430 N.3   125  GLY125     -0.1210
     14  CA        13.3040  -32.6970   -5.9540 C.3   125  GLY125      0.1956
     15  C         12.2990  -31.5640   -6.1170 C.2   125  GLY125      0.2613
     16  O         12.4570  -30.7060   -6.9950 O.2   125  GLY125     -0.2717
     17  N         11.2510  -31.5740   -5.2940 N.am  126  THR126     -0.1938
     18  CA        10.2260  -30.5270   -5.3400 C.3   126  THR126      0.2028
     19  C          9.9750  -29.9690   -3.9420 C.2   126  THR126      0.2643
     20  O         10.5420  -30.4540   -2.9600 O.2   126  THR126     -0.2714
     21  CB         8.8800  -31.0140   -5.9510 C.3   126  THR126      0.1808
     22  OG1        8.3280  -32.0640   -5.1530 O.3   126  THR126     -0.2208
     23  CG2        9.0450  -31.4960   -7.3880 C.3   126  THR126      0.0379
     24  N          9.1250  -28.9490   -3.8620 N.am  127  THR127     -0.1936
     25  CA         8.7920  -28.3160   -2.5880 C.3   127  THR127      0.2028
     26  C          7.3610  -27.7790   -2.5800 C.2   127  THR127      0.2642
     27  O          6.8100  -27.4320   -3.6270 O.2   127  THR127     -0.2714
     28  CB         9.7920  -27.1860   -2.2230 C.3   127  THR127      0.1808
     29  OG1        9.2670  -26.4050   -1.1420 O.3   127  THR127     -0.2208
     30  CG2       10.0510  -26.2700   -3.4120 C.3   127  THR127      0.0379
     31  N          6.7770  -27.7200   -1.3860 N.am  128  LYS128     -0.1977
     32  CA         5.4650  -27.1140   -1.1620 C.3   128  LYS128      0.1596
     33  C          5.4820  -25.5740   -1.3230 C.2   128  LYS128      0.2287
     34  O          4.4260  -24.9430   -1.4310 O.2   128  LYS128     -0.2864
     35  CB         4.9770  -27.4910    0.2400 C.3   128  LYS128      0.0298
     36  CG         3.5340  -27.1260    0.5570 C.3   128  LYS128      0.0038
     37  CD         3.3860  -26.6620    1.9980 C.3   128  LYS128      0.0206
     38  CE         3.7220  -27.7570    3.0020 C.3   128  LYS128      0.1093
     39  NZ         4.3410  -27.1750    4.2270 N.3   128  LYS128     -0.1314
     40  N          3.2790  -29.9480   -5.3060 N.3   136  ASN136     -0.1240
     41  CA         4.6760  -29.6540   -5.0200 C.3   136  ASN136      0.1653
     42  C          5.5010  -29.5990   -6.2940 C.2   136  ASN136      0.2266
     43  O          5.5590  -30.5660   -7.0470 O.2   136  ASN136     -0.2867
     44  CB         5.2620  -30.6920   -4.0600 C.3   136  ASN136      0.1155
     45  CG         4.7350  -30.5480   -2.6420 C.2   136  ASN136      0.2627
     46  OD1        3.7490  -29.8540   -2.3920 O.2   136  ASN136     -0.2716
     47  ND2        5.3940  -31.2150   -1.7030 N.am  136  ASN136     -0.0877
     48  N         16.6380  -29.7110   -8.5480 N.3   144  TRP144     -0.1241
     49  CA        17.1110  -30.0010   -7.1980 C.3   144  TRP144      0.1605
     50  C         17.5740  -31.4600   -7.1120 C.2   144  TRP144      0.2264
     51  O         16.7580  -32.3700   -6.9340 O.2   144  TRP144     -0.2867
     52  CB        15.9760  -29.7660   -6.1980 C.3   144  TRP144      0.0550
     53  CG        16.3830  -29.6830   -4.7450 C.ar  144  TRP144      0.0003
     54  CD1       17.5680  -30.0780   -4.1870 C.ar  144  TRP144      0.0946
     55  CD2       15.5770  -29.1980   -3.6650 C.ar  144  TRP144      0.0152
     56  NE1       17.5550  -29.8490   -2.8320 N.ar  144  TRP144     -0.2442
     57  CE2       16.3440  -29.3130   -2.4850 C.ar  144  TRP144      0.0810
     58  CE3       14.2780  -28.6710   -3.5820 C.ar  144  TRP144      0.0012
     59  CZ2       15.8590  -28.9180   -1.2320 C.ar  144  TRP144      0.0191
     60  CZ3       13.7940  -28.2780   -2.3360 C.ar  144  TRP144      0.0001
     61  CH2       14.5850  -28.4050   -1.1780 C.ar  144  TRP144      0.0015
     62  N         19.1990  -34.6110   -5.4160 N.3   146  VAL146     -0.1245
     63  CA        19.4300  -35.2260   -4.1120 C.3   146  VAL146      0.1561
     64  C         19.7790  -36.6990   -4.3110 C.2   146  VAL146      0.2260
     65  O         19.4850  -37.2710   -5.3650 O.2   146  VAL146     -0.2867
     66  CB        18.2060  -35.0980   -3.1680 C.3   146  VAL146      0.0252
     67  CG1       17.9630  -33.6430   -2.7800 C.3   146  VAL146      0.0019
     68  CG2       16.9560  -35.7100   -3.7890 C.3   146  VAL146      0.0019
     69  N         21.9710  -25.2480   -2.0470 N.3   176  HIS176     -0.1241
     70  CA        21.0150  -25.5200   -1.0000 C.3   176  HIS176      0.1621
     71  C         21.7010  -25.5910    0.3470 C.2   176  HIS176      0.2264
     72  O         22.6590  -26.3390    0.5370 O.2   176  HIS176     -0.2867
     73  CB        20.2040  -26.7950   -1.2630 C.3   176  HIS176      0.0745
     74  CG        19.2650  -27.1380   -0.1470 C.ar  176  HIS176      0.0817
     75  ND1       19.2970  -28.3490    0.5080 N.ar  176  HIS176     -0.2268
     76  CD2       18.2930  -26.4110    0.4540 C.ar  176  HIS176      0.1154
     77  CE1       18.3720  -28.3610    1.4510 C.ar  176  HIS176      0.1986
     78  NE2       17.7500  -27.1970    1.4390 N.ar  176  HIS176     -0.2212
     79  N         18.7490  -33.3760    8.0940 N.3   183  GLU183     -0.1245
     80  CA        18.2400  -33.0820    6.7560 C.3   183  GLU183      0.1567
     81  C         19.3680  -33.1460    5.7180 C.2   183  GLU183      0.2260
     82  O         19.1930  -33.7150    4.6320 O.2   183  GLU183     -0.2867
     83  CB        17.5640  -31.7080    6.7580 C.3   183  GLU183      0.0388
     84  CG        17.0120  -31.2260    5.4240 C.3   183  GLU183      0.1160
     85  CD        16.3890  -29.8420    5.5370 C.2   183  GLU183      0.3649
     86  OE1       15.3670  -29.7030    6.2400 O.co2 183  GLU183     -0.2457
     87  OE2       16.9260  -28.8840    4.9410 O.co2 183  GLU183     -0.2457
     88  N         19.5400  -35.9690    2.4420 N.3   187  LEU187     -0.1245
     89  CA        19.6000  -35.4390    1.0950 C.3   187  LEU187      0.1561
     90  C         20.9180  -35.7360    0.3830 C.2   187  LEU187      0.2260
     91  O         20.9170  -36.0580   -0.8040 O.2   187  LEU187     -0.2867
     92  CB        19.3250  -33.9360    1.1170 C.3   187  LEU187      0.0270
     93  CG        17.8740  -33.4530    1.0220 C.3   187  LEU187      0.0019
     94  CD1       16.9370  -34.1380    2.0090 C.3   187  LEU187      0.0001
     95  CD2       17.8350  -31.9440    1.1990 C.3   187  LEU187      0.0001
     96  N          7.0990  -21.8930    5.2150 N.3   218  GLY218     -0.1210
     97  CA         7.1340  -23.2410    5.7870 C.3   218  GLY218      0.1956
     98  C          8.4850  -23.9370    5.7390 C.2   218  GLY218      0.2611
     99  O          8.5990  -25.0820    6.1760 O.2   218  GLY218     -0.2717
    100  N          9.5080  -23.2560    5.2140 N.am  219  GLN219     -0.1979
    101  CA        10.8320  -23.8650    5.0400 C.3   219  GLN219      0.1601
    102  C         11.9250  -23.1480    5.8160 C.2   219  GLN219      0.2287
    103  O         12.0270  -21.9240    5.7690 O.2   219  GLN219     -0.2864
    104  CB        11.2230  -23.9320    3.5580 C.3   219  GLN219      0.0394
    105  CG        10.1990  -24.6000    2.6530 C.3   219  GLN219      0.0908
    106  CD         9.6890  -25.9150    3.2110 C.2   219  GLN219      0.2608
    107  OE1       10.4680  -26.7890    3.5920 O.2   219  GLN219     -0.2717
    108  NE2        8.3690  -26.0570    3.2660 N.am  219  GLN219     -0.0878
    109  N         15.1860  -24.4540    5.4620 N.3   221  GLY221     -0.1225
    110  CA        16.2480  -24.5470    4.4680 C.3   221  GLY221      0.1811
    111  C         16.2560  -23.3330    3.5570 C.2   221  GLY221      0.2280
    112  O         15.2600  -22.6110    3.4640 O.2   221  GLY221     -0.2866
@<TRIPOS>BOND
     1    48    49    1
     2    23    21    1
     3    13    14    1
     4    49    50    1
     5    49    52    1
     6    50    51    2
     7    43    42    2
     8    16    15    2
     9    42    41    1
    10    52    53    1
    11    15    14    1
    12    15    17   am
    13    21    18    1
    14    21    22    1
    15    62    63    1
    16    65    64    2
    17    18    17    1
    18    18    19    1
    19    40    41    1
    20    41    44    1
    21    53    54   ar
    22    53    55   ar
    23    64    63    1
    24    54    56   ar
    25    63    66    1
    26    44    45    1
    27    19    24   am
    28    19    20    2
    29    24    25    1
    30    68    66    1
    31    55    58   ar
    32    55    57   ar
    33    27    26    2
    34    58    60   ar
    35    30    28    1
    36    66    67    1
    37     1     2    1
    38    56    57   ar
    39    45    46    2
    40    45    47   am
    41    25    26    1
    42    25    28    1
    43    26    31   am
    44    57    59   ar
    45     5     2    1
    46     5     6    1
    47    60    61   ar
    48     4     3    2
    49    28    29    1
    50    69    70    1
    51     2     3    1
    52    34    33    2
    53    31    32    1
    54     6     8   ar
    55     6     7   ar
    56    33    32    1
    57    73    70    1
    58    73    74    1
    59    59    61   ar
    60    32    35    1
    61    70    71    1
    62     8    10   ar
    63    91    90    2
    64     7     9   ar
    65    74    76   ar
    66    74    75   ar
    67    10    11   ar
    68    35    36    1
    69     9    11   ar
    70    71    72    2
    71    90    89    1
    72    76    78   ar
    73    75    77   ar
    74    36    37    1
    75    11    12    1
    76    93    92    1
    77    93    95    1
    78    93    94    1
    79    89    92    1
    80    89    88    1
    81    78    77   ar
    82    37    38    1
    83   105   106    1
    84   105   104    1
    85    38    39    1
    86   106   108   am
    87   106   107    2
    88   112   111    2
    89   111   110    1
    90   104   101    1
    91   110   109    1
    92    82    81    2
    93    87    85   ar
    94   101   100    1
    95   101   102    1
    96   100    98   am
    97    96    97    1
    98    84    85    1
    99    84    83    1
   100    85    86   ar
   101    81    80    1
   102    98    97    1
   103    98    99    2
   104   103   102    2
   105    80    83    1
   106    80    79    1
