@<TRIPOS>MOLECULE
tmp/4cz0A02.pdb
 136 128 0 0 0
SMALL
GASTEIGER

@<TRIPOS>ATOM
      1  N         11.6650   22.3970   28.0980 N.3    88  TYR88      -0.1241
      2  CA        11.0810   23.7310   28.1160 C.3    88  TYR88       0.1605
      3  C          9.6230   23.6420   27.6700 C.2    88  TYR88       0.2264
      4  O          9.3350   23.0190   26.6430 O.2    88  TYR88      -0.2867
      5  CB        11.8740   24.6570   27.1880 C.3    88  TYR88       0.0534
      6  CG        11.4860   26.1170   27.2590 C.ar   88  TYR88      -0.0201
      7  CD1       11.8900   26.9160   28.3290 C.ar   88  TYR88      -0.0009
      8  CD2       10.7300   26.7060   26.2470 C.ar   88  TYR88      -0.0009
      9  CE1       11.5420   28.2560   28.3930 C.ar   88  TYR88       0.0417
     10  CE2       10.3790   28.0460   26.3020 C.ar   88  TYR88       0.0417
     11  CZ        10.7860   28.8160   27.3770 C.ar   88  TYR88       0.1957
     12  OH        10.4380   30.1460   27.4370 O.3    88  TYR88      -0.2866
     13  N         22.0780   35.3600   16.6750 N.3   122  ASN122     -0.1240
     14  CA        22.6950   34.5760   17.7430 C.3   122  ASN122      0.1653
     15  C         22.0990   33.1700   17.7780 C.2   122  ASN122      0.2266
     16  O         21.0470   32.9410   18.3830 O.2   122  ASN122     -0.2867
     17  CB        22.5340   35.2750   19.1000 C.3   122  ASN122      0.1155
     18  CG        23.1010   34.4620   20.2520 C.2   122  ASN122      0.2627
     19  OD1       24.2100   33.9340   20.1720 O.2   122  ASN122     -0.2716
     20  ND2       22.3390   34.3620   21.3350 N.am  122  ASN122     -0.0877
     21  N         21.1430   30.1060   21.3780 N.3   125  GLY125     -0.1210
     22  CA        20.0990   30.3310   22.3740 C.3   125  GLY125      0.1956
     23  C         19.9980   29.1700   23.3420 C.2   125  GLY125      0.2613
     24  O         19.9430   28.0130   22.9260 O.2   125  GLY125     -0.2717
     25  N         19.9770   29.4820   24.6360 N.am  126  THR126     -0.1938
     26  CA        19.9240   28.4630   25.6880 C.3   126  THR126      0.2028
     27  C         18.8660   28.7780   26.7470 C.2   126  THR126      0.2643
     28  O         18.3230   29.8820   26.7830 O.2   126  THR126     -0.2714
     29  CB        21.2910   28.2950   26.3860 C.3   126  THR126      0.1808
     30  OG1       21.7750   29.5760   26.8070 O.3   126  THR126     -0.2208
     31  CG2       22.3090   27.6460   25.4520 C.3   126  THR126      0.0379
     32  N         18.5840   27.8000   27.6040 N.am  127  THR127     -0.1936
     33  CA        17.6100   27.9540   28.6870 C.3   127  THR127      0.2028
     34  C         18.0090   27.1560   29.9340 C.2   127  THR127      0.2642
     35  O         18.7400   26.1690   29.8380 O.2   127  THR127     -0.2714
     36  CB        16.1780   27.5690   28.2320 C.3   127  THR127      0.1808
     37  OG1       15.2590   27.7410   29.3180 O.3   127  THR127     -0.2208
     38  CG2       16.1160   26.1190   27.7390 C.3   127  THR127      0.0379
     39  N         17.5240   27.5900   31.0960 N.am  128  LYS128     -0.1977
     40  CA        17.7780   26.8980   32.3630 C.3   128  LYS128      0.1596
     41  C         16.9240   25.6310   32.5030 C.2   128  LYS128      0.2287
     42  O         17.1910   24.7820   33.3570 O.2   128  LYS128     -0.2864
     43  CB        17.5610   27.8520   33.5470 C.3   128  LYS128      0.0298
     44  CG        18.0360   27.3220   34.8950 C.3   128  LYS128      0.0038
     45  CD        18.4860   28.4380   35.8290 C.3   128  LYS128      0.0206
     46  CE        19.9520   28.7950   35.6150 C.3   128  LYS128      0.1093
     47  NZ        20.4130   29.8830   36.5210 N.3   128  LYS128     -0.1314
     48  N         23.4700   25.6120   31.6420 N.3   136  ASN136     -0.1240
     49  CA        22.3420   25.7630   30.7210 C.3   136  ASN136      0.1653
     50  C         22.6740   25.3470   29.2900 C.2   136  ASN136      0.2266
     51  O         23.8070   25.5150   28.8330 O.2   136  ASN136     -0.2867
     52  CB        21.8200   27.2030   30.7450 C.3   136  ASN136      0.1155
     53  CG        21.3310   27.6320   32.1190 C.2   136  ASN136      0.2627
     54  OD1       21.4930   26.9160   33.1090 O.2   136  ASN136     -0.2716
     55  ND2       20.7290   28.8130   32.1840 N.am  136  ASN136     -0.0877
     56  N         17.9730   27.6640   18.7870 N.3   144  TRP144     -0.1241
     57  CA        17.1790   28.8610   19.0640 C.3   144  TRP144      0.1605
     58  C         17.8240   30.0630   18.3840 C.2   144  TRP144      0.2264
     59  O         18.9830   30.3890   18.6520 O.2   144  TRP144     -0.2867
     60  CB        17.0710   29.1110   20.5740 C.3   144  TRP144      0.0550
     61  CG        15.9590   30.0580   20.9850 C.ar  144  TRP144      0.0003
     62  CD1       15.4490   31.1000   20.2580 C.ar  144  TRP144      0.0946
     63  CD2       15.2450   30.0580   22.2310 C.ar  144  TRP144      0.0152
     64  NE1       14.4560   31.7320   20.9640 N.ar  144  TRP144     -0.2442
     65  CE2       14.3110   31.1160   22.1790 C.ar  144  TRP144      0.0810
     66  CE3       15.3010   29.2620   23.3830 C.ar  144  TRP144      0.0012
     67  CZ2       13.4400   31.4000   23.2350 C.ar  144  TRP144      0.0191
     68  CZ3       14.4320   29.5460   24.4340 C.ar  144  TRP144      0.0001
     69  CH2       13.5150   30.6060   24.3490 C.ar  144  TRP144      0.0015
     70  N         17.8080   34.0090   17.9150 N.3   146  VAL146     -0.1245
     71  CA        17.4090   35.3290   18.4080 C.3   146  VAL146      0.1561
     72  C         18.2520   36.4220   17.7510 C.2   146  VAL146      0.2260
     73  O         19.2150   36.1310   17.0340 O.2   146  VAL146     -0.2867
     74  CB        17.5190   35.4420   19.9510 C.3   146  VAL146      0.0252
     75  CG1       16.4370   34.6200   20.6370 C.3   146  VAL146      0.0019
     76  CG2       18.9060   35.0390   20.4420 C.3   146  VAL146      0.0019
     77  N         19.8640   43.3560   21.7480 N.3   150  LYS150     -0.1245
     78  CA        18.5170   43.7190   22.1990 C.3   150  LYS150      0.1561
     79  C         17.8640   44.7830   21.3180 C.2   150  LYS150      0.2260
     80  O         18.5080   45.7600   20.9250 O.2   150  LYS150     -0.2867
     81  CB        18.5450   44.2120   23.6490 C.3   150  LYS150      0.0271
     82  CG        18.5550   43.1140   24.6990 C.3   150  LYS150      0.0035
     83  CD        18.3340   43.6980   26.0860 C.3   150  LYS150      0.0206
     84  CE        18.2810   42.6130   27.1490 C.3   150  LYS150      0.1093
     85  NZ        18.0540   43.1810   28.5070 N.3   150  LYS150     -0.1314
     86  N          8.5200   29.5890   18.9060 N.3   176  HIS176     -0.1241
     87  CA         8.5370   30.1500   20.2530 C.3   176  HIS176      0.1621
     88  C          7.3770   31.1100   20.4950 C.2   176  HIS176      0.2264
     89  O          7.0760   31.9690   19.6620 O.2   176  HIS176     -0.2867
     90  CB         9.8680   30.8380   20.5590 C.3   176  HIS176      0.0745
     91  CG         9.9330   31.4270   21.9350 C.ar  176  HIS176      0.0817
     92  ND1       10.0530   32.7810   22.1610 N.ar  176  HIS176     -0.2268
     93  CD2        9.8680   30.8460   23.1560 C.ar  176  HIS176      0.1154
     94  CE1       10.0740   33.0070   23.4620 C.ar  176  HIS176      0.1986
     95  NE2        9.9620   31.8500   24.0890 N.ar  176  HIS176     -0.2212
     96  N          6.3910   33.9030   23.1260 N.3   178  PRO178     -0.2116
     97  CA         6.8540   34.7870   24.2060 C.3   178  PRO178      0.1372
     98  C          5.8160   35.0060   25.3090 C.2   178  PRO178      0.2244
     99  O          4.6220   34.7830   25.0920 O.2   178  PRO178     -0.2868
    100  CB         7.1450   36.1060   23.4810 C.3   178  PRO178      0.0268
    101  CG         7.3910   35.7130   22.0650 C.3   178  PRO178      0.0207
    102  CD         6.4470   34.5760   21.8160 C.3   178  PRO178      0.0892
    103  N          8.8960   41.4850   26.5960 N.3   183  GLU183     -0.1245
    104  CA         9.8880   40.4260   26.4110 C.3   183  GLU183      0.1567
    105  C         10.0500   40.0610   24.9340 C.2   183  GLU183      0.2260
    106  O         11.1570   39.7550   24.4840 O.2   183  GLU183     -0.2867
    107  CB         9.5020   39.1910   27.2320 C.3   183  GLU183      0.0388
    108  CG        10.5420   38.0800   27.2500 C.3   183  GLU183      0.1160
    109  CD        10.1890   36.9700   28.2190 C.2   183  GLU183      0.3649
    110  OE1       10.2880   37.1930   29.4450 O.co2 183  GLU183     -0.2457
    111  OE2        9.8010   35.8770   27.7560 O.co2 183  GLU183     -0.2457
    112  N         13.7540   39.7990   22.2430 N.3   187  LEU187     -0.1245
    113  CA        14.2530   38.6110   21.5500 C.3   187  LEU187      0.1561
    114  C         14.3900   38.7780   20.0360 C.2   187  LEU187      0.2260
    115  O         15.4370   38.4620   19.4680 O.2   187  LEU187     -0.2867
    116  CB        13.3770   37.3910   21.8740 C.3   187  LEU187      0.0270
    117  CG        13.6900   36.5350   23.1080 C.3   187  LEU187      0.0019
    118  CD1       13.3600   37.2470   24.4120 C.3   187  LEU187      0.0001
    119  CD2       12.9360   35.2170   23.0250 C.3   187  LEU187      0.0001
    120  N          9.6100   26.9230   35.8440 N.3   218  GLY218     -0.1210
    121  CA        10.1840   28.2300   36.1460 C.3   218  GLY218      0.1956
    122  C         10.1510   29.1730   34.9580 C.2   218  GLY218      0.2611
    123  O         10.9560   30.1020   34.8740 O.2   218  GLY218     -0.2717
    124  N          9.2130   28.9370   34.0430 N.am  219  GLN219     -0.1979
    125  CA         9.0810   29.7390   32.8260 C.3   219  GLN219      0.1601
    126  C          7.6270   29.9540   32.4020 C.2   219  GLN219      0.2287
    127  O          6.7720   29.0920   32.6120 O.2   219  GLN219     -0.2864
    128  CB         9.8640   29.0960   31.6770 C.3   219  GLN219      0.0394
    129  CG        11.3280   29.4980   31.6140 C.3   219  GLN219      0.0908
    130  CD        11.5320   30.9210   31.1230 C.2   219  GLN219      0.2608
    131  OE1       10.6970   31.4790   30.4060 O.2   219  GLN219     -0.2717
    132  NE2       12.6540   31.5140   31.5050 N.am  219  GLN219     -0.0878
    133  N          7.0900   31.5130   29.0740 N.3   221  GLY221     -0.1225
    134  CA         7.2010   31.3330   27.6250 C.3   221  GLY221      0.1811
    135  C          7.2170   29.8660   27.2450 C.2   221  GLY221      0.2280
    136  O          7.6400   29.0210   28.0360 O.2   221  GLY221     -0.2866
@<TRIPOS>BOND
     1    13    14    1
     2    73    72    2
     3    14    15    1
     4    14    17    1
     5    72    71    1
     6    15    16    2
     7    70    71    1
     8    58    59    2
     9    58    57    1
    10    71    74    1
    11    56    57    1
    12    86    87    1
    13    57    60    1
    14    17    18    1
    15   115   114    2
    16    89    88    2
    17    74    76    1
    18    74    75    1
    19   114   113    1
    20    19    18    2
    21    18    20   am
    22    87    88    1
    23    87    90    1
    24    62    64   ar
    25    62    61   ar
    26    90    91    1
    27    60    61    1
    28    80    79    2
    29    64    65   ar
    30    61    63   ar
    31    79    78    1
    32    21    22    1
    33   113   116    1
    34   113   112    1
    35    77    78    1
    36   102   101    1
    37   102    96    1
    38   116   117    1
    39    91    92   ar
    40    91    93   ar
    41   101   100    1
    42    92    94   ar
    43    65    63   ar
    44    65    67   ar
    45    78    81    1
    46    63    66   ar
    47    22    23    1
    48    24    23    2
    49   119   117    1
    50   117   118    1
    51    96    97    1
    52    93    95   ar
    53    67    69   ar
    54    23    25   am
    55    66    68   ar
    56    94    95   ar
    57   100    97    1
    58    81    82    1
    59    97    98    1
    60    69    68   ar
    61   106   105    2
    62    25    26    1
    63    82    83    1
    64   105   104    1
    65    99    98    2
    66    31    29    1
    67    26    29    1
    68    26    27    1
    69    83    84    1
    70     8    10   ar
    71     8     6   ar
    72    10    11   ar
    73    29    30    1
    74   104   103    1
    75   104   107    1
    76     4     3    2
    77    27    28    2
    78    27    32   am
    79    84    85    1
    80     5     6    1
    81     5     2    1
    82   107   108    1
    83   135   134    1
    84   135   136    2
    85   108   109    1
    86     6     7   ar
    87    11    12    1
    88    11     9   ar
    89    32    33    1
    90   134   133    1
    91     3     2    1
    92    38    36    1
    93   111   109   ar
    94     1     2    1
    95   109   110   ar
    96    36    33    1
    97    36    37    1
    98     7     9   ar
    99    33    34    1
   100    51    50    2
   101    50    49    1
   102    35    34    2
   103    34    39   am
   104   131   130    2
   105    49    52    1
   106    49    48    1
   107    52    53    1
   108    39    40    1
   109   130   132   am
   110   130   129    1
   111   129   128    1
   112   128   125    1
   113    53    55   am
   114    53    54    2
   115    40    41    1
   116    40    43    1
   117   126   127    2
   118   126   125    1
   119    41    42    2
   120   125   124    1
   121    43    44    1
   122   124   122   am
   123   123   122    2
   124    44    45    1
   125   122   121    1
   126    46    45    1
   127    46    47    1
   128   120   121    1
