@<TRIPOS>MOLECULE
tmp/4cz1A00.pdb
 115 110 0 0 0
SMALL
GASTEIGER

@<TRIPOS>ATOM
      1  N         18.4710   -4.3680    5.0060 N.3    18  TRP18      -0.1241
      2  CA        17.1060   -3.8890    4.7190 C.3    18  TRP18       0.1605
      3  C         16.8460   -4.1140    3.2330 C.2    18  TRP18       0.2264
      4  O         17.7580   -3.9200    2.4240 O.2    18  TRP18      -0.2867
      5  CB        16.9820   -2.3720    4.9970 C.3    18  TRP18       0.0550
      6  CG        16.6760   -2.0890    6.4620 C.ar   18  TRP18       0.0003
      7  CD1       17.5730   -2.0150    7.4800 C.ar   18  TRP18       0.0946
      8  CD2       15.3880   -1.8850    7.0270 C.ar   18  TRP18       0.0152
      9  NE1       16.9080   -1.7630    8.6600 N.ar   18  TRP18      -0.2442
     10  CE2       15.5580   -1.6840    8.3930 C.ar   18  TRP18       0.0810
     11  CE3       14.1040   -1.8590    6.4920 C.ar   18  TRP18       0.0012
     12  CZ2       14.4910   -1.5020    9.2520 C.ar   18  TRP18       0.0191
     13  CZ3       13.0350   -1.6140    7.3390 C.ar   18  TRP18       0.0001
     14  CH2       13.2360   -1.4530    8.6940 C.ar   18  TRP18       0.0015
     15  N         18.3570   -2.2760    0.0640 N.3    21  ASP21      -0.1239
     16  CA        19.4440   -1.4110    0.6050 C.3    21  ASP21       0.1674
     17  C         20.7700   -1.9640    0.0830 C.2    21  ASP21       0.2266
     18  O         20.8230   -3.1040   -0.3450 O.2    21  ASP21      -0.2867
     19  CB        19.3940   -1.4740    2.1450 C.3    21  ASP21       0.1410
     20  CG        20.1040   -0.2900    2.8200 C.2    21  ASP21       0.3668
     21  OD1       20.7050    0.5240    2.1110 O.co2  21  ASP21      -0.2456
     22  OD2       20.0720   -0.2030    4.0630 O.co2  21  ASP21      -0.2456
     23  N         23.1000    1.0000    7.9970 N.3    48  HIS48      -0.1241
     24  CA        22.2380    0.3000    8.9050 C.3    48  HIS48       0.1621
     25  C         22.3760   -1.2140    8.7600 C.2    48  HIS48       0.2264
     26  O         21.3760   -1.9540    8.6930 O.2    48  HIS48      -0.2867
     27  CB        20.7780    0.8100    8.7650 C.3    48  HIS48       0.0745
     28  CG        20.6440    2.3010    8.9650 C.ar   48  HIS48       0.0817
     29  ND1       20.3130    2.8760   10.1820 N.ar   48  HIS48      -0.2268
     30  CD2       20.9030    3.3430    8.1400 C.ar   48  HIS48       0.1154
     31  CE1       20.3100    4.1920   10.0840 C.ar   48  HIS48       0.1986
     32  NE2       20.6820    4.4990    8.8650 N.ar   48  HIS48      -0.2212
     33  N         21.7210    4.6530   15.2170 N.3    54  ASP54      -0.1239
     34  CA        21.0830    5.7240   14.4390 C.3    54  ASP54       0.1674
     35  C         21.4000    7.0990   14.9370 C.2    54  ASP54       0.2266
     36  O         21.4770    7.3340   16.1200 O.2    54  ASP54      -0.2867
     37  CB        19.5430    5.6260   14.5610 C.3    54  ASP54       0.1410
     38  CG        19.0100    4.3200   14.0630 C.2    54  ASP54       0.3668
     39  OD1       19.7900    3.5280   13.4720 O.co2  54  ASP54      -0.2456
     40  OD2       17.8150    4.0830   14.1860 O.co2  54  ASP54      -0.2456
     41  N         18.8790   10.4340   10.3590 N.3    58  HIS58      -0.1241
     42  CA        18.3320    9.2650    9.6590 C.3    58  HIS58       0.1621
     43  C         16.8320    9.4410    9.4250 C.2    58  HIS58       0.2264
     44  O         16.3520    9.0810    8.3710 O.2    58  HIS58      -0.2867
     45  CB        18.5990    8.0450   10.4970 C.3    58  HIS58       0.0745
     46  CG        17.9150    6.8020   10.0400 C.ar   58  HIS58       0.0817
     47  ND1       17.9760    6.3660    8.7360 N.ar   58  HIS58      -0.2268
     48  CD2       17.2510    5.8480   10.7230 C.ar   58  HIS58       0.1154
     49  CE1       17.3390    5.2160    8.6320 C.ar   58  HIS58       0.1986
     50  NE2       16.9040    4.8730    9.8230 N.ar   58  HIS58      -0.2212
     51  N         16.5020   -5.2360   14.1410 N.3   146  PRO146     -0.2102
     52  CA        16.9800   -4.1600   13.2730 C.3   146  PRO146      0.1504
     53  C         16.3460   -2.8000   13.4470 C.2   146  PRO146      0.2576
     54  O         16.8460   -1.7850   12.9200 O.2   146  PRO146     -0.2718
     55  CB        16.6410   -4.6560   11.8920 C.3   146  PRO146      0.0282
     56  CG        16.4100   -6.1120   12.0100 C.3   146  PRO146      0.0208
     57  CD        15.9570   -6.3640   13.3860 C.3   146  PRO146      0.0893
     58  N         15.2370   -2.7470   14.1690 N.am  147  SER147     -0.1953
     59  CA        14.5220   -1.4730   14.3140 C.3   147  SER147      0.1924
     60  C         13.7590   -1.3690   15.6290 C.2   147  SER147      0.2314
     61  O         13.4550   -2.3930   16.2420 O.2   147  SER147     -0.2863
     62  CB        13.5600   -1.2700   13.1630 C.3   147  SER147      0.2116
     63  OG        13.0660    0.0790   13.1860 O.3   147  SER147     -0.2180
     64  N          8.6300   -2.9920   10.8890 N.3   151  LEU151     -0.1245
     65  CA         9.4010   -3.0580    9.6300 C.3   151  LEU151      0.1561
     66  C          8.8450   -2.2330    8.4460 C.2   151  LEU151      0.2260
     67  O          9.6080   -1.8050    7.5850 O.2   151  LEU151     -0.2867
     68  CB         9.5740   -4.5290    9.2070 C.3   151  LEU151      0.0270
     69  CG        10.3670   -5.4450   10.1490 C.3   151  LEU151      0.0019
     70  CD1       10.4840   -6.8220    9.5300 C.3   151  LEU151      0.0001
     71  CD2       11.7680   -4.8990   10.4610 C.3   151  LEU151      0.0001
     72  N          6.4800    0.5140    8.9320 N.3   153  ASP153     -0.1225
     73  CA         5.9890    1.7730    9.4180 C.3   153  ASP153      0.1805
     74  C          6.8100    2.8780    8.8010 C.2   153  ASP153      0.2597
     75  O          8.0400    2.8520    8.8660 O.2   153  ASP153     -0.2718
     76  CB         6.0790    1.8000   10.9650 C.3   153  ASP153      0.1424
     77  CG         5.8570    3.1830   11.5720 C.2   153  ASP153      0.3668
     78  OD1        5.2170    4.0410   10.9530 O.co2 153  ASP153     -0.2456
     79  OD2        6.3150    3.4260   12.7020 O.co2 153  ASP153     -0.2456
     80  N          6.1130    3.8830    8.2710 N.am  154  LYS154     -0.1979
     81  CA         6.7310    5.0960    7.7410 C.3   154  LYS154      0.1596
     82  C          6.6820    6.2780    8.6480 C.2   154  LYS154      0.2287
     83  O          7.3320    7.2640    8.3620 O.2   154  LYS154     -0.2864
     84  CB         6.0470    5.5080    6.4460 C.3   154  LYS154      0.0298
     85  CG         5.9330    4.3940    5.4320 C.3   154  LYS154      0.0038
     86  CD         7.2900    3.8280    5.0200 C.3   154  LYS154      0.0206
     87  CE         7.1130    2.5580    4.1840 C.3   154  LYS154      0.1093
     88  NZ         8.1570    2.4000    3.1230 N.3   154  LYS154     -0.1314
     89  N          7.5210    6.2120   11.8740 N.3   156  LEU156     -0.1245
     90  CA         8.6420    6.0000   12.8050 C.3   156  LEU156      0.1561
     91  C          8.4460    6.7130   14.1210 C.2   156  LEU156      0.2260
     92  O          9.2690    7.5070   14.5490 O.2   156  LEU156     -0.2867
     93  CB        10.0060    6.3880   12.1880 C.3   156  LEU156      0.0270
     94  CG        10.4810    5.5690   10.9750 C.3   156  LEU156      0.0019
     95  CD1       11.9260    5.9640   10.6130 C.3   156  LEU156      0.0001
     96  CD2       10.4070    4.0580   11.2040 C.3   156  LEU156      0.0001
     97  N         11.2650    6.0210   16.8910 N.3   159  HIS159     -0.1241
     98  CA        12.4750    6.7790   16.6010 C.3   159  HIS159      0.1621
     99  C         12.3090    8.2300   17.0320 C.2   159  HIS159      0.2264
    100  O         13.1480    8.7930   17.7360 O.2   159  HIS159     -0.2867
    101  CB        12.8540    6.7350   15.0820 C.3   159  HIS159      0.0745
    102  CG        13.5000    5.4590   14.6390 C.ar  159  HIS159      0.0817
    103  ND1       12.7980    4.2860   14.4110 N.ar  159  HIS159     -0.2268
    104  CD2       14.8070    5.1680   14.3680 C.ar  159  HIS159      0.1154
    105  CE1       13.6340    3.3390   14.0140 C.ar  159  HIS159      0.1986
    106  NE2       14.8560    3.8480   13.9940 N.ar  159  HIS159     -0.2212
    107  N         20.8080   -0.7190   17.5900 N.3   171  GLU171     -0.1245
    108  CA        20.0580   -1.8080   16.9910 C.3   171  GLU171      0.1567
    109  C         20.9980   -2.9700   16.6050 C.2   171  GLU171      0.2260
    110  O         22.1340   -2.7730   16.3280 O.2   171  GLU171     -0.2867
    111  CB        19.3050   -1.3210   15.7660 C.3   171  GLU171      0.0388
    112  CG        18.2690   -0.2540   16.1050 C.3   171  GLU171      0.1160
    113  CD        17.7240    0.5130   14.9570 C.2   171  GLU171      0.3649
    114  OE1       18.4290    0.6620   13.9220 O.co2 171  GLU171     -0.2457
    115  OE2       16.5430    1.0350   15.0890 O.co2 171  GLU171     -0.2457
@<TRIPOS>BOND
     1    18    17    2
     2    15    16    1
     3    17    16    1
     4    16    19    1
     5    21    20   ar
     6    19    20    1
     7     4     3    2
     8    20    22   ar
     9    88    87    1
    10     3     2    1
    11    87    86    1
    12     2     5    1
    13     2     1    1
    14     5     6    1
    15    86    85    1
    16    85    84    1
    17    84    81    1
    18     6     8   ar
    19     6     7   ar
    20    11     8   ar
    21    11    13   ar
    22     8    10   ar
    23    13    14   ar
    24     7     9   ar
    25    67    66    2
    26    81    80    1
    27    81    82    1
    28    23    24    1
    29    30    32   ar
    30    30    28   ar
    31    80    74   am
    32    83    82    2
    33    44    43    2
    34    10     9   ar
    35    10    12   ar
    36    66    65    1
    37    49    47   ar
    38    49    50   ar
    39    26    25    2
    40    14    12   ar
    41    47    46   ar
    42    25    24    1
    43    27    24    1
    44    27    28    1
    45    74    75    2
    46    74    73    1
    47    32    31   ar
    48    72    73    1
    49    28    29   ar
    50    68    65    1
    51    68    69    1
    52    73    76    1
    53    43    42    1
    54    70    69    1
    55    65    64    1
    56    42    41    1
    57    42    45    1
    58    50    48   ar
    59    46    45    1
    60    46    48   ar
    61    31    29   ar
    62    69    71    1
    63    95    94    1
    64    78    77   ar
    65    76    77    1
    66    94    96    1
    67    94    93    1
    68    77    79   ar
    69    89    90    1
    70    55    56    1
    71    55    52    1
    72    56    57    1
    73    93    90    1
    74    90    91    1
    75    54    53    2
    76    62    63    1
    77    62    59    1
    78    52    53    1
    79    52    51    1
    80    57    51    1
    81    53    58   am
    82    39    38   ar
    83   114   113   ar
    84   106   105   ar
    85   106   104   ar
    86   105   103   ar
    87    38    40   ar
    88    38    37    1
    89    91    92    2
    90    58    59    1
    91    59    60    1
    92   104   102   ar
    93   103   102   ar
    94    34    37    1
    95    34    35    1
    96    34    33    1
    97   102   101    1
    98    35    36    2
    99   113   115   ar
   100   113   112    1
   101   101    98    1
   102    60    61    2
   103   111   112    1
   104   111   108    1
   105   110   109    2
   106    98    97    1
   107    98    99    1
   108   109   108    1
   109   108   107    1
   110    99   100    2
