@<TRIPOS>MOLECULE
tmp/4cz8B00.pdb
 120 115 0 0 0
SMALL
GASTEIGER

@<TRIPOS>ATOM
      1  N         15.8460   -0.9520  -27.0510 N.3     5  LEU5       -0.1231
      2  CA        14.5740   -0.5160  -27.6250 C.3     5  LEU5        0.1693
      3  C         13.3880   -0.8430  -26.7160 C.2     5  LEU5        0.2591
      4  O         12.4700   -0.0350  -26.5690 O.2     5  LEU5       -0.2718
      5  CB        14.3650   -1.1290  -29.0110 C.3     5  LEU5        0.0284
      6  CG        13.0380   -0.8020  -29.6970 C.3     5  LEU5        0.0019
      7  CD1       12.8610    0.7010  -29.8350 C.3     5  LEU5        0.0001
      8  CD2       12.9440   -1.4800  -31.0560 C.3     5  LEU5        0.0001
      9  N         13.4190   -2.0240  -26.1070 N.am    6  ALA6       -0.1980
     10  CA        12.3630   -2.4440  -25.1930 C.3     6  ALA6        0.1597
     11  C         12.2700   -1.5010  -23.9970 C.2     6  ALA6        0.2287
     12  O         11.1940   -0.9920  -23.6750 O.2     6  ALA6       -0.2864
     13  CB        12.6030   -3.8670  -24.7300 C.3     6  ALA6        0.0319
     14  N         10.8050    1.9260  -25.2120 N.3     9  LEU9       -0.1231
     15  CA         9.3500    1.8890  -25.3110 C.3     9  LEU9        0.1693
     16  C          8.7200    1.9130  -23.9260 C.2     9  LEU9        0.2592
     17  O          7.8010    2.6920  -23.6560 O.2     9  LEU9       -0.2718
     18  CB         8.9010    0.6300  -26.0540 C.3     9  LEU9        0.0284
     19  CG         9.2660    0.5050  -27.5330 C.3     9  LEU9        0.0019
     20  CD1        8.8560   -0.8560  -28.0650 C.3     9  LEU9        0.0001
     21  CD2        8.6010    1.6060  -28.3300 C.3     9  LEU9        0.0001
     22  N          9.2280    1.0550  -23.0480 N.am   10  PHE10      -0.1976
     23  CA         8.7400    1.0060  -21.6810 C.3    10  PHE10       0.1639
     24  C          8.9660    2.3240  -20.9570 C.2    10  PHE10       0.2290
     25  O          8.1540    2.7210  -20.1290 O.2    10  PHE10      -0.2864
     26  CB         9.4170   -0.1100  -20.8970 C.3    10  PHE10       0.0560
     27  CG         9.2800    0.0440  -19.4150 C.ar   10  PHE10      -0.0200
     28  CD1        8.0940   -0.2850  -18.7820 C.ar   10  PHE10      -0.0042
     29  CD2       10.3270    0.5420  -18.6550 C.ar   10  PHE10      -0.0042
     30  CE1        7.9600   -0.1310  -17.4190 C.ar   10  PHE10      -0.0003
     31  CE2       10.1970    0.6990  -17.2920 C.ar   10  PHE10      -0.0003
     32  CZ         9.0120    0.3650  -16.6760 C.ar   10  PHE10      -0.0000
     33  N          6.2550    4.5230  -21.9520 N.3    13  LEU13      -0.1245
     34  CA         5.0220    4.1150  -21.2800 C.3    13  LEU13       0.1561
     35  C          4.9590    4.5760  -19.8220 C.2    13  LEU13       0.2260
     36  O          4.0020    5.2260  -19.4160 O.2    13  LEU13      -0.2867
     37  CB         4.8300    2.5990  -21.3620 C.3    13  LEU13       0.0270
     38  CG         3.5800    2.0870  -20.6450 C.3    13  LEU13       0.0019
     39  CD1        2.3380    2.7130  -21.2510 C.3    13  LEU13       0.0001
     40  CD2        3.4930    0.5680  -20.6840 C.3    13  LEU13       0.0001
     41  N          5.1860    3.4080  -36.3830 N.3    58  PHE58      -0.1227
     42  CA         4.1980    2.3780  -36.0210 C.3    58  PHE58       0.1736
     43  C          2.9700    2.9570  -35.2940 C.2    58  PHE58       0.2595
     44  O          1.8000    2.7100  -35.6710 O.2    58  PHE58      -0.2718
     45  CB         4.8510    1.2910  -35.1610 C.3    58  PHE58       0.0547
     46  CG         3.9040    0.2050  -34.7280 C.ar   58  PHE58      -0.0202
     47  CD1        3.6300   -0.8670  -35.5630 C.ar   58  PHE58      -0.0042
     48  CD2        3.2960    0.2500  -33.4820 C.ar   58  PHE58      -0.0042
     49  CE1        2.7610   -1.8710  -35.1670 C.ar   58  PHE58      -0.0003
     50  CE2        2.4250   -0.7500  -33.0810 C.ar   58  PHE58      -0.0003
     51  CZ         2.1590   -1.8110  -33.9240 C.ar   58  PHE58      -0.0000
     52  N          3.2550    3.7230  -34.2440 N.am   59  VAL59      -0.1980
     53  CA         2.2280    4.3210  -33.3960 C.3    59  VAL59       0.1595
     54  C          1.2880    5.2360  -34.1870 C.2    59  VAL59       0.2287
     55  O          0.1340    5.4230  -33.8110 O.2    59  VAL59      -0.2864
     56  CB         2.8680    5.0780  -32.2020 C.3    59  VAL59       0.0276
     57  CG1        1.8110    5.7330  -31.3280 C.3    59  VAL59       0.0022
     58  CG2        3.7100    4.1260  -31.3690 C.3    59  VAL59       0.0022
     59  N         -1.2220    2.6110  -36.0780 N.3    62  PHE62      -0.1241
     60  CA        -1.9400    1.8420  -35.0580 C.3    62  PHE62       0.1605
     61  C         -2.7840    2.7380  -34.1480 C.2    62  PHE62       0.2264
     62  O         -4.0190    2.6170  -34.0920 O.2    62  PHE62      -0.2867
     63  CB        -0.9730    1.0040  -34.2240 C.3    62  PHE62       0.0534
     64  CG        -1.6540    0.1130  -33.2230 C.ar   62  PHE62      -0.0203
     65  CD1       -2.1740   -1.1120  -33.6100 C.ar   62  PHE62      -0.0042
     66  CD2       -1.7730    0.4980  -31.8970 C.ar   62  PHE62      -0.0042
     67  CE1       -2.8040   -1.9370  -32.6930 C.ar   62  PHE62      -0.0003
     68  CE2       -2.4020   -0.3230  -30.9750 C.ar   62  PHE62      -0.0003
     69  CZ        -2.9160   -1.5410  -31.3750 C.ar   62  PHE62      -0.0000
     70  N        -11.8420   -5.3780  -32.3560 N.3   233  LEU233     -0.1245
     71  CA       -10.5420   -4.8970  -32.8100 C.3   233  LEU233      0.1561
     72  C        -10.2850   -5.3520  -34.2440 C.2   233  LEU233      0.2260
     73  O         -9.9630   -4.5460  -35.1310 O.2   233  LEU233     -0.2867
     74  CB        -9.4490   -5.4380  -31.8890 C.3   233  LEU233      0.0270
     75  CG        -8.0010   -5.0520  -32.1810 C.3   233  LEU233      0.0019
     76  CD1       -7.7940   -3.5750  -31.9190 C.3   233  LEU233      0.0001
     77  CD2       -7.0450   -5.8880  -31.3420 C.3   233  LEU233      0.0001
     78  N        -11.5990   -2.1030  -23.1540 N.3   289  PHE289     -0.1241
     79  CA       -10.3170   -2.5340  -23.7120 C.3   289  PHE289      0.1605
     80  C         -9.7760   -1.5690  -24.7720 C.2   289  PHE289      0.2264
     81  O         -8.6480   -1.0610  -24.6610 O.2   289  PHE289     -0.2867
     82  CB       -10.4380   -3.9420  -24.2950 C.3   289  PHE289      0.0534
     83  CG        -9.1820   -4.4330  -24.9530 C.ar  289  PHE289     -0.0203
     84  CD1       -8.0440   -4.6830  -24.2030 C.ar  289  PHE289     -0.0042
     85  CD2       -9.1400   -4.6540  -26.3200 C.ar  289  PHE289     -0.0042
     86  CE1       -6.8800   -5.1370  -24.8050 C.ar  289  PHE289     -0.0003
     87  CE2       -7.9820   -5.1100  -26.9300 C.ar  289  PHE289     -0.0003
     88  CZ        -6.8510   -5.3510  -26.1700 C.ar  289  PHE289     -0.0000
     89  N         -6.4990    0.9820  -24.9170 N.3   293  LEU293     -0.1245
     90  CA        -5.5230    1.0110  -26.0060 C.3   293  LEU293      0.1561
     91  C         -5.3580    2.4140  -26.5960 C.2   293  LEU293      0.2260
     92  O         -4.2420    2.8440  -26.8840 O.2   293  LEU293     -0.2867
     93  CB        -5.8960    0.0200  -27.1140 C.3   293  LEU293      0.0270
     94  CG        -5.7200   -1.4690  -26.8170 C.3   293  LEU293      0.0019
     95  CD1       -5.7990   -2.2880  -28.0980 C.3   293  LEU293      0.0001
     96  CD2       -4.4080   -1.7160  -26.1030 C.3   293  LEU293      0.0001
     97  N         -3.3110    4.5940  -24.1420 N.3   296  LEU296     -0.1231
     98  CA        -1.8880    4.2940  -24.2930 C.3   296  LEU296      0.1693
     99  C         -1.3360    4.9180  -25.5740 C.2   296  LEU296      0.2591
    100  O         -0.2670    5.5380  -25.5730 O.2   296  LEU296     -0.2718
    101  CB        -1.6590    2.7820  -24.3050 C.3   296  LEU296      0.0284
    102  CG        -2.1160    2.0000  -23.0730 C.3   296  LEU296      0.0019
    103  CD1       -1.7730    0.5240  -23.2110 C.3   296  LEU296      0.0001
    104  CD2       -1.4960    2.5760  -21.8140 C.3   296  LEU296      0.0001
    105  N         -2.0900    4.7590  -26.6580 N.am  297  ALA297     -0.1980
    106  CA        -1.7190    5.3010  -27.9590 C.3   297  ALA297      0.1597
    107  C         -1.5520    6.8160  -27.9130 C.2   297  ALA297      0.2287
    108  O         -0.5960    7.3570  -28.4650 O.2   297  ALA297     -0.2864
    109  CB        -2.7550    4.9160  -28.9950 C.3   297  ALA297      0.0319
    110  N          1.6610    7.7140  -25.9630 N.3   300  PHE300     -0.1241
    111  CA         2.8060    7.4910  -26.8360 C.3   300  PHE300      0.1605
    112  C          2.9400    8.5530  -27.9250 C.2   300  PHE300      0.2264
    113  O          4.0360    9.0310  -28.1830 O.2   300  PHE300     -0.2867
    114  CB         2.7450    6.0950  -27.4550 C.3   300  PHE300      0.0534
    115  CG         3.5090    5.0560  -26.6830 C.ar  300  PHE300     -0.0203
    116  CD1        3.0480    4.5990  -25.4580 C.ar  300  PHE300     -0.0042
    117  CD2        4.6860    4.5300  -27.1910 C.ar  300  PHE300     -0.0042
    118  CE1        3.7530    3.6380  -24.7490 C.ar  300  PHE300     -0.0003
    119  CE2        5.3960    3.5690  -26.4890 C.ar  300  PHE300     -0.0003
    120  CZ         4.9270    3.1240  -25.2670 C.ar  300  PHE300     -0.0000
@<TRIPOS>BOND
     1    41    42    1
     2    59    60    1
     3    42    43    1
     4    42    45    1
     5    44    43    2
     6    47    49   ar
     7    47    46   ar
     8    43    52   am
     9    49    51   ar
    10    45    46    1
    11    73    72    2
    12    60    63    1
    13    60    61    1
    14    46    48   ar
    15    52    53    1
    16    72    71    1
    17    63    64    1
    18    54    55    2
    19    54    53    1
    20    61    62    2
    21    51    50   ar
    22    65    64   ar
    23    65    67   ar
    24    48    50   ar
    25    53    56    1
    26    64    66   ar
    27    71    70    1
    28    71    74    1
    29    67    69   ar
    30    56    58    1
    31    56    57    1
    32    75    76    1
    33    75    74    1
    34    75    77    1
    35    66    68   ar
    36    69    68   ar
    37     8     6    1
    38     7     6    1
    39     6     5    1
    40     5     2    1
    41   109   106    1
    42   108   107    2
    43    21    19    1
    44   113   112    2
    45    95    94    1
    46    20    19    1
    47   106   107    1
    48   106   105    1
    49   112   111    1
    50     2     1    1
    51     2     3    1
    52    19    18    1
    53   114   111    1
    54   114   115    1
    55   117   115   ar
    56   117   119   ar
    57    93    94    1
    58    93    90    1
    59    87    85   ar
    60    87    88   ar
    61    92    91    2
    62   111   110    1
    63    94    96    1
    64     3     4    2
    65     3     9   am
    66   115   116   ar
    67   105    99   am
    68    91    90    1
    69   119   120   ar
    70    85    83   ar
    71    88    86   ar
    72     9    10    1
    73    18    15    1
    74    90    89    1
    75    99   100    2
    76    99    98    1
    77   116   118   ar
    78    15    14    1
    79    15    16    1
    80   120   118   ar
    81    10    13    1
    82    10    11    1
    83    83    82    1
    84    83    84   ar
    85    86    84   ar
    86    80    81    2
    87    80    79    1
    88   101    98    1
    89   101   102    1
    90    82    79    1
    91    98    97    1
    92    11    12    2
    93    16    17    2
    94    16    22   am
    95    79    78    1
    96   103   102    1
    97   102   104    1
    98    22    23    1
    99    33    34    1
   100    23    24    1
   101    23    26    1
   102    37    34    1
   103    37    38    1
   104    34    35    1
   105    39    38    1
   106    24    25    2
   107    26    27    1
   108    40    38    1
   109    35    36    2
   110    27    28   ar
   111    27    29   ar
   112    28    30   ar
   113    29    31   ar
   114    30    32   ar
   115    31    32   ar
