@<TRIPOS>MOLECULE
tmp/4cz8A03.pdb
 82 79 0 0 0
SMALL
GASTEIGER

@<TRIPOS>ATOM
      1  N        -13.5670  -22.5790  -32.2000 N.3    22  SER22      -0.1202
      2  CA       -13.1140  -23.4230  -31.0980 C.3    22  SER22       0.2020
      3  C        -14.1360  -23.4970  -29.9660 C.2    22  SER22       0.2618
      4  O        -14.4880  -24.5850  -29.5110 O.2    22  SER22      -0.2717
      5  CB       -11.7750  -22.9230  -30.5550 C.3    22  SER22       0.2103
      6  OG       -11.4560  -23.5630  -29.3350 O.3    22  SER22      -0.2182
      7  N        -14.6080  -22.3380  -29.5150 N.am   23  ARG23      -0.1979
      8  CA       -15.5770  -22.2930  -28.4220 C.3    23  ARG23       0.1597
      9  C        -16.9160  -22.9230  -28.8120 C.2    23  ARG23       0.2287
     10  O        -17.5360  -23.6220  -28.0110 O.2    23  ARG23      -0.2864
     11  CB       -15.7810  -20.8570  -27.9310 C.3    23  ARG23       0.0334
     12  CG       -16.8120  -20.7310  -26.8180 C.3    23  ARG23       0.0492
     13  CD       -16.7870  -19.3590  -26.1630 C.3    23  ARG23       0.2205
     14  NE       -15.5210  -19.0930  -25.4850 N.pl3  23  ARG23      -0.0865
     15  CZ       -15.3420  -18.1310  -24.5860 C.cat  23  ARG23       0.5346
     16  NH1      -16.3500  -17.3400  -24.2480 N.pl3  23  ARG23       0.1354
     17  NH2      -14.1560  -17.9610  -24.0190 N.pl3  23  ARG23       0.1354
     18  N        -16.4730  -26.8410  -29.4680 N.3    26  GLY26      -0.1210
     19  CA       -16.0620  -27.5230  -28.2530 C.3    26  GLY26       0.1956
     20  C        -14.6940  -28.1670  -28.3630 C.2    26  GLY26       0.2612
     21  O        -14.2570  -28.8790  -27.4580 O.2    26  GLY26      -0.2717
     22  N        -14.0170  -27.9180  -29.4780 N.am   27  ILE27      -0.1965
     23  CA       -12.6740  -28.4350  -29.6920 C.3    27  ILE27       0.1727
     24  C        -11.6650  -27.5260  -28.9910 C.2    27  ILE27       0.2617
     25  O        -11.9060  -26.3270  -28.8430 O.2    27  ILE27      -0.2715
     26  CB       -12.3460  -28.5100  -31.1970 C.3    27  ILE27       0.0290
     27  CG1      -13.5610  -29.0020  -31.9850 C.3    27  ILE27       0.0022
     28  CG2      -11.1470  -29.4130  -31.4460 C.3    27  ILE27       0.0023
     29  CD1      -13.3000  -29.1700  -33.4690 C.3    27  ILE27       0.0001
     30  N        -10.5460  -28.0990  -28.5530 N.am   28  SER28      -0.1936
     31  CA        -9.4760  -27.3300  -27.9200 C.3    28  SER28       0.2055
     32  C         -8.9590  -26.2410  -28.8540 C.2    28  SER28       0.2643
     33  O         -8.8130  -26.4640  -30.0540 O.2    28  SER28      -0.2714
     34  CB        -8.3280  -28.2530  -27.5090 C.3    28  SER28       0.2130
     35  OG        -7.2360  -27.5160  -26.9850 O.3    28  SER28      -0.2179
     36  N         -8.6850  -25.0630  -28.3010 N.am   29  TYR29      -0.1973
     37  CA        -8.2510  -23.9250  -29.1050 C.3    29  TYR29       0.1639
     38  C         -6.8460  -24.1020  -29.6800 C.2    29  TYR29       0.2290
     39  O         -6.5080  -23.5030  -30.7010 O.2    29  TYR29      -0.2864
     40  CB        -8.3330  -22.6280  -28.2950 C.3    29  TYR29       0.0560
     41  CG        -7.4650  -22.6150  -27.0580 C.ar   29  TYR29      -0.0198
     42  CD1       -6.1560  -22.1610  -27.1110 C.ar   29  TYR29      -0.0009
     43  CD2       -7.9560  -23.0500  -25.8370 C.ar   29  TYR29      -0.0009
     44  CE1       -5.3590  -22.1480  -25.9860 C.ar   29  TYR29       0.0417
     45  CE2       -7.1670  -23.0390  -24.7050 C.ar   29  TYR29       0.0417
     46  CZ        -5.8690  -22.5870  -24.7860 C.ar   29  TYR29       0.1957
     47  OH        -5.0770  -22.5750  -23.6620 O.3    29  TYR29      -0.2866
     48  N         -5.9230  -23.2630  -33.5290 N.3    33  PHE33      -0.1241
     49  CA        -5.0170  -22.1450  -33.7650 C.3    33  PHE33       0.1605
     50  C         -3.8140  -22.5680  -34.6020 C.2    33  PHE33       0.2264
     51  O         -3.5000  -21.9430  -35.6180 O.2    33  PHE33      -0.2867
     52  CB        -4.5230  -21.5680  -32.4390 C.3    33  PHE33       0.0534
     53  CG        -5.5320  -20.7110  -31.7260 C.ar   33  PHE33      -0.0203
     54  CD1       -6.6030  -20.1540  -32.4050 C.ar   33  PHE33      -0.0042
     55  CD2       -5.3950  -20.4540  -30.3700 C.ar   33  PHE33      -0.0042
     56  CE1       -7.5260  -19.3610  -31.7410 C.ar   33  PHE33      -0.0003
     57  CE2       -6.3110  -19.6630  -29.7020 C.ar   33  PHE33      -0.0003
     58  CZ        -7.3780  -19.1170  -30.3880 C.ar   33  PHE33      -0.0000
     59  N         -4.9770  -24.9120  -19.2140 N.3   129  ALA129     -0.1231
     60  CA        -5.9950  -23.9570  -19.6350 C.3   129  ALA129      0.1694
     61  C         -7.0530  -24.5970  -20.5310 C.2   129  ALA129      0.2592
     62  O         -8.2080  -24.1710  -20.5430 O.2   129  ALA129     -0.2718
     63  CB        -5.3460  -22.7750  -20.3370 C.3   129  ALA129      0.0304
     64  N         -6.6500  -25.6210  -21.2760 N.am  130  THR130     -0.1953
     65  CA        -7.5570  -26.3320  -22.1710 C.3   130  THR130      0.1897
     66  C         -8.2550  -27.4940  -21.4690 C.2   130  THR130      0.2313
     67  O         -9.0330  -28.2220  -22.0860 O.2   130  THR130     -0.2863
     68  CB        -6.8090  -26.8650  -23.4090 C.3   130  THR130      0.1794
     69  OG1       -7.6650  -27.7400  -24.1520 O.3   130  THR130     -0.2208
     70  CG2       -5.5640  -27.6270  -22.9870 C.3   130  THR130      0.0378
     71  N        -12.2920  -26.3790  -18.6060 N.3   133  PRO133     -0.2116
     72  CA       -13.6960  -26.5060  -19.0220 C.3   133  PRO133      0.1372
     73  C        -14.2600  -27.9220  -18.8810 C.2   133  PRO133      0.2244
     74  O        -15.4800  -28.0880  -18.8500 O.2   133  PRO133     -0.2868
     75  CB       -13.6560  -26.1070  -20.4980 C.3   133  PRO133      0.0268
     76  CG       -12.5150  -25.1700  -20.5930 C.3   133  PRO133      0.0207
     77  CD       -11.4850  -25.7070  -19.6430 C.3   133  PRO133      0.0892
     78  N         -4.8570  -13.0020  -23.8000 N.3   295  ALA295     -0.1245
     79  CA        -5.5540  -13.8490  -24.7580 C.3   295  ALA295      0.1562
     80  C         -5.0250  -13.6130  -26.1680 C.2   295  ALA295      0.2260
     81  O         -4.6930  -14.5650  -26.8820 O.2   295  ALA295     -0.2867
     82  CB        -7.0460  -13.5900  -24.6990 C.3   295  ALA295      0.0290
@<TRIPOS>BOND
     1    51    50    2
     2    50    49    1
     3    49    48    1
     4    49    52    1
     5    29    27    1
     6    52    53    1
     7    54    56   ar
     8    54    53   ar
     9     1     2    1
    10    27    26    1
    11    56    58   ar
    12    53    55   ar
    13    28    26    1
    14    26    23    1
    15     2     5    1
    16     2     3    1
    17    39    38    2
    18     5     6    1
    19    58    57   ar
    20    55    57   ar
    21    33    32    2
    22     3     7   am
    23     3     4    2
    24    23    22    1
    25    23    24    1
    26    38    37    1
    27     7     8    1
    28    22    20   am
    29    18    19    1
    30    37    36    1
    31    37    40    1
    32    24    25    2
    33    24    30   am
    34    32    36   am
    35    32    31    1
    36     9     8    1
    37     9    10    2
    38    30    31    1
    39     8    11    1
    40    20    19    1
    41    20    21    2
    42    40    41    1
    43    11    12    1
    44    31    34    1
    45    34    35    1
    46    42    41   ar
    47    42    44   ar
    48    41    43   ar
    49    81    80    2
    50    12    13    1
    51    80    79    1
    52    13    14    1
    53    44    46   ar
    54    43    45   ar
    55    14    15    2
    56    46    45   ar
    57    46    47    1
    58    79    82    1
    59    79    78    1
    60    15    16    1
    61    15    17    1
    62    69    68    1
    63    68    70    1
    64    68    65    1
    65    65    66    1
    66    65    64    1
    67    67    66    2
    68    64    61   am
    69    76    75    1
    70    76    77    1
    71    62    61    2
    72    61    60    1
    73    75    72    1
    74    63    60    1
    75    77    71    1
    76    60    59    1
    77    72    73    1
    78    72    71    1
    79    73    74    2
