@<TRIPOS>MOLECULE
tmp/4cz8A01.pdb
 220 213 0 0 0
SMALL
GASTEIGER

@<TRIPOS>ATOM
      1  N          3.2860   -5.9550  -44.0270 N.3     5  LEU5       -0.1245
      2  CA         3.5530   -6.5230  -42.7100 C.3     5  LEU5        0.1561
      3  C          2.3340   -6.3560  -41.8080 C.2     5  LEU5        0.2260
      4  O          1.9240   -7.2880  -41.1060 O.2     5  LEU5       -0.2867
      5  CB         4.7720   -5.8490  -42.0810 C.3     5  LEU5        0.0270
      6  CG         5.0120   -6.0940  -40.5910 C.3     5  LEU5        0.0019
      7  CD1        5.2130   -7.5690  -40.3170 C.3     5  LEU5        0.0001
      8  CD2        6.2020   -5.2890  -40.0910 C.3     5  LEU5        0.0001
      9  N          0.0890   -9.2060  -39.8490 N.3     9  LEU9       -0.1245
     10  CA        -0.2750   -9.1910  -38.4340 C.3     9  LEU9        0.1561
     11  C         -1.7890   -9.2380  -38.2550 C.2     9  LEU9        0.2260
     12  O         -2.3190  -10.0640  -37.5020 O.2     9  LEU9       -0.2867
     13  CB         0.2860   -7.9440  -37.7490 C.3     9  LEU9        0.0270
     14  CG         1.8050   -7.8320  -37.6230 C.3     9  LEU9        0.0019
     15  CD1        2.1850   -6.5330  -36.9360 C.3     9  LEU9        0.0001
     16  CD2        2.3510   -9.0150  -36.8550 C.3     9  LEU9        0.0001
     17  N         10.4560  -13.2620  -37.3850 N.3    54  GLU54      -0.1231
     18  CA        10.5600  -11.8660  -36.9550 C.3    54  GLU54       0.1699
     19  C          9.4360  -11.4180  -36.0130 C.2    54  GLU54       0.2592
     20  O          9.6840  -10.6880  -35.0520 O.2    54  GLU54      -0.2718
     21  CB        10.6600  -10.9270  -38.1600 C.3    54  GLU54       0.0402
     22  CG        11.9740  -11.0370  -38.9210 C.3    54  GLU54       0.1161
     23  CD        13.1820  -10.7240  -38.0560 C.2    54  GLU54       0.3649
     24  OE1       13.0670   -9.8760  -37.1460 O.co2  54  GLU54      -0.2457
     25  OE2       14.2490  -11.3300  -38.2850 O.co2  54  GLU54      -0.2457
     26  N          8.2080  -11.8500  -36.2890 N.am   55  ILE55      -0.1980
     27  CA         7.0720  -11.5450  -35.4230 C.3    55  ILE55       0.1595
     28  C          7.2180  -12.2610  -34.0840 C.2    55  ILE55       0.2287
     29  O          7.0170  -11.6740  -33.0130 O.2    55  ILE55      -0.2864
     30  CB         5.7350  -11.9910  -36.0540 C.3    55  ILE55       0.0276
     31  CG1        5.6070  -11.4900  -37.4930 C.3    55  ILE55       0.0022
     32  CG2        4.5600  -11.5190  -35.2100 C.3    55  ILE55       0.0022
     33  CD1        5.7340   -9.9950  -37.6430 C.3    55  ILE55       0.0001
     34  N          9.7850  -13.2280  -32.5780 N.3    57  ASP57      -0.1225
     35  CA        10.8530  -12.6820  -31.7400 C.3    57  ASP57       0.1805
     36  C         10.3620  -11.5460  -30.8350 C.2    57  ASP57       0.2598
     37  O         10.9820  -11.2430  -29.8160 O.2    57  ASP57      -0.2718
     38  CB        12.0500  -12.2330  -32.5840 C.3    57  ASP57       0.1424
     39  CG        12.8520  -13.4030  -33.1320 C.2    57  ASP57       0.3668
     40  OD1       12.7220  -14.5230  -32.5960 O.co2  57  ASP57      -0.2456
     41  OD2       13.6200  -13.1960  -34.0960 O.co2  57  ASP57      -0.2456
     42  N          9.2450  -10.9270  -31.2100 N.am   58  PHE58      -0.1962
     43  CA         8.6100   -9.8900  -30.3950 C.3    58  PHE58       0.1771
     44  C          7.5450  -10.5060  -29.4920 C.2    58  PHE58       0.2619
     45  O          7.5400  -10.2990  -28.2640 O.2    58  PHE58      -0.2715
     46  CB         7.9670   -8.8320  -31.2990 C.3    58  PHE58       0.0574
     47  CG         7.1940   -7.7710  -30.5520 C.ar   58  PHE58      -0.0200
     48  CD1        5.8810   -7.9880  -30.1530 C.ar   58  PHE58      -0.0042
     49  CD2        7.7740   -6.5460  -30.2740 C.ar   58  PHE58      -0.0042
     50  CE1        5.1750   -7.0140  -29.4700 C.ar   58  PHE58      -0.0003
     51  CE2        7.0700   -5.5650  -29.5970 C.ar   58  PHE58      -0.0003
     52  CZ         5.7700   -5.8000  -29.1950 C.ar   58  PHE58      -0.0000
     53  N          6.6300  -11.2410  -30.1230 N.am   59  VAL59      -0.1963
     54  CA         5.5150  -11.8740  -29.4230 C.3    59  VAL59       0.1727
     55  C          6.0230  -12.7600  -28.2900 C.2    59  VAL59       0.2616
     56  O          5.3570  -12.9180  -27.2700 O.2    59  VAL59      -0.2715
     57  CB         4.6320  -12.6870  -30.3950 C.3    59  VAL59       0.0290
     58  CG1        3.4440  -13.2970  -29.6700 C.3    59  VAL59       0.0023
     59  CG2        4.1490  -11.7990  -31.5280 C.3    59  VAL59       0.0023
     60  N          7.2150  -13.3200  -28.4780 N.am   60  ARG60      -0.1963
     61  CA         7.8960  -14.0680  -27.4290 C.3    60  ARG60       0.1729
     62  C          7.9890  -13.2170  -26.1660 C.2    60  ARG60       0.2616
     63  O          7.2900  -13.4740  -25.1910 O.2    60  ARG60      -0.2715
     64  CB         9.2890  -14.4920  -27.8990 C.3    60  ARG60       0.0348
     65  CG         9.9910  -15.5100  -27.0200 C.3    60  ARG60       0.0492
     66  CD        11.0820  -16.2430  -27.7940 C.3    60  ARG60       0.2205
     67  NE        10.5380  -16.9960  -28.9220 N.pl3  60  ARG60      -0.0865
     68  CZ        10.8340  -16.7600  -30.1960 C.cat  60  ARG60       0.5346
     69  NH1       11.6850  -15.7950  -30.5140 N.pl3  60  ARG60       0.1354
     70  NH2       10.2860  -17.4950  -31.1540 N.pl3  60  ARG60       0.1354
     71  N          8.8290  -12.1870  -26.2030 N.am   61  VAL61      -0.1963
     72  CA         8.9970  -11.2840  -25.0680 C.3    61  VAL61       0.1727
     73  C          7.6710  -10.7210  -24.5540 C.2    61  VAL61       0.2616
     74  O          7.2200  -11.0830  -23.4600 O.2    61  VAL61      -0.2715
     75  CB         9.9390  -10.1150  -25.4110 C.3    61  VAL61       0.0290
     76  CG1       10.0730   -9.1750  -24.2220 C.3    61  VAL61       0.0023
     77  CG2       11.3020  -10.6400  -25.8370 C.3    61  VAL61       0.0023
     78  N          7.0460   -9.8520  -25.3480 N.am   62  PHE62      -0.1960
     79  CA         5.8510   -9.1330  -24.8990 C.3    62  PHE62       0.1771
     80  C          4.7470  -10.0850  -24.4400 C.2    62  PHE62       0.2620
     81  O          4.2590  -10.0010  -23.3010 O.2    62  PHE62      -0.2715
     82  CB         5.3370   -8.2100  -26.0060 C.3    62  PHE62       0.0574
     83  CG         4.0750   -7.4750  -25.6510 C.ar   62  PHE62      -0.0200
     84  CD1        4.1230   -6.3130  -24.8980 C.ar   62  PHE62      -0.0042
     85  CD2        2.8410   -7.9380  -26.0820 C.ar   62  PHE62      -0.0042
     86  CE1        2.9610   -5.6310  -24.5690 C.ar   62  PHE62      -0.0003
     87  CE2        1.6760   -7.2610  -25.7580 C.ar   62  PHE62      -0.0003
     88  CZ         1.7380   -6.1070  -25.0010 C.ar   62  PHE62      -0.0000
     89  N          4.3760  -10.9950  -25.3350 N.am   63  GLY63      -0.1954
     90  CA         3.3480  -11.9780  -25.0640 C.3    63  GLY63       0.1869
     91  C          3.6000  -12.7840  -23.8070 C.2    63  GLY63       0.2309
     92  O          2.7300  -12.8540  -22.9470 O.2    63  GLY63      -0.2863
     93  N         24.8920  -15.4070  -24.0990 N.3   173  TYR173     -0.1241
     94  CA        24.2670  -15.3820  -22.7800 C.3   173  TYR173      0.1605
     95  C         25.2380  -15.7890  -21.6770 C.2   173  TYR173      0.2264
     96  O         24.9340  -15.6450  -20.4920 O.2   173  TYR173     -0.2867
     97  CB        23.0440  -16.3000  -22.7480 C.3   173  TYR173      0.0534
     98  CG        21.8070  -15.7220  -23.3970 C.ar  173  TYR173     -0.0201
     99  CD1       21.5840  -15.8580  -24.7600 C.ar  173  TYR173     -0.0009
    100  CD2       20.8560  -15.0490  -22.6420 C.ar  173  TYR173     -0.0009
    101  CE1       20.4530  -15.3330  -25.3540 C.ar  173  TYR173      0.0417
    102  CE2       19.7210  -14.5210  -23.2280 C.ar  173  TYR173      0.0417
    103  CZ        19.5260  -14.6670  -24.5840 C.ar  173  TYR173      0.1957
    104  OH        18.3980  -14.1430  -25.1700 O.3   173  TYR173     -0.2866
    105  N          0.3340   -2.3570  -16.2330 N.3   233  LEU233     -0.1245
    106  CA         1.1840   -2.7900  -17.3360 C.3   233  LEU233      0.1561
    107  C          2.6160   -2.2980  -17.1200 C.2   233  LEU233      0.2260
    108  O          3.5840   -3.0730  -17.1920 O.2   233  LEU233     -0.2867
    109  CB         0.6240   -2.2410  -18.6490 C.3   233  LEU233      0.0270
    110  CG         1.1760   -2.7950  -19.9590 C.3   233  LEU233      0.0019
    111  CD1        0.9530   -4.2900  -20.0190 C.3   233  LEU233      0.0001
    112  CD2        0.5140   -2.1080  -21.1430 C.3   233  LEU233      0.0001
    113  N          5.9770   -4.7230  -16.5520 N.3   237  PHE237     -0.1241
    114  CA         7.1520   -4.6310  -17.4120 C.3   237  PHE237      0.1605
    115  C          8.3690   -4.0430  -16.6930 C.2   237  PHE237      0.2264
    116  O          9.4990   -4.4390  -16.9670 O.2   237  PHE237     -0.2867
    117  CB         6.8360   -3.8800  -18.7060 C.3   237  PHE237      0.0534
    118  CG         6.1460   -4.7290  -19.7360 C.ar  237  PHE237     -0.0203
    119  CD1        6.8800   -5.5620  -20.5670 C.ar  237  PHE237     -0.0042
    120  CD2        4.7670   -4.7050  -19.8680 C.ar  237  PHE237     -0.0042
    121  CE1        6.2510   -6.3500  -21.5140 C.ar  237  PHE237     -0.0003
    122  CE2        4.1340   -5.4910  -20.8140 C.ar  237  PHE237     -0.0003
    123  CZ         4.8770   -6.3140  -21.6350 C.ar  237  PHE237     -0.0000
    124  N         12.0250   -5.8420  -16.6970 N.3   241  PHE241     -0.1241
    125  CA        13.3050   -5.2700  -17.1040 C.3   241  PHE241      0.1605
    126  C         14.3100   -5.1950  -15.9540 C.2   241  PHE241      0.2264
    127  O         15.4720   -5.5810  -16.1140 O.2   241  PHE241     -0.2867
    128  CB        13.1100   -3.8870  -17.7300 C.3   241  PHE241      0.0534
    129  CG        12.3310   -3.9060  -19.0160 C.ar  241  PHE241     -0.0203
    130  CD1       12.8160   -4.5720  -20.1290 C.ar  241  PHE241     -0.0042
    131  CD2       11.1220   -3.2400  -19.1170 C.ar  241  PHE241     -0.0042
    132  CE1       12.0990   -4.5870  -21.3140 C.ar  241  PHE241     -0.0003
    133  CE2       10.4010   -3.2550  -20.2960 C.ar  241  PHE241     -0.0003
    134  CZ        10.8920   -3.9230  -21.3960 C.ar  241  PHE241     -0.0000
    135  N         -8.4240   -5.7340  -18.9570 N.3   289  PHE289     -0.1241
    136  CA        -7.4770   -5.2750  -19.9750 C.3   289  PHE289      0.1605
    137  C         -6.3040   -6.2400  -20.1820 C.2   289  PHE289      0.2264
    138  O         -6.1060   -6.7790  -21.2810 O.2   289  PHE289     -0.2867
    139  CB        -6.9480   -3.8870  -19.6190 C.3   289  PHE289      0.0534
    140  CG        -5.9330   -3.3600  -20.5900 C.ar  289  PHE289     -0.0203
    141  CD1       -6.3100   -2.9880  -21.8700 C.ar  289  PHE289     -0.0042
    142  CD2       -4.6040   -3.2290  -20.2230 C.ar  289  PHE289     -0.0042
    143  CE1       -5.3780   -2.4990  -22.7710 C.ar  289  PHE289     -0.0003
    144  CE2       -3.6660   -2.7390  -21.1170 C.ar  289  PHE289     -0.0003
    145  CZ        -4.0550   -2.3740  -22.3930 C.ar  289  PHE289     -0.0000
    146  N         -5.2990   -8.7190  -23.3660 N.3   293  LEU293     -0.1245
    147  CA        -3.9650   -8.7320  -23.9600 C.3   293  LEU293      0.1561
    148  C         -3.3350  -10.1220  -23.8960 C.2   293  LEU293      0.2260
    149  O         -2.7250  -10.5780  -24.8610 O.2   293  LEU293     -0.2867
    150  CB        -3.0530   -7.7130  -23.2750 C.3   293  LEU293      0.0270
    151  CG        -3.2060   -6.2510  -23.6930 C.3   293  LEU293      0.0019
    152  CD1       -2.1800   -5.3840  -22.9850 C.3   293  LEU293      0.0001
    153  CD2       -3.0640   -6.1210  -25.1950 C.3   293  LEU293      0.0001
    154  N         -4.9540  -12.3410  -26.5590 N.3   296  LEU296     -0.1231
    155  CA        -4.4000  -11.9670  -27.8580 C.3   296  LEU296      0.1693
    156  C         -3.0090  -12.5680  -28.0450 C.2   296  LEU296      0.2591
    157  O         -2.6940  -13.1410  -29.0940 O.2   296  LEU296     -0.2718
    158  CB        -4.3320  -10.4450  -27.9900 C.3   296  LEU296      0.0284
    159  CG        -5.6590   -9.6870  -27.9670 C.3   296  LEU296      0.0019
    160  CD1       -5.4250   -8.1860  -28.0390 C.3   296  LEU296      0.0001
    161  CD2       -6.5410  -10.1440  -29.1110 C.3   296  LEU296      0.0001
    162  N         -2.1910  -12.4430  -27.0060 N.am  297  ALA297     -0.1980
    163  CA        -0.8430  -12.9970  -27.0010 C.3   297  ALA297      0.1597
    164  C         -0.8560  -14.5100  -27.2130 C.2   297  ALA297      0.2287
    165  O         -0.0790  -15.0320  -28.0070 O.2   297  ALA297     -0.2864
    166  CB        -0.1410  -12.6470  -25.7040 C.3   297  ALA297      0.0319
    167  N         -1.7700  -15.2650  -30.8950 N.3   300  PHE300     -0.1241
    168  CA        -0.5990  -14.9730  -31.7150 C.3   300  PHE300      0.1605
    169  C          0.4780  -16.0480  -31.5900 C.2   300  PHE300      0.2264
    170  O          1.0330  -16.4880  -32.5910 O.2   300  PHE300     -0.2867
    171  CB        -0.0190  -13.6050  -31.3550 C.3   300  PHE300      0.0534
    172  CG        -0.4220  -12.5070  -32.2990 C.ar  300  PHE300     -0.0203
    173  CD1        0.2660  -12.3120  -33.4860 C.ar  300  PHE300     -0.0042
    174  CD2       -1.4810  -11.6650  -31.9980 C.ar  300  PHE300     -0.0042
    175  CE1       -0.0970  -11.2990  -34.3590 C.ar  300  PHE300     -0.0003
    176  CE2       -1.8490  -10.6500  -32.8660 C.ar  300  PHE300     -0.0003
    177  CZ        -1.1550  -10.4690  -34.0480 C.ar  300  PHE300     -0.0000
    178  N         12.7980  -20.8110  -30.4890 N.3   366  LEU366     -0.1245
    179  CA        13.9390  -20.0980  -29.9160 C.3   366  LEU366      0.1561
    180  C         15.3170  -20.6570  -30.3100 C.2   366  LEU366      0.2260
    181  O         16.1890  -19.8890  -30.7200 O.2   366  LEU366     -0.2867
    182  CB        13.8140  -19.9810  -28.3910 C.3   366  LEU366      0.0270
    183  CG        14.8830  -19.1280  -27.7060 C.3   366  LEU366      0.0019
    184  CD1       14.9320  -17.7490  -28.3340 C.3   366  LEU366      0.0001
    185  CD2       14.6320  -19.0210  -26.2100 C.3   366  LEU366      0.0001
    186  N         16.0690  -19.7980  -34.0220 N.3   369  SER369     -0.1202
    187  CA        16.3790  -18.3870  -34.2320 C.3   369  SER369      0.2020
    188  C         17.8150  -18.0700  -33.8330 C.2   369  SER369      0.2618
    189  O         18.5390  -17.4080  -34.5730 O.2   369  SER369     -0.2717
    190  CB        15.4120  -17.5030  -33.4450 C.3   369  SER369      0.2103
    191  OG        15.5480  -17.7170  -32.0520 O.3   369  SER369     -0.2182
    192  N         18.2170  -18.5530  -32.6610 N.am  370  LEU370     -0.1979
    193  CA        19.5810  -18.3690  -32.1780 C.3   370  LEU370      0.1596
    194  C         20.5920  -19.0100  -33.1290 C.2   370  LEU370      0.2287
    195  O         21.6570  -18.4480  -33.3850 O.2   370  LEU370     -0.2864
    196  CB        19.7310  -18.9460  -30.7680 C.3   370  LEU370      0.0297
    197  CG        18.8430  -18.3250  -29.6860 C.3   370  LEU370      0.0022
    198  CD1       19.1210  -18.9450  -28.3230 C.3   370  LEU370      0.0001
    199  CD2       19.0280  -16.8190  -29.6380 C.3   370  LEU370      0.0001
    200  N         21.2110  -16.9560  -36.0560 N.3   373  LYS373     -0.1231
    201  CA        21.7990  -15.6610  -35.7260 C.3   373  LYS373      0.1693
    202  C         23.1920  -15.7320  -35.1080 C.2   373  LYS373      0.2592
    203  O         23.9600  -14.7810  -35.2200 O.2   373  LYS373     -0.2718
    204  CB        20.8720  -14.8710  -34.7970 C.3   373  LYS373      0.0285
    205  CG        19.5430  -14.4820  -35.4210 C.3   373  LYS373      0.0035
    206  CD        18.6580  -13.7530  -34.4200 C.3   373  LYS373      0.0206
    207  CE        17.2820  -13.4640  -35.0010 C.3   373  LYS373      0.1093
    208  NZ        16.3820  -12.8110  -34.0090 N.3   373  LYS373     -0.1314
    209  N         23.5200  -16.8430  -34.4560 N.am  374  TYR374     -0.1976
    210  CA        24.7540  -16.9000  -33.6740 C.3   374  TYR374      0.1639
    211  C         25.7480  -18.0070  -34.0370 C.2   374  TYR374      0.2290
    212  O         26.8470  -18.0400  -33.4880 O.2   374  TYR374     -0.2864
    213  CB        24.4390  -16.9300  -32.1750 C.3   374  TYR374      0.0560
    214  CG        24.0120  -15.5870  -31.6270 C.ar  374  TYR374     -0.0198
    215  CD1       24.4110  -14.4100  -32.2430 C.ar  374  TYR374     -0.0009
    216  CD2       23.2120  -15.4950  -30.4980 C.ar  374  TYR374     -0.0009
    217  CE1       24.0250  -13.1800  -31.7540 C.ar  374  TYR374      0.0417
    218  CE2       22.8210  -14.2660  -30.0000 C.ar  374  TYR374      0.0417
    219  CZ        23.2310  -13.1120  -30.6330 C.ar  374  TYR374      0.1957
    220  OH        22.8500  -11.8830  -30.1470 O.3   374  TYR374     -0.2866
@<TRIPOS>BOND
     1     1     2    1
     2     2     5    1
     3     2     3    1
     4     5     6    1
     5     3     4    2
     6     6     7    1
     7     6     8    1
     8     9    10    1
     9    22    21    1
    10    22    23    1
    11    10    11    1
    12    10    13    1
    13    25    23   ar
    14    11    12    2
    15    21    18    1
    16    23    24   ar
    17    13    14    1
    18    33    31    1
    19    14    15    1
    20    14    16    1
    21    31    30    1
    22    17    18    1
    23    18    19    1
    24    26    19   am
    25    26    27    1
    26   200   201    1
    27    30    27    1
    28    30    32    1
    29    19    20    2
    30   201   202    1
    31   201   204    1
    32    27    28    1
    33   205   204    1
    34   205   206    1
    35   203   202    2
    36   202   209   am
    37   207   206    1
    38   207   208    1
    39   189   188    2
    40   209   210    1
    41   175   177   ar
    42   175   173   ar
    43   187   186    1
    44   187   188    1
    45   187   190    1
    46    41    39   ar
    47    28    29    2
    48   177   176   ar
    49   211   210    1
    50   211   212    2
    51   188   192   am
    52   210   213    1
    53   173   172   ar
    54   190   191    1
    55   195   194    2
    56    39    40   ar
    57    39    38    1
    58   194   193    1
    59   176   174   ar
    60   192   193    1
    61   170   169    2
    62    38    35    1
    63    34    35    1
    64   172   174   ar
    65   172   171    1
    66   215   217   ar
    67   215   214   ar
    68   193   196    1
    69   213   214    1
    70   217   219   ar
    71    35    36    1
    72   168   169    1
    73   168   171    1
    74   168   167    1
    75   214   216   ar
    76    59    57    1
    77    46    47    1
    78    46    43    1
    79    42    36   am
    80    42    43    1
    81    70    68    1
    82    36    37    2
    83   196   197    1
    84   181   180    2
    85   219   220    1
    86   219   218   ar
    87    47    49   ar
    88    47    48   ar
    89    69    68    1
    90   216   218   ar
    91   178   179    1
    92    57    58    1
    93    57    54    1
    94    43    44    1
    95   180   179    1
    96    49    51   ar
    97    68    67    2
    98    48    50   ar
    99    53    44   am
   100    53    54    1
   101   179   182    1
   102   197   199    1
   103   197   198    1
   104    51    52   ar
   105    44    45    2
   106    50    52   ar
   107    54    55    1
   108   161   159    1
   109   157   156    2
   110    67    66    1
   111    60    55   am
   112    60    61    1
   113   182   183    1
   114   184   183    1
   115    55    56    2
   116   156   155    1
   117   156   162   am
   118   160   159    1
   119   165   164    2
   120   158   159    1
   121   158   155    1
   122    64    61    1
   123    64    65    1
   124   155   154    1
   125    66    65    1
   126   183   185    1
   127    61    62    1
   128   164   163    1
   129   162   163    1
   130   163   166    1
   131    71    62   am
   132    71    72    1
   133    62    63    2
   134    85    87   ar
   135    85    83   ar
   136    82    83    1
   137    82    79    1
   138    77    75    1
   139    87    88   ar
   140    83    84   ar
   141    75    72    1
   142    75    76    1
   143   101    99   ar
   144   101   103   ar
   145    78    79    1
   146    78    73   am
   147    89    90    1
   148    89    80   am
   149   153   151    1
   150   104   103    1
   151    72    73    1
   152    90    91    1
   153    88    86   ar
   154    79    80    1
   155    84    86   ar
   156   149   148    2
   157    99    98   ar
   158   103   102   ar
   159    73    74    2
   160    80    81    2
   161    93    94    1
   162   147   148    1
   163   147   146    1
   164   147   150    1
   165    91    92    2
   166   151   150    1
   167   151   152    1
   168    98    97    1
   169    98   100   ar
   170   102   100   ar
   171    94    97    1
   172    94    95    1
   173   143   145   ar
   174   143   141   ar
   175   145   144   ar
   176   141   140   ar
   177    95    96    2
   178   123   121   ar
   179   123   122   ar
   180   121   119   ar
   181   134   132   ar
   182   134   133   ar
   183   132   130   ar
   184   138   137    2
   185   112   110    1
   186   144   142   ar
   187   122   120   ar
   188   140   142   ar
   189   140   139    1
   190   119   118   ar
   191   133   131   ar
   192   137   136    1
   193   130   129   ar
   194   111   110    1
   195   136   139    1
   196   136   135    1
   197   110   109    1
   198   120   118   ar
   199   118   117    1
   200   131   129   ar
   201   129   128    1
   202   117   114    1
   203   109   106    1
   204   128   125    1
   205   114   115    1
   206   114   113    1
   207   106   107    1
   208   106   105    1
   209   108   107    2
   210   125   124    1
   211   125   126    1
   212   116   115    2
   213   127   126    2
