@<TRIPOS>MOLECULE
tmp/4cz8B01.pdb
 88 85 0 0 0
SMALL
GASTEIGER

@<TRIPOS>ATOM
      1  N        -17.5220    5.4230  -31.1430 N.3    73  HIS73      -0.1226
      2  CA       -18.4970    4.9750  -30.1520 C.3    73  HIS73       0.1752
      3  C        -19.1750    6.1280  -29.4150 C.2    73  HIS73       0.2596
      4  O        -20.3780    6.0840  -29.1570 O.2    73  HIS73      -0.2718
      5  CB       -17.8340    4.0400  -29.1390 C.3    73  HIS73       0.0759
      6  CG       -17.3420    2.7560  -29.7270 C.ar   73  HIS73       0.0818
      7  ND1      -17.6500    2.3580  -31.0080 N.ar   73  HIS73      -0.2268
      8  CD2      -16.5610    1.7760  -29.2080 C.ar   73  HIS73       0.1154
      9  CE1      -17.0800    1.1840  -31.2560 C.ar   73  HIS73       0.1986
     10  NE2      -16.4150    0.8190  -30.1710 N.ar   73  HIS73      -0.2212
     11  N        -18.4010    7.1540  -29.0710 N.am   74  ASN74      -0.1960
     12  CA       -18.9220    8.2860  -28.3080 C.3    74  ASN74       0.1819
     13  C        -19.7830    9.2480  -29.1270 C.2    74  ASN74       0.2621
     14  O        -20.0610   10.3650  -28.6890 O.2    74  ASN74      -0.2715
     15  CB       -17.7850    9.0510  -27.6230 C.3    74  ASN74       0.1195
     16  CG       -17.3160    8.3810  -26.3450 C.2    74  ASN74       0.2630
     17  OD1      -16.4220    7.5360  -26.3640 O.2    74  ASN74      -0.2716
     18  ND2      -17.9180    8.7620  -25.2230 N.am   74  ASN74      -0.0877
     19  N        -20.2050    8.8140  -30.3110 N.am   75  LEU75      -0.1963
     20  CA       -21.0890    9.6190  -31.1460 C.3    75  LEU75       0.1728
     21  C        -22.5090    9.0630  -31.1550 C.2    75  LEU75       0.2616
     22  O        -22.7180    7.8650  -31.3490 O.2    75  LEU75      -0.2715
     23  CB       -20.5580    9.7080  -32.5780 C.3    75  LEU75       0.0311
     24  CG       -21.4200   10.5310  -33.5380 C.3    75  LEU75       0.0022
     25  CD1      -21.5840   11.9470  -33.0150 C.3    75  LEU75       0.0001
     26  CD2      -20.8240   10.5430  -34.9330 C.3    75  LEU75       0.0001
     27  N        -23.4810    9.9430  -30.9410 N.am   76  SER76      -0.1950
     28  CA       -24.8870    9.5700  -31.0150 C.3    76  SER76       0.1924
     29  C        -25.4760   10.0210  -32.3470 C.2    76  SER76       0.2314
     30  O        -25.4750   11.2120  -32.6580 O.2    76  SER76      -0.2863
     31  CB       -25.6610   10.1990  -29.8590 C.3    76  SER76       0.2116
     32  OG       -25.4350   11.5950  -29.8030 O.3    76  SER76      -0.2180
     33  N        -21.5320    2.1520  -31.7070 N.3   262  GLY262     -0.1210
     34  CA       -21.9490    3.0680  -30.6610 C.3   262  GLY262      0.1956
     35  C        -23.4490    3.2880  -30.7010 C.2   262  GLY262      0.2612
     36  O        -24.0680    3.5910  -29.6830 O.2   262  GLY262     -0.2717
     37  N        -24.0310    3.1290  -31.8860 N.am  263  ASN263     -0.1960
     38  CA       -25.4670    3.2890  -32.0660 C.3   263  ASN263      0.1819
     39  C        -26.1280    1.9650  -32.4440 C.2   263  ASN263      0.2621
     40  O        -26.9460    1.9090  -33.3610 O.2   263  ASN263     -0.2715
     41  CB       -25.7570    4.3480  -33.1320 C.3   263  ASN263      0.1195
     42  CG       -25.1130    5.6870  -32.8180 C.2   263  ASN263      0.2630
     43  OD1      -25.7640    6.6000  -32.3100 O.2   263  ASN263     -0.2716
     44  ND2      -23.8270    5.8090  -33.1230 N.am  263  ASN263     -0.0877
     45  N        -25.7640    0.9050  -31.7280 N.am  264  TYR264     -0.1974
     46  CA       -26.2670   -0.4360  -32.0070 C.3   264  TYR264      0.1639
     47  C        -27.7380   -0.5910  -31.6310 C.2   264  TYR264      0.2290
     48  O        -28.4480   -1.4200  -32.2010 O.2   264  TYR264     -0.2864
     49  CB       -25.4310   -1.4790  -31.2610 C.3   264  TYR264      0.0560
     50  CG       -25.6090   -1.4480  -29.7570 C.ar  264  TYR264     -0.0198
     51  CD1      -25.0320   -0.4460  -28.9890 C.ar  264  TYR264     -0.0009
     52  CD2      -26.3460   -2.4270  -29.1060 C.ar  264  TYR264     -0.0009
     53  CE1      -25.1910   -0.4150  -27.6190 C.ar  264  TYR264      0.0417
     54  CE2      -26.5090   -2.4030  -27.7340 C.ar  264  TYR264      0.0417
     55  CZ       -25.9290   -1.3940  -26.9960 C.ar  264  TYR264      0.1957
     56  OH       -26.0880   -1.3650  -25.6300 O.3   264  TYR264     -0.2866
     57  N        -30.0440    1.4820  -32.1640 N.3   266  LEU266     -0.1245
     58  CA       -30.8920    2.2530  -33.0700 C.3   266  LEU266      0.1561
     59  C        -31.2020    1.5340  -34.3830 C.2   266  LEU266      0.2260
     60  O        -32.3480    1.5150  -34.8310 O.2   266  LEU266     -0.2867
     61  CB       -30.2500    3.6130  -33.3700 C.3   266  LEU266      0.0270
     62  CG       -30.3780    4.7650  -32.3640 C.3   266  LEU266      0.0019
     63  CD1      -29.7310    4.4440  -31.0240 C.3   266  LEU266      0.0001
     64  CD2      -29.7830    6.0390  -32.9490 C.3   266  LEU266      0.0001
     65  N        -20.5970   -4.4980  -25.3660 N.3   283  ILE283     -0.1231
     66  CA       -20.1080   -3.2110  -25.8420 C.3   283  ILE283      0.1692
     67  C        -19.3070   -2.4850  -24.7600 C.2   283  ILE283      0.2591
     68  O        -18.3120   -1.8380  -25.0570 O.2   283  ILE283     -0.2718
     69  CB       -21.2660   -2.3160  -26.3440 C.3   283  ILE283      0.0266
     70  CG1      -21.9500   -2.9530  -27.5560 C.3   283  ILE283      0.0019
     71  CG2      -20.7670   -0.9210  -26.6940 C.3   283  ILE283      0.0020
     72  CD1      -21.0310   -3.1870  -28.7340 C.3   283  ILE283      0.0001
     73  N        -19.7310   -2.6070  -23.5040 N.am  284  GLU284     -0.1979
     74  CA       -19.0050   -1.9830  -22.3980 C.3   284  GLU284      0.1602
     75  C        -17.5980   -2.5620  -22.2320 C.2   284  GLU284      0.2287
     76  O        -16.6310   -1.8160  -22.0630 O.2   284  GLU284     -0.2864
     77  CB       -19.7910   -2.0900  -21.0860 C.3   284  GLU284      0.0415
     78  CG       -21.0130   -1.1810  -21.0040 C.3   284  GLU284      0.1163
     79  CD       -21.7150   -1.2600  -19.6600 C.2   284  GLU284      0.3649
     80  OE1      -21.0290   -1.4900  -18.6420 O.co2 284  GLU284     -0.2457
     81  OE2      -22.9510   -1.0860  -19.6210 O.co2 284  GLU284     -0.2457
     82  N        -15.4880   -1.5140  -25.3940 N.3   287  VAL287     -0.1245
     83  CA       -15.1640   -0.1100  -25.1870 C.3   287  VAL287      0.1561
     84  C        -14.0490    0.0520  -24.1670 C.2   287  VAL287      0.2260
     85  O        -13.1130    0.8020  -24.3970 O.2   287  VAL287     -0.2867
     86  CB       -16.4030    0.6970  -24.7350 C.3   287  VAL287      0.0252
     87  CG1      -15.9910    1.9720  -24.0180 C.3   287  VAL287      0.0019
     88  CG2      -17.2920    1.0170  -25.9240 C.3   287  VAL287      0.0019
@<TRIPOS>BOND
     1    26    24    1
     2    60    59    2
     3    59    58    1
     4    24    25    1
     5    24    23    1
     6    61    58    1
     7    61    62    1
     8    40    39    2
     9    41    42    1
    10    41    38    1
    11    44    42   am
    12    58    57    1
    13    64    62    1
    14    42    43    2
    15    30    29    2
    16    23    20    1
    17    39    38    1
    18    39    45   am
    19    62    63    1
    20    29    28    1
    21    48    47    2
    22    38    37    1
    23    46    45    1
    24    46    47    1
    25    46    49    1
    26    37    35   am
    27    33    34    1
    28    22    21    2
    29    49    50    1
    30     9     7   ar
    31     9    10   ar
    32    21    20    1
    33    21    27   am
    34    20    19    1
    35     1     2    1
    36    28    27    1
    37    28    31    1
    38     7     6   ar
    39    35    34    1
    40    35    36    2
    41    19    13   am
    42    10     8   ar
    43     2     3    1
    44     2     5    1
    45    31    32    1
    46    50    52   ar
    47    50    51   ar
    48     6     8   ar
    49     6     5    1
    50     3     4    2
    51     3    11   am
    52    13    14    2
    53    13    12    1
    54    52    54   ar
    55    11    12    1
    56    51    53   ar
    57    72    70    1
    58    12    15    1
    59    54    55   ar
    60    15    16    1
    61    53    55   ar
    62    70    69    1
    63    55    56    1
    64    71    69    1
    65    17    16    2
    66    16    18   am
    67    69    66    1
    68    88    86    1
    69    66    65    1
    70    66    67    1
    71    82    83    1
    72    83    86    1
    73    83    84    1
    74    68    67    2
    75    67    73   am
    76    86    87    1
    77    85    84    2
    78    73    74    1
    79    74    75    1
    80    74    77    1
    81    75    76    2
    82    77    78    1
    83    78    79    1
    84    79    81   ar
    85    79    80   ar
