@<TRIPOS>MOLECULE
tmp/4czaB01.pdb
 93 90 0 0 0
SMALL
GASTEIGER

@<TRIPOS>ATOM
      1  N         17.0360   12.6180    4.8350 N.3   164  LEU164     -0.1245
      2  CA        17.3660   11.4780    3.9890 C.3   164  LEU164      0.1561
      3  C         17.3730   11.8480    2.5070 C.2   164  LEU164      0.2260
      4  O         18.1550   11.3020    1.7280 O.2   164  LEU164     -0.2867
      5  CB        16.3850   10.3290    4.2370 C.3   164  LEU164      0.0270
      6  CG        16.7840    8.9510    3.7040 C.3   164  LEU164      0.0019
      7  CD1       17.9480    8.3910    4.5070 C.3   164  LEU164      0.0001
      8  CD2       15.6010    7.9930    3.7250 C.3   164  LEU164      0.0001
      9  N         25.2430    7.7150   -4.4470 N.3   172  GLY172     -0.1210
     10  CA        25.1820    6.3350   -4.0030 C.3   172  GLY172      0.1956
     11  C         24.1500    6.0540   -2.9270 C.2   172  GLY172      0.2612
     12  O         23.5050    5.0050   -2.9420 O.2   172  GLY172     -0.2717
     13  N         23.9930    6.9880   -1.9940 N.am  173  TYR173     -0.1962
     14  CA        23.1030    6.7910   -0.8530 C.3   173  TYR173      0.1771
     15  C         21.6440    6.6710   -1.2850 C.2   173  TYR173      0.2620
     16  O         20.8960    5.8530   -0.7510 O.2   173  TYR173     -0.2715
     17  CB        23.2730    7.9180    0.1690 C.3   173  TYR173      0.0574
     18  CG        22.8030    7.5520    1.5590 C.ar  173  TYR173     -0.0198
     19  CD1       23.2880    6.4160    2.1960 C.ar  173  TYR173     -0.0009
     20  CD2       21.8870    8.3460    2.2390 C.ar  173  TYR173     -0.0009
     21  CE1       22.8680    6.0750    3.4660 C.ar  173  TYR173      0.0417
     22  CE2       21.4620    8.0150    3.5120 C.ar  173  TYR173      0.0417
     23  CZ        21.9560    6.8770    4.1210 C.ar  173  TYR173      0.1957
     24  OH        21.5370    6.5400    5.3870 O.3   173  TYR173     -0.2866
     25  N         21.2450    7.4860   -2.2550 N.am  174  GLY174     -0.1940
     26  CA        19.9140    7.3840   -2.8230 C.3   174  GLY174      0.2014
     27  C         19.8500    6.2290   -3.8040 C.2   174  GLY174      0.2639
     28  O         20.8240    5.9520   -4.5030 O.2   174  GLY174     -0.2714
     29  N         18.7090    5.5500   -3.8550 N.am  175  GLY175     -0.1939
     30  CA        18.5490    4.4130   -4.7430 C.3   175  GLY175      0.2014
     31  C         17.1210    3.9120   -4.8340 C.2   175  GLY175      0.2639
     32  O         16.3180    4.1220   -3.9260 O.2   175  GLY175     -0.2714
     33  N         16.8050    3.2450   -5.9400 N.am  176  GLY176     -0.1954
     34  CA        15.4800    2.6920   -6.1460 C.3   176  GLY176      0.1869
     35  C         14.5240    3.6570   -6.8210 C.2   176  GLY176      0.2309
     36  O         14.6740    3.9740   -8.0010 O.2   176  GLY176     -0.2863
     37  N          8.3790   12.3390   -4.5360 N.3   194  TYR194     -0.1241
     38  CA         9.0060   11.2960   -3.7290 C.3   194  TYR194      0.1605
     39  C          8.6800   11.4770   -2.2510 C.2   194  TYR194      0.2264
     40  O          8.5360   10.5020   -1.5140 O.2   194  TYR194     -0.2867
     41  CB        10.5220   11.2970   -3.9290 C.3   194  TYR194      0.0534
     42  CG        11.2420   10.2220   -3.1520 C.ar  194  TYR194     -0.0201
     43  CD1       11.2860    8.9160   -3.6190 C.ar  194  TYR194     -0.0009
     44  CD2       11.8820   10.5130   -1.9530 C.ar  194  TYR194     -0.0009
     45  CE1       11.9430    7.9300   -2.9150 C.ar  194  TYR194      0.0417
     46  CE2       12.5440    9.5310   -1.2400 C.ar  194  TYR194      0.0417
     47  CZ        12.5700    8.2410   -1.7270 C.ar  194  TYR194      0.1957
     48  OH        13.2270    7.2570   -1.0240 O.3   194  TYR194     -0.2866
     49  N         11.5490    0.1250    4.7360 N.3   244  GLU244     -0.1231
     50  CA        12.7260    0.6740    4.0740 C.3   244  GLU244      0.1699
     51  C         13.1200   -0.1840    2.8730 C.2   244  GLU244      0.2592
     52  O         13.8380    0.2690    1.9820 O.2   244  GLU244     -0.2718
     53  CB        13.8950    0.7600    5.0590 C.3   244  GLU244      0.0402
     54  CG        14.9600    1.7800    4.6870 C.3   244  GLU244      0.1161
     55  CD        14.5700    3.1940    5.0710 C.2   244  GLU244      0.3649
     56  OE1       13.7970    3.3560    6.0370 O.co2 244  GLU244     -0.2457
     57  OE2       15.0340    4.1450    4.4080 O.co2 244  GLU244     -0.2457
     58  N         12.6440   -1.4270    2.8590 N.am  245  ARG245     -0.1980
     59  CA        12.9690   -2.3670    1.7900 C.3   245  ARG245      0.1597
     60  C         12.2980   -1.9600    0.4820 C.2   245  ARG245      0.2287
     61  O         12.8510   -2.1590   -0.6000 O.2   245  ARG245     -0.2864
     62  CB        12.5500   -3.7870    2.1800 C.3   245  ARG245      0.0334
     63  CG        13.1640   -4.8860    1.3230 C.3   245  ARG245      0.0492
     64  CD        14.6540   -5.0370    1.5940 C.3   245  ARG245      0.2205
     65  NE        15.2420   -6.1380    0.8360 N.pl3 245  ARG245     -0.0865
     66  CZ        16.5000   -6.5490    0.9690 C.cat 245  ARG245      0.5346
     67  NH1       17.3060   -5.9500    1.8350 N.pl3 245  ARG245      0.1354
     68  NH2       16.9510   -7.5590    0.2380 N.pl3 245  ARG245      0.1354
     69  N         11.7820    1.0600   -0.1580 N.3   247  ASP247     -0.1225
     70  CA        12.2370    2.4460   -0.2430 C.3   247  ASP247      0.1805
     71  C         11.2220    3.4440    0.3160 C.2   247  ASP247      0.2597
     72  O         10.5260    4.1310   -0.4330 O.2   247  ASP247     -0.2718
     73  CB        12.6290    2.8070   -1.6800 C.3   247  ASP247      0.1424
     74  CG        13.3590    4.1300   -1.7680 C.2   247  ASP247      0.3668
     75  OD1       14.6000    4.1390   -1.6360 O.co2 247  ASP247     -0.2456
     76  OD2       12.6910    5.1640   -1.9690 O.co2 247  ASP247     -0.2456
     77  N         11.1500    3.5080    1.6420 N.am  248  ALA248     -0.1979
     78  CA        10.3030    4.4680    2.3420 C.3   248  ALA248      0.1597
     79  C         10.7930    4.6240    3.7770 C.2   248  ALA248      0.2287
     80  O         11.4690    3.7420    4.3060 O.2   248  ALA248     -0.2864
     81  CB         8.8490    4.0210    2.3200 C.3   248  ALA248      0.0319
     82  N         31.6600    8.0090    1.6960 N.3   374  TYR374     -0.1241
     83  CA        31.3460    8.3060    0.3040 C.3   374  TYR374      0.1605
     84  C         31.7160    9.7510   -0.0180 C.2   374  TYR374      0.2264
     85  O         30.8690   10.6430    0.0330 O.2   374  TYR374     -0.2867
     86  CB        29.8600    8.0690    0.0220 C.3   374  TYR374      0.0534
     87  CG        29.3790    6.6750    0.3630 C.ar  374  TYR374     -0.0201
     88  CD1       30.2320    5.5810    0.2790 C.ar  374  TYR374     -0.0009
     89  CD2       28.0690    6.4540    0.7730 C.ar  374  TYR374     -0.0009
     90  CE1       29.7960    4.3070    0.5920 C.ar  374  TYR374      0.0417
     91  CE2       27.6220    5.1840    1.0880 C.ar  374  TYR374      0.0417
     92  CZ        28.4900    4.1140    0.9960 C.ar  374  TYR374      0.1957
     93  OH        28.0510    2.8470    1.3080 O.3   374  TYR374     -0.2866
@<TRIPOS>BOND
     1    36    35    2
     2    35    34    1
     3    34    33    1
     4    33    31   am
     5    31    30    1
     6    31    32    2
     7    30    29    1
     8    37    38    1
     9    28    27    2
    10     9    10    1
    11    10    11    1
    12    41    38    1
    13    41    42    1
    14    29    27   am
    15    27    26    1
    16    38    39    1
    17    43    42   ar
    18    43    45   ar
    19    42    44   ar
    20    12    11    2
    21    11    13   am
    22    45    47   ar
    23    26    25    1
    24    25    15   am
    25    39    40    2
    26    13    14    1
    27    76    74   ar
    28    44    46   ar
    29    74    73    1
    30    74    75   ar
    31    47    46   ar
    32    47    48    1
    33    73    70    1
    34    15    14    1
    35    15    16    2
    36    14    17    1
    37    61    60    2
    38    72    71    2
    39    70    69    1
    40    70    71    1
    41    84    85    2
    42    84    83    1
    43    86    83    1
    44    86    87    1
    45    17    18    1
    46    68    66    1
    47    88    87   ar
    48    88    90   ar
    49    83    82    1
    50    71    77   am
    51    87    89   ar
    52    60    59    1
    53    90    92   ar
    54    89    91   ar
    55    65    66    2
    56    65    64    1
    57    66    67    1
    58    92    91   ar
    59    92    93    1
    60    63    64    1
    61    63    62    1
    62    18    19   ar
    63    18    20   ar
    64    77    78    1
    65     4     3    2
    66    59    62    1
    67    59    58    1
    68    52    51    2
    69    19    21   ar
    70    20    22   ar
    71    81    78    1
    72    78    79    1
    73     3     2    1
    74    58    51   am
    75    51    50    1
    76    21    23   ar
    77    22    23   ar
    78     6     8    1
    79     6     5    1
    80     6     7    1
    81    79    80    2
    82     2     5    1
    83     2     1    1
    84    50    49    1
    85    50    53    1
    86    23    24    1
    87    57    55   ar
    88    54    53    1
    89    54    55    1
    90    55    56   ar
