@<TRIPOS>MOLECULE
tmp/4czaA00.pdb
 102 94 0 0 0
SMALL
GASTEIGER

@<TRIPOS>ATOM
      1  N         11.8230  -24.8550   23.9610 N.3    29  TYR29      -0.1241
      2  CA        12.2670  -23.7510   23.1160 C.3    29  TYR29       0.1605
      3  C         13.6730  -23.9520   22.5540 C.2    29  TYR29       0.2264
      4  O         14.0590  -23.2960   21.5870 O.2    29  TYR29      -0.2867
      5  CB        12.1710  -22.4180   23.8660 C.3    29  TYR29       0.0534
      6  CG        12.9150  -22.3840   25.1810 C.ar   29  TYR29      -0.0201
      7  CD1       14.2600  -22.0320   25.2320 C.ar   29  TYR29      -0.0009
      8  CD2       12.2700  -22.6920   26.3740 C.ar   29  TYR29      -0.0009
      9  CE1       14.9430  -21.9960   26.4310 C.ar   29  TYR29       0.0417
     10  CE2       12.9430  -22.6580   27.5790 C.ar   29  TYR29       0.0417
     11  CZ        14.2800  -22.3080   27.6020 C.ar   29  TYR29       0.1957
     12  OH        14.9580  -22.2740   28.7980 O.3    29  TYR29      -0.2866
     13  N         21.8610  -12.2390   31.5560 N.3    67  ILE67      -0.1245
     14  CA        21.1560  -13.4700   31.9100 C.3    67  ILE67       0.1561
     15  C         21.4890  -13.9370   33.3270 C.2    67  ILE67       0.2260
     16  O         20.5920  -14.2370   34.1100 O.2    67  ILE67      -0.2867
     17  CB        21.4610  -14.6030   30.9010 C.3    67  ILE67       0.0252
     18  CG1       20.6750  -14.3940   29.6060 C.3    67  ILE67       0.0019
     19  CG2       21.1360  -15.9660   31.4900 C.3    67  ILE67       0.0019
     20  CD1       20.9230  -15.4650   28.5610 C.3    67  ILE67       0.0001
     21  N         20.2480  -11.3270   35.9990 N.3    70  THR70      -0.1203
     22  CA        18.8110  -11.4820   36.1960 C.3    70  THR70       0.1994
     23  C         18.5130  -12.7610   36.9780 C.2    70  THR70       0.2617
     24  O         17.7080  -12.7610   37.9110 O.2    70  THR70      -0.2717
     25  CB        18.0560  -11.5030   34.8540 C.3    70  THR70       0.1784
     26  OG1       18.1000  -10.1990   34.2600 O.3    70  THR70      -0.2211
     27  CG2       16.6040  -11.9030   35.0610 C.3    70  THR70       0.0376
     28  N         19.1850  -13.8430   36.5940 N.am   71  GLU71      -0.1979
     29  CA        19.0120  -15.1500   37.2200 C.3    71  GLU71       0.1602
     30  C         19.3270  -15.1120   38.7140 C.2    71  GLU71       0.2287
     31  O         18.7580  -15.8770   39.4960 O.2    71  GLU71      -0.2864
     32  CB        19.9000  -16.1880   36.5240 C.3    71  GLU71       0.0415
     33  CG        19.6540  -17.6310   36.9460 C.3    71  GLU71       0.1163
     34  CD        20.6070  -18.6020   36.2730 C.2    71  GLU71       0.3649
     35  OE1       21.7030  -18.1690   35.8570 O.co2  71  GLU71      -0.2457
     36  OE2       20.2590  -19.7950   36.1520 O.co2  71  GLU71      -0.2457
     37  N         16.3820  -14.6280   41.1340 N.3    74  ASN74      -0.1240
     38  CA        15.5020  -15.7640   41.3810 C.3    74  ASN74       0.1653
     39  C         16.0560  -16.7380   42.4180 C.2    74  ASN74       0.2266
     40  O         15.7390  -17.9280   42.3960 O.2    74  ASN74      -0.2867
     41  CB        15.2020  -16.5040   40.0760 C.3    74  ASN74       0.1155
     42  CG        14.4360  -15.6500   39.0830 C.2    74  ASN74       0.2627
     43  OD1       14.3820  -14.4280   39.2100 O.2    74  ASN74      -0.2716
     44  ND2       13.8390  -16.2940   38.0850 N.am   74  ASN74      -0.0877
     45  N         20.5790  -25.8830   32.8690 N.3   127  ASP127     -0.1225
     46  CA        19.4690  -24.9660   32.6200 C.3   127  ASP127      0.1790
     47  C         18.1250  -25.6870   32.6990 C.2   127  ASP127      0.2440
     48  O         17.6510  -26.2340   31.7040 O.2   127  ASP127     -0.2733
     49  CB        19.6240  -24.2930   31.2520 C.3   127  ASP127      0.1423
     50  CG        18.5930  -23.2050   31.0150 C.2   127  ASP127      0.3668
     51  OD1       18.2140  -22.5180   31.9870 O.co2 127  ASP127     -0.2456
     52  OD2       18.1650  -23.0350   29.8530 O.co2 127  ASP127     -0.2456
     53  N         17.5040  -25.6800   33.8900 N.am  128  PRO128     -0.2718
     54  CA        16.2400  -26.3690   34.1600 C.3   128  PRO128      0.1535
     55  C         15.0250  -25.5310   33.7800 C.2   128  PRO128      0.2598
     56  O         13.9030  -25.8790   34.1460 O.2   128  PRO128     -0.2715
     57  CB        16.2760  -26.5490   35.6750 C.3   128  PRO128      0.0310
     58  CG        17.0030  -25.3430   36.1560 C.3   128  PRO128      0.0237
     59  CD        18.0340  -25.0240   35.0980 C.3   128  PRO128      0.0939
     60  N         15.2500  -24.4390   33.0550 N.am  129  ALA129     -0.1978
     61  CA        14.1620  -23.5670   32.6290 C.3   129  ALA129      0.1597
     62  C         13.2490  -24.2720   31.6310 C.2   129  ALA129      0.2287
     63  O         12.1040  -23.8680   31.4270 O.2   129  ALA129     -0.2864
     64  CB        14.7140  -22.2840   32.0350 C.3   129  ALA129      0.0319
     65  N         21.3950  -24.5200   39.5260 N.3   152  SER152     -0.1217
     66  CA        21.5770  -23.8630   38.2390 C.3   152  SER152      0.1889
     67  C         22.1550  -22.4650   38.4310 C.2   152  SER152      0.2288
     68  O         23.1650  -22.1050   37.8140 O.2   152  SER152     -0.2866
     69  CB        20.2500  -23.7840   37.4880 C.3   152  SER152      0.2089
     70  OG        20.4100  -23.1460   36.2330 O.3   152  SER152     -0.2183
     71  N         15.0410   -8.9220   32.8020 N.3   291  ASP291     -0.1239
     72  CA        14.6230  -10.2770   32.4570 C.3   291  ASP291      0.1674
     73  C         14.1390  -10.3170   31.0150 C.2   291  ASP291      0.2266
     74  O         14.2810  -11.3340   30.3350 O.2   291  ASP291     -0.2867
     75  CB        13.5200  -10.7760   33.3940 C.3   291  ASP291      0.1410
     76  CG        13.4840  -12.2880   33.5090 C.2   291  ASP291      0.3668
     77  OD1       13.9810  -12.9770   32.5920 O.co2 291  ASP291     -0.2456
     78  OD2       12.9560  -12.7890   34.5240 O.co2 291  ASP291     -0.2456
     79  N         17.2200  -10.5000   29.1290 N.3   294  ALA294     -0.1231
     80  CA        17.7560  -11.8470   29.2860 C.3   294  ALA294      0.1694
     81  C         17.0330  -12.8310   28.3710 C.2   294  ALA294      0.2591
     82  O         17.6320  -13.7800   27.8680 O.2   294  ALA294     -0.2718
     83  CB        17.6560  -12.2950   30.7350 C.3   294  ALA294      0.0304
     84  N         15.7380  -12.6050   28.1710 N.am  295  ALA295     -0.1980
     85  CA        14.9480  -13.4430   27.2790 C.3   295  ALA295      0.1597
     86  C         15.4100  -13.2520   25.8390 C.2   295  ALA295      0.2287
     87  O         15.6480  -14.2270   25.1160 O.2   295  ALA295     -0.2864
     88  CB        13.4710  -13.1190   27.4160 C.3   295  ALA295      0.0319
     89  N         18.6950  -14.8690   25.4060 N.3   298  THR298     -0.1218
     90  CA        18.5590  -16.3200   25.3410 C.3   298  THR298      0.1862
     91  C         18.1740  -16.7370   23.9280 C.2   298  THR298      0.2287
     92  O         18.7670  -17.6590   23.3470 O.2   298  THR298     -0.2866
     93  CB        17.4850  -16.8270   26.3160 C.3   298  THR298      0.1770
     94  OG1       17.7480  -16.3210   27.6310 O.3   298  THR298     -0.2211
     95  CG2       17.4710  -18.3460   26.3520 C.3   298  THR298      0.0375
     96  N         21.5450  -22.7930   28.0500 N.3   358  VAL358     -0.1245
     97  CA        22.0560  -21.5020   27.5830 C.3   358  VAL358      0.1561
     98  C         23.5760  -21.3400   27.6540 C.2   358  VAL358      0.2260
     99  O         24.2310  -21.1340   26.6310 O.2   358  VAL358     -0.2867
    100  CB        21.4030  -20.3390   28.3570 C.3   358  VAL358      0.0252
    101  CG1       21.6640  -19.0190   27.6500 C.3   358  VAL358      0.0019
    102  CG2       19.9150  -20.5760   28.4970 C.3   358  VAL358      0.0019
@<TRIPOS>BOND
     1     4     3    2
     2     3     2    1
     3     2     5    1
     4     2     1    1
     5    92    91    2
     6     5     6    1
     7    91    90    1
     8    87    86    2
     9     6     7   ar
    10     6     8   ar
    11     7     9   ar
    12    90    89    1
    13    90    93    1
    14    86    85    1
    15    93    95    1
    16    93    94    1
    17     8    10   ar
    18     9    11   ar
    19    99    98    2
    20    85    88    1
    21    85    84    1
    22    10    11   ar
    23    97    98    1
    24    97    96    1
    25    97   100    1
    26    11    12    1
    27   101   100    1
    28    82    81    2
    29    84    81   am
    30   100   102    1
    31    81    80    1
    32    20    18    1
    33    79    80    1
    34    80    83    1
    35    18    17    1
    36    52    50   ar
    37    74    73    2
    38    17    19    1
    39    17    14    1
    40    73    72    1
    41    50    49    1
    42    50    51   ar
    43    49    46    1
    44    63    62    2
    45    13    14    1
    46    62    61    1
    47    48    47    2
    48    14    15    1
    49    64    61    1
    50    72    71    1
    51    72    75    1
    52    77    76   ar
    53    46    47    1
    54    46    45    1
    55    61    60    1
    56    47    53   am
    57    60    55   am
    58    15    16    2
    59    75    76    1
    60    76    78   ar
    61    55    56    2
    62    55    54    1
    63    53    54    1
    64    53    59    1
    65    54    57    1
    66    26    25    1
    67    25    27    1
    68    25    22    1
    69    59    58    1
    70    57    58    1
    71    35    34   ar
    72    21    22    1
    73    36    34   ar
    74    22    23    1
    75    70    69    1
    76    34    33    1
    77    32    33    1
    78    32    29    1
    79    28    23   am
    80    28    29    1
    81    23    24    2
    82    29    30    1
    83    69    66    1
    84    68    67    2
    85    44    42   am
    86    66    67    1
    87    66    65    1
    88    30    31    2
    89    42    43    2
    90    42    41    1
    91    41    38    1
    92    37    38    1
    93    38    39    1
    94    40    39    2
