@<TRIPOS>MOLECULE
tmp/4czcA00.pdb
 131 124 0 0 0
SMALL
GASTEIGER

@<TRIPOS>ATOM
      1  N         93.4220   19.4040  117.5790 N.3    54  ILE54      -0.1245
      2  CA        93.9900   20.6320  117.1370 C.3    54  ILE54       0.1561
      3  C         94.5350   21.2290  118.4050 C.2    54  ILE54       0.2260
      4  O         93.7520   21.4840  119.3290 O.2    54  ILE54      -0.2867
      5  CB        92.9420   21.5410  116.5170 C.3    54  ILE54       0.0252
      6  CG1       92.8150   21.2710  115.0060 C.3    54  ILE54       0.0019
      7  CG2       93.3650   22.9940  116.6630 C.3    54  ILE54       0.0019
      8  CD1       92.3540   19.8850  114.5610 C.3    54  ILE54       0.0001
      9  N        106.3770   24.8550  107.6530 N.3    90  SER90      -0.1202
     10  CA       105.1000   24.2330  107.2720 C.3    90  SER90       0.2020
     11  C        104.7670   24.5720  105.8420 C.2    90  SER90       0.2618
     12  O        104.4320   23.6960  105.0670 O.2    90  SER90      -0.2717
     13  CB       103.9530   24.6820  108.2040 C.3    90  SER90       0.2103
     14  OG       103.9160   26.0940  108.3680 O.3    90  SER90      -0.2182
     15  N        104.8310   25.8520  105.5090 N.am   91  HIS91      -0.1975
     16  CA       104.5820   26.3270  104.1600 C.3    91  HIS91       0.1656
     17  C        105.8450   26.9520  103.5760 C.2    91  HIS91       0.2291
     18  O        106.6880   27.4720  104.3000 O.2    91  HIS91      -0.2864
     19  CB       103.4590   27.3430  104.1610 C.3    91  HIS91       0.0771
     20  CG       102.2190   26.8510  104.8260 C.ar   91  HIS91       0.0820
     21  ND1      101.2260   26.1890  104.1380 N.ar   91  HIS91      -0.2267
     22  CD2      101.8150   26.9030  106.1180 C.ar   91  HIS91       0.1154
     23  CE1      100.2650   25.8520  104.9770 C.ar   91  HIS91       0.1986
     24  NE2      100.6000   26.2740  106.1850 N.ar   91  HIS91      -0.2212
     25  N         96.0820   35.9570  113.3420 N.3   136  ARG136     -0.1245
     26  CA        94.7980   35.8330  112.6470 C.3   136  ARG136      0.1563
     27  C         93.6530   36.5190  113.3900 C.2   136  ARG136      0.2260
     28  O         93.8710   37.2150  114.3730 O.2   136  ARG136     -0.2867
     29  CB        94.4690   34.3550  112.3980 C.3   136  ARG136      0.0307
     30  CG        94.5760   33.4710  113.6220 C.3   136  ARG136      0.0489
     31  CD        93.4520   33.7230  114.6210 C.3   136  ARG136      0.2205
     32  NE        93.2620   32.5910  115.5330 N.pl3 136  ARG136     -0.0865
     33  CZ        92.3660   31.6190  115.3670 C.cat 136  ARG136      0.5346
     34  NH1       91.5510   31.6180  114.3180 N.pl3 136  ARG136      0.1354
     35  NH2       92.2860   30.6440  116.2590 N.pl3 136  ARG136      0.1354
     36  N         92.7030   22.7450  121.6610 N.3   193  ARG193     -0.1231
     37  CA        91.5330   23.5100  121.2590 C.3   193  ARG193      0.1694
     38  C         90.3410   22.5750  121.1710 C.2   193  ARG193      0.2591
     39  O         89.3070   22.7880  121.8150 O.2   193  ARG193     -0.2718
     40  CB        91.7440   24.1820  119.9060 C.3   193  ARG193      0.0321
     41  CG        92.5360   25.4790  119.9080 C.3   193  ARG193      0.0489
     42  CD        92.1250   26.2800  118.6680 C.3   193  ARG193      0.2205
     43  NE        92.9040   27.5050  118.4920 N.pl3 193  ARG193     -0.0865
     44  CZ        93.8660   27.6850  117.5810 C.cat 193  ARG193      0.5346
     45  NH1       94.1940   26.7230  116.7050 N.pl3 193  ARG193      0.1354
     46  NH2       94.5130   28.8490  117.5420 N.pl3 193  ARG193      0.1354
     47  N         90.4990   21.5270  120.3740 N.am  194  ARG194     -0.1980
     48  CA        89.4190   20.6230  120.0980 C.3   194  ARG194      0.1597
     49  C         89.9700   19.3720  119.4170 C.2   194  ARG194      0.2287
     50  O         91.1250   19.3390  118.9960 O.2   194  ARG194     -0.2864
     51  CB        88.4540   21.3210  119.1580 C.3   194  ARG194      0.0334
     52  CG        89.1440   21.6980  117.8490 C.3   194  ARG194      0.0492
     53  CD        88.5590   22.9300  117.1900 C.3   194  ARG194      0.2205
     54  NE        87.1890   22.6330  116.8650 N.pl3 194  ARG194     -0.0865
     55  CZ        86.7800   22.0610  115.7380 C.cat 194  ARG194      0.5346
     56  NH1       87.6430   21.7320  114.7740 N.pl3 194  ARG194      0.1354
     57  NH2       85.4780   21.8200  115.5810 N.pl3 194  ARG194      0.1354
     58  N         95.0230   27.3910   93.1820 N.3   199  VAL199     -0.1245
     59  CA        94.2850   27.9390   92.0540 C.3   199  VAL199      0.1561
     60  C         95.0490   29.1280   91.4730 C.2   199  VAL199      0.2260
     61  O         95.9230   28.9690   90.6310 O.2   199  VAL199     -0.2867
     62  CB        92.8600   28.3780   92.4670 C.3   199  VAL199      0.0252
     63  CG1       91.9220   28.2930   91.2710 C.3   199  VAL199      0.0019
     64  CG2       92.3460   27.5440   93.6320 C.3   199  VAL199      0.0019
     65  N         96.6370   32.5390   93.5160 N.3   201  ASN201     -0.1240
     66  CA        96.6490   32.8940   94.9150 C.3   201  ASN201      0.1653
     67  C         97.6150   34.0220   95.1780 C.2   201  ASN201      0.2266
     68  O         98.6800   34.1050   94.5590 O.2   201  ASN201     -0.2867
     69  CB        97.0100   31.6750   95.7660 C.3   201  ASN201      0.1155
     70  CG        95.9620   30.5730   95.6980 C.2   201  ASN201      0.2627
     71  OD1       95.0740   30.4930   96.5450 O.2   201  ASN201     -0.2716
     72  ND2       96.0520   29.7270   94.6840 N.am  201  ASN201     -0.0877
     73  N         87.1360   40.5270  105.2220 N.3   220  ALA220     -0.1245
     74  CA        86.7170   39.1650  105.5970 C.3   220  ALA220      0.1562
     75  C         85.3430   38.7780  105.0400 C.2   220  ALA220      0.2260
     76  O         85.0070   37.5970  104.9950 O.2   220  ALA220     -0.2867
     77  CB        86.7150   39.0090  107.1090 C.3   220  ALA220      0.0290
     78  N         88.6710   36.2370   99.4600 N.3   225  VAL225     -0.1231
     79  CA        89.4480   36.5190  100.6520 C.3   225  VAL225      0.1692
     80  C         89.1600   35.4390  101.6720 C.2   225  VAL225      0.2593
     81  O         88.0000   35.2510  102.0670 O.2   225  VAL225     -0.2718
     82  CB        89.0350   37.8610  101.2730 C.3   225  VAL225      0.0266
     83  CG1       89.7370   38.0770  102.6030 C.3   225  VAL225      0.0020
     84  CG2       89.3350   38.9900  100.3080 C.3   225  VAL225      0.0020
     85  N         90.2190   34.7750  102.1430 N.am  226  SER226     -0.1938
     86  CA        90.0890   33.7460  103.1900 C.3   226  SER226      0.2055
     87  C         90.3300   34.1230  104.6660 C.2   226  SER226      0.2643
     88  O         89.3840   34.3030  105.4320 O.2   226  SER226     -0.2714
     89  CB        91.0280   32.6020  102.8890 C.3   226  SER226      0.2130
     90  OG        92.3310   33.0760  102.6450 O.3   226  SER226     -0.2179
     91  N         91.5860   34.1770  105.0840 N.am  227  HIS227     -0.1973
     92  CA        91.8740   34.6010  106.4390 C.3   227  HIS227      0.1656
     93  C         92.5070   35.9930  106.3890 C.2   227  HIS227      0.2291
     94  O         93.1580   36.3440  105.3990 O.2   227  HIS227     -0.2864
     95  CB        92.7510   33.5880  107.1900 C.3   227  HIS227      0.0771
     96  CG        92.1120   32.2660  107.3650 C.ar  227  HIS227      0.0820
     97  ND1       91.0360   32.0680  108.1960 N.ar  227  HIS227     -0.2267
     98  CD2       92.3970   31.0750  106.8060 C.ar  227  HIS227      0.1154
     99  CE1       90.6850   30.8020  108.1400 C.ar  227  HIS227      0.1986
    100  NE2       91.4950   30.1780  107.3050 N.ar  227  HIS227     -0.2212
    101  N         95.0930   38.6640  108.7140 N.3   229  TYR229     -0.1241
    102  CA        96.1260   38.6950  109.7690 C.3   229  TYR229      0.1605
    103  C         96.6850   40.0960  110.0240 C.2   229  TYR229      0.2264
    104  O         96.7020   40.9190  109.1230 O.2   229  TYR229     -0.2867
    105  CB        97.3010   37.8060  109.4010 C.3   229  TYR229      0.0534
    106  CG        96.9380   36.4440  108.9200 C.ar  229  TYR229     -0.0201
    107  CD1       96.5390   36.2370  107.6090 C.ar  229  TYR229     -0.0009
    108  CD2       97.0430   35.3500  109.7600 C.ar  229  TYR229     -0.0009
    109  CE1       96.2450   34.9790  107.1540 C.ar  229  TYR229      0.0417
    110  CE2       96.7430   34.0760  109.3130 C.ar  229  TYR229      0.0417
    111  CZ        96.3390   33.8990  108.0150 C.ar  229  TYR229      0.1957
    112  OH        96.0240   32.6410  107.5650 O.3   229  TYR229     -0.2866
    113  N         92.5770   34.6530   96.7620 N.3   244  HIS244     -0.1241
    114  CA        92.5940   33.6600   95.6950 C.3   244  HIS244      0.1621
    115  C         91.5350   33.9540   94.6300 C.2   244  HIS244      0.2264
    116  O         90.5550   34.6620   94.8840 O.2   244  HIS244     -0.2867
    117  CB        92.3350   32.2750   96.2820 C.3   244  HIS244      0.0745
    118  CG        91.0470   32.1770   97.0380 C.ar  244  HIS244      0.0817
    119  ND1       89.8160   32.3110   96.4320 N.ar  244  HIS244     -0.2268
    120  CD2       90.7990   31.9520   98.3500 C.ar  244  HIS244      0.1154
    121  CE1       88.8640   32.1770   97.3390 C.ar  244  HIS244      0.1986
    122  NE2       89.4340   31.9590   98.5110 N.ar  244  HIS244     -0.2212
    123  N        103.5990   22.2090  101.4600 N.3   278  LYS278     -0.1245
    124  CA       102.4030   22.4980  102.2360 C.3   278  LYS278      0.1561
    125  C        102.0450   21.3010  103.1130 C.2   278  LYS278      0.2260
    126  O        101.0840   20.5890  102.8270 O.2   278  LYS278     -0.2867
    127  CB       101.2450   22.8260  101.2830 C.3   278  LYS278      0.0271
    128  CG        99.9870   23.3450  101.9660 C.3   278  LYS278      0.0035
    129  CD        98.7730   23.2890  101.0310 C.3   278  LYS278      0.0206
    130  CE        97.6880   24.3000  101.4010 C.3   278  LYS278      0.1093
    131  NZ        97.4550   24.4590  102.8740 N.3   278  LYS278     -0.1314
@<TRIPOS>BOND
     1    61    60    2
     2    63    62    1
     3    60    59    1
     4    59    62    1
     5    59    58    1
     6    62    64    1
     7    65    66    1
     8    68    67    2
     9   115   116    2
    10   115   114    1
    11    72    70   am
    12    66    67    1
    13    66    69    1
    14   114   117    1
    15   114   113    1
    16    70    69    1
    17    70    71    2
    18   117   118    1
    19   119   118   ar
    20   119   121   ar
    21   118   120   ar
    22   121   122   ar
    23   120   122   ar
    24    78    79    1
    25    84    82    1
    26    79    82    1
    27    79    80    1
    28   129   130    1
    29   129   128    1
    30    82    83    1
    31   127   128    1
    32   127   124    1
    33   130   131    1
    34   123   124    1
    35    80    81    2
    36    80    85   am
    37    85    86    1
    38   124   125    1
    39    90    89    1
    40   126   125    2
    41    89    86    1
    42    86    87    1
    43    17    16    1
    44    17    18    2
    45    21    20   ar
    46    21    23   ar
    47    16    19    1
    48    16    15    1
    49    19    20    1
    50    87    91   am
    51    87    88    2
    52    20    22   ar
    53    23    24   ar
    54    76    75    2
    55    75    74    1
    56    12    11    2
    57    91    92    1
    58    73    74    1
    59    94    93    2
    60    15    11   am
    61    74    77    1
    62    11    10    1
    63    22    24   ar
    64    93    92    1
    65    92    95    1
    66    98   100   ar
    67    98    96   ar
    68   109   107   ar
    69   109   111   ar
    70    95    96    1
    71    10     9    1
    72    10    13    1
    73   100    99   ar
    74    96    97   ar
    75   112   111    1
    76   107   106   ar
    77   111   110   ar
    78    99    97   ar
    79    13    14    1
    80   101   102    1
    81   106   105    1
    82   106   108   ar
    83   104   103    2
    84   110   108   ar
    85   105   102    1
    86   102   103    1
    87    29    26    1
    88    29    30    1
    89    26    25    1
    90    26    27    1
    91    27    28    2
    92    30    31    1
    93    34    33    1
    94     8     6    1
    95    31    32    1
    96    56    55    1
    97     6     5    1
    98    33    32    2
    99    33    35    1
   100    57    55    1
   101    55    54    2
   102     5     7    1
   103     5     2    1
   104    45    44    1
   105    54    53    1
   106     2     1    1
   107     2     3    1
   108    53    52    1
   109    46    44    1
   110    44    43    2
   111    52    51    1
   112     3     4    2
   113    43    42    1
   114    42    41    1
   115    50    49    2
   116    51    48    1
   117    49    48    1
   118    40    41    1
   119    40    37    1
   120    48    47    1
   121    47    38   am
   122    38    37    1
   123    38    39    2
   124    37    36    1
