@<TRIPOS>MOLECULE
tmp/4czfA00.pdb
 163 149 0 0 0
SMALL
GASTEIGER

@<TRIPOS>ATOM
      1  N          6.7510   13.8990    6.3710 N.3     8  ASP8       -0.1239
      2  CA         6.6070   13.1350    7.6200 C.3     8  ASP8        0.1674
      3  C          7.8290   13.4700    8.4500 C.2     8  ASP8        0.2266
      4  O          8.9150   12.9600    8.1850 O.2     8  ASP8       -0.2867
      5  CB         6.5760   11.6290    7.3150 C.3     8  ASP8        0.1410
      6  CG         6.6720   10.7890    8.5860 C.2     8  ASP8        0.3668
      7  OD1        6.6330   11.3730    9.6780 O.co2   8  ASP8       -0.2456
      8  OD2        6.7450    9.5490    8.4570 O.co2   8  ASP8       -0.2456
      9  N          9.5440   12.7710   11.2870 N.3    10  GLY10      -0.1210
     10  CA         9.5850   11.7070   12.2980 C.3    10  GLY10       0.1956
     11  C         10.6430   11.9050   13.3590 C.2    10  GLY10       0.2613
     12  O         11.6430   12.6010   13.1520 O.2    10  GLY10      -0.2717
     13  N         10.4380   11.2620   14.5090 N.am   11  THR11      -0.1938
     14  CA        11.4560   11.3110   15.5300 C.3    11  THR11       0.2028
     15  C         12.7500   10.6610   15.0840 C.2    11  THR11       0.2642
     16  O         13.8210   11.0700   15.5390 O.2    11  THR11      -0.2714
     17  CB        10.9690   10.5870   16.8100 C.3    11  THR11       0.1808
     18  OG1       10.8110    9.1820   16.5620 O.3    11  THR11      -0.2208
     19  CG2        9.6090   11.1950   17.2310 C.3    11  THR11       0.0379
     20  N         12.6540    9.6740   14.2260 N.am   12  ALA12      -0.1963
     21  CA        13.7880    8.8680   13.7870 C.3    12  ALA12       0.1728
     22  C         14.0720    9.0620   12.2940 C.2    12  ALA12       0.2616
     23  O         15.2300    9.0500   11.8940 O.2    12  ALA12      -0.2715
     24  CB        13.5090    7.3990   14.0370 C.3    12  ALA12       0.0334
     25  N         13.0120    9.1490   11.4640 N.am   13  ASN13      -0.1972
     26  CA        13.1760    9.3100   10.0250 C.3    13  ASN13       0.1688
     27  C         12.3160   10.4400    9.5410 C.2    13  ASN13       0.2292
     28  O         11.2050   10.5750   10.0440 O.2    13  ASN13      -0.2864
     29  CB        12.7160    8.0200    9.3070 C.3    13  ASN13       0.1181
     30  CG        13.5840    6.8280    9.7380 C.2    13  ASN13       0.2629
     31  OD1       14.7840    6.7880    9.3850 O.2    13  ASN13      -0.2716
     32  ND2       13.0440    5.8960   10.5850 N.am   13  ASN13      -0.0877
     33  N         10.4630   11.7110    5.9460 N.3    15  LEU15      -0.1245
     34  CA        10.1520   11.3160    4.5740 C.3    15  LEU15       0.1561
     35  C          9.4950   12.4960    3.9300 C.2    15  LEU15       0.2260
     36  O          8.7520   13.2450    4.5900 O.2    15  LEU15      -0.2867
     37  CB         9.2150   10.1160    4.4930 C.3    15  LEU15       0.0270
     38  CG         9.8510    8.7650    4.7750 C.3    15  LEU15       0.0019
     39  CD1        9.9950    8.5640    6.3230 C.3    15  LEU15       0.0001
     40  CD2        8.9000    7.6930    4.2330 C.3    15  LEU15       0.0001
     41  N          0.0290   12.9370   13.5150 N.3   128  GLU128     -0.1245
     42  CA         0.5740   11.6170   13.1980 C.3   128  GLU128      0.1567
     43  C         -0.4740   10.4990   12.9960 C.2   128  GLU128      0.2260
     44  O         -0.4830    9.8420   11.9740 O.2   128  GLU128     -0.2867
     45  CB         1.5960   11.1990   14.2850 C.3   128  GLU128      0.0388
     46  CG         2.2170    9.8150   14.0780 C.3   128  GLU128      0.1160
     47  CD         3.5000    9.8600   13.2900 C.2   128  GLU128      0.3649
     48  OE1        3.8760   10.9780   12.8260 O.co2 128  GLU128     -0.2457
     49  OE2        4.0830    8.7890   13.0510 O.co2 128  GLU128     -0.2457
     50  N          0.4190    3.5000   15.9180 N.3   150  ASP150     -0.1239
     51  CA         1.6100    3.8580   15.1050 C.3   150  ASP150      0.1674
     52  C          2.8420    3.8420   16.0140 C.2   150  ASP150      0.2266
     53  O          2.9920    4.7470   16.8720 O.2   150  ASP150     -0.2867
     54  CB         1.3320    5.2450   14.5150 C.3   150  ASP150      0.1410
     55  CG         2.5180    5.8980   13.8240 C.2   150  ASP150      0.3668
     56  OD1        3.6050    5.3430   13.7840 O.co2 150  ASP150     -0.2456
     57  OD2        2.3680    7.0820   13.4490 O.co2 150  ASP150     -0.2456
     58  N          6.5050    4.4610   16.4700 N.3   152  GLY152     -0.1210
     59  CA         7.6410    5.1780   15.8420 C.3   152  GLY152      0.1956
     60  C          8.8790    5.0170   16.6910 C.2   152  GLY152      0.2612
     61  O          9.0350    4.0300   17.4290 O.2   152  GLY152     -0.2717
     62  N          9.7990    5.9540   16.5220 N.am  153  GLY153     -0.1956
     63  CA        11.0500    5.8900   17.2900 C.3   153  GLY153      0.1869
     64  C         10.8410    6.3350   18.7110 C.2   153  GLY153      0.2309
     65  O         11.0420    5.5510   19.6590 O.2   153  GLY153     -0.2863
     66  N          7.9650    7.6540   20.0210 N.3   155  THR155     -0.1218
     67  CA         6.5870    7.5990   20.5400 C.3   155  THR155      0.1862
     68  C          5.7790    6.4660   19.9310 C.2   155  THR155      0.2287
     69  O          6.1320    5.9660   18.8660 O.2   155  THR155     -0.2866
     70  CB         5.7700    8.8390   20.1550 C.3   155  THR155      0.1770
     71  OG1        5.6960    8.9260   18.7150 O.3   155  THR155     -0.2211
     72  CG2        6.4180   10.1330   20.6930 C.3   155  THR155      0.0375
     73  N         10.4300    2.5050   19.3790 N.3   176  GLY176     -0.1210
     74  CA        11.6890    1.8600   19.0280 C.3   176  GLY176      0.1956
     75  C         12.8830    2.3540   19.8240 C.2   176  GLY176      0.2611
     76  O         13.7570    1.5030   20.0870 O.2   176  GLY176     -0.2717
     77  N         12.9380    3.6070   20.2710 N.am  177  ASP177     -0.1973
     78  CA        14.1140    4.0340   21.0510 C.3   177  ASP177      0.1709
     79  C         14.1280    3.2900   22.3940 C.2   177  ASP177      0.2293
     80  O         15.2020    2.8310   22.8760 O.2   177  ASP177     -0.2864
     81  CB        14.1480    5.5450   21.3110 C.3   177  ASP177      0.1436
     82  CG        14.3500    6.3560   20.0340 C.2   177  ASP177      0.3671
     83  OD1       14.9970    5.8440   19.0940 O.co2 177  ASP177     -0.2456
     84  OD2       13.8970    7.5140   20.0430 O.co2 177  ASP177     -0.2456
     85  N         12.9410    0.4250   23.0590 N.3   179  MET179     -0.1230
     86  CA        13.2660   -0.9800   22.7590 C.3   179  MET179      0.1702
     87  C         14.8000   -1.0540   22.6520 C.2   179  MET179      0.2592
     88  O         15.4390   -1.9240   23.2710 O.2   179  MET179     -0.2718
     89  CB        12.6040   -1.4780   21.4650 C.3   179  MET179      0.0401
     90  CG        11.0560   -1.4820   21.5430 C.3   179  MET179      0.0596
     91  SD        10.5040   -2.2080   20.0090 S.3   179  MET179     -0.1393
     92  CE         8.7370   -1.9210   20.2140 C.3   179  MET179      0.0692
     93  N         15.3900   -0.1470   21.8760 N.am  180  ASP180     -0.1974
     94  CA        16.8760   -0.1120   21.8050 C.3   180  ASP180      0.1709
     95  C         17.5340    0.0370   23.1880 C.2   180  ASP180      0.2293
     96  O         18.5430   -0.6320   23.4730 O.2   180  ASP180     -0.2864
     97  CB        17.3620    1.0360   20.9160 C.3   180  ASP180      0.1436
     98  CG        16.9230    0.9020   19.4630 C.2   180  ASP180      0.3671
     99  OD1       16.4380   -0.1750   19.0580 O.co2 180  ASP180     -0.2456
    100  OD2       17.0730    1.9670   18.7320 O.co2 180  ASP180     -0.2456
    101  N         20.0360   -1.2590   17.7700 N.3   201  GLU201     -0.1245
    102  CA        18.9790   -1.3210   16.7360 C.3   201  GLU201      0.1567
    103  C         19.1820   -2.5420   15.8630 C.2   201  GLU201      0.2260
    104  O         18.2280   -3.2210   15.4570 O.2   201  GLU201     -0.2867
    105  CB        19.0080   -0.0400   15.8960 C.3   201  GLU201      0.0388
    106  CG        17.9060   -0.0040   14.8220 C.3   201  GLU201      0.1160
    107  CD        17.9150    1.2730   14.0130 C.2   201  GLU201      0.3649
    108  OE1       18.9970    1.8900   13.7920 O.co2 201  GLU201     -0.2457
    109  OE2       16.8120    1.6410   13.5680 O.co2 201  GLU201     -0.2457
    110  N         17.8560   -5.5540   17.7090 N.3   204  LYS204     -0.1231
    111  CA        16.4010   -5.4640   17.6760 C.3   204  LYS204      0.1693
    112  C         15.8360   -5.9850   16.3650 C.2   204  LYS204      0.2591
    113  O         14.8350   -6.7100   16.3550 O.2   204  LYS204     -0.2718
    114  CB        15.9750   -3.9920   17.8430 C.3   204  LYS204      0.0285
    115  CG        14.4350   -3.8210   17.9900 C.3   204  LYS204      0.0035
    116  CD        14.1240   -2.4050   18.2550 C.3   204  LYS204      0.0206
    117  CE        14.5310   -1.5020   17.0150 C.3   204  LYS204      0.1093
    118  NZ        14.3490   -0.0660   17.3380 N.3   204  LYS204     -0.1314
    119  N         16.4140   -5.5550   15.2580 N.am  205  LYS205     -0.1980
    120  CA        15.8570   -5.9440   13.9580 C.3   205  LYS205      0.1596
    121  C         16.1440   -7.3950   13.6250 C.2   205  LYS205      0.2287
    122  O         15.2950   -8.0820   13.0700 O.2   205  LYS205     -0.2864
    123  CB        16.4500   -5.0700   12.8730 C.3   205  LYS205      0.0298
    124  CG        16.0360   -3.5840   12.9650 C.3   205  LYS205      0.0038
    125  CD        16.6680   -2.7870   11.7750 C.3   205  LYS205      0.0206
    126  CE        16.1710   -1.3500   11.7550 C.3   205  LYS205      0.1093
    127  NZ        16.8940   -0.5140   10.7250 N.3   205  LYS205     -0.1314
    128  N          4.0440    2.2750   11.3390 N.3   278  GLY278     -0.1210
    129  CA         5.3140    2.7770   11.9020 C.3   278  GLY278      0.1956
    130  C          6.3460    1.6730   11.8930 C.2   278  GLY278      0.2612
    131  O          6.0140    0.4840   11.7920 O.2   278  GLY278     -0.2717
    132  N          7.6150    2.0340   12.0580 N.am  279  GLY279     -0.1942
    133  CA         8.6870    1.0390   12.0380 C.3   279  GLY279      0.2014
    134  C          8.5920    0.0280   13.1590 C.2   279  GLY279      0.2639
    135  O          9.0040   -1.1120   12.9840 O.2   279  GLY279     -0.2714
    136  N          8.0420    0.4380   14.2900 N.am  280  GLY280     -0.1954
    137  CA         7.9590   -0.4730   15.4360 C.3   280  GLY280      0.1869
    138  C          6.9680   -1.6080   15.1600 C.2   280  GLY280      0.2309
    139  O          7.0040   -2.6410   15.8220 O.2   280  GLY280     -0.2863
    140  N          7.1130   -3.4450   12.8050 N.3   282  LEU282     -0.1231
    141  CA         7.9240   -4.5300   12.2170 C.3   282  LEU282      0.1693
    142  C          8.5450   -5.4380   13.3030 C.2   282  LEU282      0.2591
    143  O          9.0960   -6.4900   12.9700 O.2   282  LEU282     -0.2718
    144  CB         9.0300   -3.9840   11.3150 C.3   282  LEU282      0.0284
    145  CG         8.5570   -3.2120   10.0940 C.3   282  LEU282      0.0019
    146  CD1        9.6220   -2.3450    9.4580 C.3   282  LEU282      0.0001
    147  CD2        7.9530   -4.2070    9.1150 C.3   282  LEU282      0.0001
    148  N          8.4390   -5.0480   14.5710 N.am  283  LEU283     -0.1980
    149  CA         8.9450   -5.9170   15.6440 C.3   283  LEU283      0.1596
    150  C          8.2420   -7.2720   15.5460 C.2   283  LEU283      0.2287
    151  O          6.9950   -7.3730   15.5730 O.2   283  LEU283     -0.2864
    152  CB         8.6710   -5.3330   17.0450 C.3   283  LEU283      0.0297
    153  CG         9.2260   -6.2420   18.1550 C.3   283  LEU283      0.0022
    154  CD1       10.7540   -6.3390   18.0960 C.3   283  LEU283      0.0001
    155  CD2        8.7820   -5.7070   19.5150 C.3   283  LEU283      0.0001
    156  N          6.6590    1.6470    7.4860 N.3   305  LEU305     -0.1245
    157  CA         7.5080    2.8590    7.6510 C.3   305  LEU305      0.1561
    158  C          7.0160    4.0280    6.8090 C.2   305  LEU305      0.2260
    159  O          7.3320    5.1830    7.1200 O.2   305  LEU305     -0.2867
    160  CB         8.9670    2.5540    7.2530 C.3   305  LEU305      0.0270
    161  CG         9.7530    1.6750    8.2300 C.3   305  LEU305      0.0019
    162  CD1       10.9220    0.8800    7.5400 C.3   305  LEU305      0.0001
    163  CD2       10.2720    2.5880    9.3230 C.3   305  LEU305      0.0001
@<TRIPOS>BOND
     1    35    34    1
     2    35    36    2
     3    40    38    1
     4    37    34    1
     5    37    38    1
     6    34    33    1
     7    38    39    1
     8     1     2    1
     9   158   159    2
    10   158   157    1
    11   160   157    1
    12   160   161    1
    13     5     2    1
    14     5     6    1
    15   156   157    1
    16   162   161    1
    17     2     3    1
    18     4     3    2
    19   161   163    1
    20     8     6   ar
    21     6     7   ar
    22   147   145    1
    23    29    30    1
    24    29    26    1
    25    31    30    2
    26   146   145    1
    27    27    26    1
    28    27    28    2
    29    30    32   am
    30    26    25    1
    31   145   144    1
    32   127   126    1
    33     9    10    1
    34   144   141    1
    35   128   129    1
    36    25    22   am
    37   126   125    1
    38   125   124    1
    39   131   130    2
    40   130   129    1
    41   130   132   am
    42    23    22    2
    43    44    43    2
    44   133   132    1
    45   133   134    1
    46   141   140    1
    47   141   142    1
    48    22    21    1
    49    10    11    1
    50    48    47   ar
    51   123   124    1
    52   123   120    1
    53   143   142    2
    54   135   134    2
    55    43    42    1
    56    49    47   ar
    57   122   121    2
    58    12    11    2
    59   134   136   am
    60    42    41    1
    61    42    45    1
    62    47    46    1
    63   142   148   am
    64    11    13   am
    65    57    55   ar
    66   109   107   ar
    67   121   120    1
    68    56    55   ar
    69    21    24    1
    70    21    20    1
    71   108   107   ar
    72    55    54    1
    73   120   119    1
    74   107   106    1
    75    46    45    1
    76    20    15   am
    77   136   137    1
    78    13    14    1
    79    54    51    1
    80   148   149    1
    81   106   105    1
    82    15    14    1
    83    15    16    2
    84    51    50    1
    85    51    52    1
    86   138   137    1
    87   138   139    2
    88   119   112   am
    89   104   103    2
    90    14    17    1
    91   150   151    2
    92   150   149    1
    93   149   152    1
    94    59    58    1
    95    59    60    1
    96   103   102    1
    97   105   102    1
    98    52    53    2
    99   113   112    2
   100   112   111    1
   101    62    60   am
   102    62    63    1
   103    18    17    1
   104    60    61    2
   105   102   101    1
   106    17    19    1
   107   117   118    1
   108   117   116    1
   109   152   153    1
   110    63    64    1
   111   111   110    1
   112   111   114    1
   113   114   115    1
   114   115   116    1
   115   154   153    1
   116   153   155    1
   117    64    65    2
   118    71    70    1
   119   100    98   ar
   120    69    68    2
   121    74    73    1
   122    74    75    1
   123    99    98   ar
   124    83    82   ar
   125    98    97    1
   126    75    76    2
   127    75    77   am
   128    68    67    1
   129    91    92    1
   130    91    90    1
   131    66    67    1
   132    82    84   ar
   133    82    81    1
   134    70    67    1
   135    70    72    1
   136    77    78    1
   137    97    94    1
   138    78    81    1
   139    78    79    1
   140    89    90    1
   141    89    86    1
   142    94    93    1
   143    94    95    1
   144    93    87   am
   145    79    80    2
   146    87    86    1
   147    87    88    2
   148    86    85    1
   149    95    96    2
