@<TRIPOS>MOLECULE
tmp/4czhA00.pdb
 131 122 0 0 0
SMALL
GASTEIGER

@<TRIPOS>ATOM
      1  N          7.1770   14.0730    9.4010 N.3     9  LEU9       -0.1231
      2  CA         8.3210   14.4900   10.2110 C.3     9  LEU9        0.1693
      3  C          8.3760   13.5850   11.4290 C.2     9  LEU9        0.2593
      4  O          7.8840   13.9200   12.5040 O.2     9  LEU9       -0.2718
      5  CB         8.0800   15.9310   10.6380 C.3     9  LEU9        0.0284
      6  CG         9.2330   16.7520   11.1130 C.3     9  LEU9        0.0019
      7  CD1       10.2600   16.9080    9.9640 C.3     9  LEU9        0.0001
      8  CD2        8.6440   18.0930   11.5360 C.3     9  LEU9        0.0001
      9  N          8.9310   12.3970   11.2370 N.am   10  GLY10      -0.1942
     10  CA         8.8530   11.3910   12.2780 C.3    10  GLY10       0.2014
     11  C          9.9380   11.4960   13.3480 C.2    10  GLY10       0.2639
     12  O         10.9480   12.1880   13.1640 O.2    10  GLY10      -0.2714
     13  N          9.7000   10.8360   14.4820 N.am   11  THR11      -0.1950
     14  CA        10.6480   10.8450   15.5930 C.3    11  THR11       0.1897
     15  C         11.9660   10.2400   15.1760 C.2    11  THR11       0.2313
     16  O         12.9760   10.5460   15.7650 O.2    11  THR11      -0.2863
     17  CB        10.1540   10.0320   16.8240 C.3    11  THR11       0.1794
     18  OG1       10.0750    8.6330   16.4880 O.3    11  THR11      -0.2208
     19  CG2        8.7550   10.5450   17.3220 C.3    11  THR11       0.0378
     20  N         13.4020   15.2330   17.3750 N.3    66  MET66      -0.1245
     21  CA        11.9650   14.8740   17.5590 C.3    66  MET66       0.1570
     22  C         11.8810   13.5460   18.3090 C.2    66  MET66       0.2261
     23  O         10.8620   12.8920   18.2760 O.2    66  MET66      -0.2867
     24  CB        11.3090   14.6410   16.1870 C.3    66  MET66       0.0387
     25  CG        11.4920   15.7110   15.1710 C.3    66  MET66       0.0595
     26  SD        10.4630   17.0770   15.6250 S.3    66  MET66      -0.1393
     27  CE        10.5570   18.0810   14.1470 C.3    66  MET66       0.0692
     28  N          8.7900   12.4290   20.3770 N.3    69  GLY69      -0.1210
     29  CA         7.4510   12.8150   19.8990 C.3    69  GLY69       0.1956
     30  C          7.0880   14.2780   20.2110 C.2    69  GLY69       0.2612
     31  O          5.9380   14.7190   19.9850 O.2    69  GLY69      -0.2717
     32  N          8.0540   14.9890   20.7840 N.am   70  VAL70      -0.1965
     33  CA         7.9690   16.4190   21.0130 C.3    70  VAL70       0.1727
     34  C          9.1910   17.0970   20.3770 C.2    70  VAL70       0.2616
     35  O         10.2250   16.4510   20.1130 O.2    70  VAL70      -0.2715
     36  CB         7.9580   16.8110   22.5000 C.3    70  VAL70       0.0290
     37  CG1        6.7100   16.2370   23.1840 C.3    70  VAL70       0.0023
     38  CG2        9.2610   16.4340   23.2190 C.3    70  VAL70       0.0023
     39  N          9.0670   18.3820   20.0690 N.am   71  ILE71      -0.1977
     40  CA        10.2330   19.1050   19.5320 C.3    71  ILE71       0.1596
     41  C         11.1800   19.4020   20.6940 C.2    71  ILE71       0.2287
     42  O         10.8490   20.1830   21.5930 O.2    71  ILE71      -0.2864
     43  CB         9.7950   20.3980   18.8150 C.3    71  ILE71       0.0276
     44  CG1        8.8110   20.0240   17.6940 C.3    71  ILE71       0.0022
     45  CG2       11.0620   21.1950   18.3070 C.3    71  ILE71       0.0022
     46  CD1        8.3210   21.2230   16.9000 C.3    71  ILE71       0.0001
     47  N          2.1560   19.1650    6.3580 N.3   101  VAL101     -0.1231
     48  CA         2.9100   18.3910    7.3510 C.3   101  VAL101      0.1692
     49  C          1.9910   17.6540    8.2670 C.2   101  VAL101      0.2592
     50  O          0.9960   18.2180    8.7230 O.2   101  VAL101     -0.2718
     51  CB         3.7420   19.2630    8.2460 C.3   101  VAL101      0.0266
     52  CG1        4.7370   18.3280    9.0380 C.3   101  VAL101      0.0020
     53  CG2        4.5190   20.2890    7.3750 C.3   101  VAL101      0.0020
     54  N          2.3240   16.4080    8.5380 N.am  102  CYS102     -0.1956
     55  CA         1.4880   15.5950    9.4560 C.3   102  CYS102      0.1843
     56  C          1.8130   15.9280   10.9000 C.2   102  CYS102      0.2625
     57  O          2.9770   16.1720   11.2490 O.2   102  CYS102     -0.2714
     58  CB         1.7530   14.1230    9.1790 C.3   102  CYS102      0.0997
     59  SG         1.1920   13.7450    7.4950 S.3   102  CYS102     -0.0797
     60  N          0.7860   15.9820   11.7380 N.am  103  VAL103     -0.1964
     61  CA         0.9740   16.3630   13.1130 C.3   103  VAL103      0.1712
     62  C          0.2740   15.3360   14.0180 C.2   103  VAL103      0.2458
     63  O         -0.9420   15.0580   13.8580 O.2   103  VAL103     -0.2730
     64  CB         0.4430   17.7880   13.3370 C.3   103  VAL103      0.0289
     65  CG1        0.5510   18.1910   14.7790 C.3   103  VAL103      0.0023
     66  CG2        1.2050   18.7450   12.4550 C.3   103  VAL103      0.0023
     67  N          1.0170   14.7520   14.9570 N.am  104  PRO104     -0.2727
     68  CA         0.4360   13.8450   15.9580 C.3   104  PRO104      0.1402
     69  C         -0.5890   14.5210   16.8800 C.2   104  PRO104      0.2269
     70  O         -0.5230   15.7280   17.1020 O.2   104  PRO104     -0.2865
     71  CB         1.6580   13.3560   16.7540 C.3   104  PRO104      0.0296
     72  CG         2.6430   14.3710   16.5930 C.3   104  PRO104      0.0237
     73  CD         2.4740   14.9460   15.2100 C.3   104  PRO104      0.0939
     74  N          0.6420   17.0070   19.6280 N.3   107  ALA107     -0.1245
     75  CA         1.4070   18.2240   19.3290 C.3   107  ALA107      0.1562
     76  C          0.7120   19.4490   19.8940 C.2   107  ALA107      0.2260
     77  O         -0.5100   19.6230   19.7640 O.2   107  ALA107     -0.2867
     78  CB         1.5770   18.4010   17.8260 C.3   107  ALA107      0.0290
     79  N          4.1790   23.8610   19.1870 N.3   111  GLU111     -0.1231
     80  CA         4.9090   23.0520   18.2160 C.3   111  GLU111      0.1699
     81  C          4.3440   23.1850   16.8060 C.2   111  GLU111      0.2592
     82  O          5.0870   23.2450   15.8260 O.2   111  GLU111     -0.2718
     83  CB         4.9430   21.5750   18.6540 C.3   111  GLU111      0.0402
     84  CG         5.6300   21.3750   19.9670 C.3   111  GLU111      0.1161
     85  CD         5.5220   19.9530   20.4510 C.2   111  GLU111      0.3649
     86  OE1        4.4360   19.3130   20.3110 O.co2 111  GLU111     -0.2457
     87  OE2        6.5020   19.4770   21.0130 O.co2 111  GLU111     -0.2457
     88  N          3.0130   23.2210   16.6750 N.am  112  ARG112     -0.1980
     89  CA         2.3850   23.4210   15.3760 C.3   112  ARG112      0.1597
     90  C          2.7930   24.7530   14.7520 C.2   112  ARG112      0.2287
     91  O          3.1010   24.8330   13.5860 O.2   112  ARG112     -0.2864
     92  CB         0.8430   23.3430   15.5220 C.3   112  ARG112      0.0334
     93  CG         0.3590   21.9380   15.8570 C.3   112  ARG112      0.0492
     94  CD        -1.0960   21.9700   16.3650 C.3   112  ARG112      0.2205
     95  NE        -1.4060   20.7170   17.0410 N.pl3 112  ARG112     -0.0865
     96  CZ        -2.1080   19.7280   16.4900 C.cat 112  ARG112      0.5346
     97  NH1       -2.5790   19.8590   15.2560 N.pl3 112  ARG112      0.1354
     98  NH2       -2.3550   18.6180   17.1870 N.pl3 112  ARG112      0.1354
     99  N          6.4760   24.3670   13.5230 N.3   115  ILE115     -0.1245
    100  CA         6.5550   23.6340   12.2510 C.3   115  ILE115      0.1561
    101  C          6.0580   24.5280   11.0830 C.2   115  ILE115      0.2260
    102  O          6.6670   24.5420   10.0110 O.2   115  ILE115     -0.2867
    103  CB         5.7410   22.3670   12.2870 C.3   115  ILE115      0.0252
    104  CG1        6.3230   21.4020   13.3310 C.3   115  ILE115      0.0019
    105  CG2        5.6640   21.7470   10.8830 C.3   115  ILE115      0.0019
    106  CD1        7.6730   20.8190   12.9370 C.3   115  ILE115      0.0001
    107  N         -2.0040   13.3460   11.9330 N.3   132  GLU132     -0.1245
    108  CA        -1.2030   12.2270   11.5270 C.3   132  GLU132      0.1567
    109  C         -1.9490   10.8950   11.5090 C.2   132  GLU132      0.2260
    110  O         -1.6770   10.0420   10.6690 O.2   132  GLU132     -0.2867
    111  CB         0.0200   12.1180   12.4470 C.3   132  GLU132      0.0388
    112  CG         1.1280   11.2870   11.8300 C.3   132  GLU132      0.1160
    113  CD         2.3960   11.3260   12.6490 C.2   132  GLU132      0.3649
    114  OE1        2.3660   10.7890   13.7610 O.co2 132  GLU132     -0.2457
    115  OE2        3.4050   11.9130   12.2010 O.co2 132  GLU132     -0.2457
    116  N          7.2260    7.1420   20.0150 N.3   159  THR159     -0.1218
    117  CA         5.8490    7.0000   20.5190 C.3   159  THR159      0.1862
    118  C          5.0770    5.9130   19.7700 C.2   159  THR159      0.2287
    119  O          5.4660    5.5010   18.6660 O.2   159  THR159     -0.2866
    120  CB         5.0050    8.2860   20.3770 C.3   159  THR159      0.1770
    121  OG1        4.7140    8.5220   18.9950 O.3   159  THR159     -0.2211
    122  CG2        5.7250    9.5030   20.9780 C.3   159  THR159      0.0375
    123  N          1.0310    5.7780   18.7320 N.3   161  GLU161     -0.1245
    124  CA        -0.1190    6.6700   18.6690 C.3   161  GLU161      0.1567
    125  C         -1.3090    5.7600   18.3550 C.2   161  GLU161      0.2260
    126  O         -1.2710    5.0600   17.3420 O.2   161  GLU161     -0.2867
    127  CB         0.0640    7.6540   17.5270 C.3   161  GLU161      0.0388
    128  CG         1.1980    8.6590   17.6750 C.3   161  GLU161      0.1160
    129  CD         1.1590    9.4180   18.9840 C.2   161  GLU161      0.3649
    130  OE1        0.1450   10.0870   19.2860 O.co2 161  GLU161     -0.2457
    131  OE2        2.1370    9.3280   19.7580 O.co2 161  GLU161     -0.2457
@<TRIPOS>BOND
     1    47    48    1
     2    48    51    1
     3    48    49    1
     4    53    51    1
     5    59    58    1
     6    51    52    1
     7    49    54   am
     8    49    50    2
     9    54    55    1
    10    58    55    1
    11     1     2    1
    12    55    56    1
    13     7     6    1
    14   102   101    2
    15     2     5    1
    16     2     3    1
    17     5     6    1
    18   110   109    2
    19   105   103    1
    20    56    57    2
    21    56    60   am
    22   101   100    1
    23     6     8    1
    24     9     3   am
    25     9    10    1
    26     3     4    2
    27   109   108    1
    28   108   107    1
    29   108   111    1
    30    60    61    1
    31   112   111    1
    32   112   113    1
    33   115   113   ar
    34   100   103    1
    35   100    99    1
    36    10    11    1
    37   103   104    1
    38    66    64    1
    39   113   114   ar
    40   106   104    1
    41    61    64    1
    42    61    62    1
    43    12    11    2
    44    64    65    1
    45    11    13   am
    46    91    90    2
    47    63    62    2
    48    62    67   am
    49    27    26    1
    50    13    14    1
    51    90    89    1
    52    67    73    1
    53    67    68    1
    54    25    26    1
    55    25    24    1
    56    15    14    1
    57    15    16    2
    58    73    72    1
    59    97    96    1
    60    89    92    1
    61    89    88    1
    62    92    93    1
    63    14    17    1
    64    82    81    2
    65    93    94    1
    66    68    71    1
    67    68    69    1
    68    24    21    1
    69    94    95    1
    70    18    17    1
    71    96    95    2
    72    96    98    1
    73    72    71    1
    74    88    81   am
    75    81    80    1
    76    17    19    1
    77    69    70    2
    78    46    44    1
    79   126   125    2
    80    20    21    1
    81   127   128    1
    82   127   124    1
    83    21    22    1
    84   128   129    1
    85    44    43    1
    86    78    75    1
    87    80    83    1
    88    80    79    1
    89    23    22    2
    90    45    43    1
    91   125   124    1
    92    83    84    1
    93   119   118    2
    94   124   123    1
    95    43    40    1
    96   129   130   ar
    97   129   131   ar
    98   121   120    1
    99    75    74    1
   100    75    76    1
   101    40    39    1
   102    40    41    1
   103    77    76    2
   104   118   117    1
   105    29    30    1
   106    29    28    1
   107    84    85    1
   108    31    30    2
   109   116   117    1
   110    39    34   am
   111    35    34    2
   112    30    32   am
   113    86    85   ar
   114   120   117    1
   115   120   122    1
   116    34    33    1
   117    85    87   ar
   118    41    42    2
   119    32    33    1
   120    33    36    1
   121    36    37    1
   122    36    38    1
