@<TRIPOS>MOLECULE
tmp/4czmB00.pdb
 179 166 0 0 0
SMALL
GASTEIGER

@<TRIPOS>ATOM
      1  N         -1.7880  114.3690    3.4740 N.3     8  ASP8       -0.1225
      2  CA        -0.6680  115.1130    3.9810 C.3     8  ASP8        0.1805
      3  C         -1.0910  115.8490    5.2720 C.2     8  ASP8        0.2598
      4  O         -1.6810  116.9370    5.2190 O.2     8  ASP8       -0.2718
      5  CB        -0.1740  116.1310    2.9670 C.3     8  ASP8        0.1424
      6  CG         0.8760  117.1370    3.5640 C.2     8  ASP8        0.3668
      7  OD1        1.4820  116.8090    4.6050 O.co2   8  ASP8       -0.2456
      8  OD2        1.1270  118.2520    2.9860 O.co2   8  ASP8       -0.2456
      9  N         -0.6620  115.3000    6.3900 N.am    9  LEU9       -0.1966
     10  CA        -1.0620  115.6700    7.7360 C.3     9  LEU9        0.1728
     11  C         -0.0770  116.6560    8.3540 C.2     9  LEU9        0.2617
     12  O          0.7110  116.3260    9.2510 O.2     9  LEU9       -0.2715
     13  CB        -1.0920  114.3790    8.5370 C.3     9  LEU9        0.0311
     14  CG        -2.2900  113.7540    9.2650 C.3     9  LEU9        0.0022
     15  CD1       -3.6110  114.2890    8.8590 C.3     9  LEU9        0.0001
     16  CD2       -2.2510  112.2140    9.0770 C.3     9  LEU9        0.0001
     17  N         -0.0990  117.8830    7.8830 N.am   10  GLY10      -0.1940
     18  CA         0.8980  118.8390    8.3270 C.3    10  GLY10       0.2014
     19  C          0.5650  119.5260    9.6500 C.2    10  GLY10       0.2640
     20  O         -0.5530  119.4510   10.1410 O.2    10  GLY10      -0.2714
     21  N          1.5320  120.2180   10.2170 N.am   11  THR11      -0.1936
     22  CA         1.3430  120.7980   11.5390 C.3    11  THR11       0.2028
     23  C          0.4090  121.9550   11.4210 C.2    11  THR11       0.2642
     24  O         -0.2840  122.2440   12.3420 O.2    11  THR11      -0.2714
     25  CB         2.6380  121.3170   12.1400 C.3    11  THR11       0.1808
     26  OG1        3.2100  122.2370   11.2250 O.3    11  THR11      -0.2208
     27  CG2        3.5730  120.2010   12.3960 C.3    11  THR11       0.0379
     28  N          0.4110  122.6140   10.2750 N.am   12  ALA12      -0.1963
     29  CA        -0.5040  123.6940   10.0050 C.3    12  ALA12       0.1728
     30  C         -1.6780  123.3420    9.0830 C.2    12  ALA12       0.2616
     31  O         -2.8230  123.7150    9.3720 O.2    12  ALA12      -0.2715
     32  CB         0.2380  124.7890    9.3850 C.3    12  ALA12       0.0334
     33  N         -1.3660  122.6840    7.9540 N.am   13  ASN13      -0.1972
     34  CA        -2.3460  122.3200    6.9150 C.3    13  ASN13       0.1688
     35  C         -2.4480  120.8150    6.6000 C.2    13  ASN13       0.2292
     36  O         -1.4750  120.1130    6.5880 O.2    13  ASN13      -0.2864
     37  CB        -2.0850  123.1170    5.6510 C.3    13  ASN13       0.1181
     38  CG        -2.1320  124.6050    5.9200 C.2    13  ASN13       0.2629
     39  OD1       -3.1560  125.1560    6.3320 O.2    13  ASN13      -0.2716
     40  ND2       -1.0150  125.2360    5.7690 N.am   13  ASN13      -0.0877
     41  N         -3.8800  118.3320    3.7280 N.3    15  LEU15      -0.1245
     42  CA        -4.4170  118.1990    2.4000 C.3    15  LEU15       0.1561
     43  C         -4.7360  116.7350    2.0740 C.2    15  LEU15       0.2260
     44  O         -4.0970  115.8050    2.6040 O.2    15  LEU15      -0.2867
     45  CB        -3.4890  118.7980    1.3700 C.3    15  LEU15       0.0270
     46  CG        -3.2620  120.2950    1.3400 C.3    15  LEU15       0.0019
     47  CD1       -2.4750  120.7120    2.5370 C.3    15  LEU15       0.0001
     48  CD2       -2.4860  120.5820    0.1840 C.3    15  LEU15       0.0001
     49  N          6.7280  118.0570   14.0160 N.3    69  GLY69      -0.1225
     50  CA         6.9440  116.7340   13.4400 C.3    69  GLY69       0.1811
     51  C          6.0650  115.6530   14.0340 C.2    69  GLY69       0.2280
     52  O          5.8740  114.5950   13.4110 O.2    69  GLY69      -0.2866
     53  N          8.1370  111.8630    3.6990 N.3   132  GLU132     -0.1245
     54  CA         7.9530  113.2800    3.3370 C.3   132  GLU132      0.1567
     55  C          8.8640  113.7800    2.2320 C.2   132  GLU132      0.2260
     56  O          8.3750  114.3910    1.2810 O.2   132  GLU132     -0.2867
     57  CB         8.1360  114.2200    4.5570 C.3   132  GLU132      0.0388
     58  CG         6.9080  114.3980    5.4660 C.3   132  GLU132      0.1160
     59  CD         6.9070  115.6870    6.3610 C.2   132  GLU132      0.3649
     60  OE1        7.8500  116.5450    6.3160 O.co2 132  GLU132     -0.2457
     61  OE2        5.9110  115.8130    7.1190 O.co2 132  GLU132     -0.2457
     62  N         12.1560  121.2140    2.3550 N.3   154  ASP154     -0.1239
     63  CA        10.7080  121.3650    2.6880 C.3   154  ASP154      0.1674
     64  C         10.5870  122.1240    4.0150 C.2   154  ASP154      0.2266
     65  O         10.7000  121.5440    5.0730 O.2   154  ASP154     -0.2867
     66  CB         9.9990  119.9720    2.7710 C.3   154  ASP154      0.1410
     67  CG         8.3970  120.0200    3.0080 C.2   154  ASP154      0.3668
     68  OD1        7.5580  120.4400    2.1360 O.co2 154  ASP154     -0.2456
     69  OD2        7.9430  119.4620    4.0440 O.co2 154  ASP154     -0.2456
     70  N          8.1620  123.5720    6.3880 N.3   156  GLY156     -0.1210
     71  CA         6.7930  123.5680    6.8710 C.3   156  GLY156      0.1956
     72  C          6.4600  124.5630    7.9950 C.2   156  GLY156      0.2612
     73  O          6.9800  125.6380    8.0610 O.2   156  GLY156     -0.2717
     74  N          5.5150  124.1890    8.8380 N.am  157  GLY157     -0.1942
     75  CA         5.0640  125.0280    9.8810 C.3   157  GLY157      0.2014
     76  C          5.9710  124.8650   11.0640 C.2   157  GLY157      0.2639
     77  O          6.4410  125.8590   11.5940 O.2   157  GLY157     -0.2714
     78  N          6.1990  123.6220   11.4590 N.am  158  GLY158     -0.1939
     79  CA         7.0760  123.3040   12.5600 C.3   158  GLY158      0.2014
     80  C          8.4050  122.6120   12.2490 C.2   158  GLY158      0.2639
     81  O          9.1990  122.4060   13.1660 O.2   158  GLY158     -0.2714
     82  N          8.6630  122.2600   10.9930 N.am  159  THR159     -0.1950
     83  CA         9.8660  121.4940   10.6250 C.3   159  THR159      0.1897
     84  C         10.4200  121.8140    9.2480 C.2   159  THR159      0.2313
     85  O          9.6450  121.9210    8.2900 O.2   159  THR159     -0.2863
     86  CB         9.5820  120.0070   10.7070 C.3   159  THR159      0.1794
     87  OG1        8.1760  119.7680   10.4880 O.3   159  THR159     -0.2208
     88  CG2        9.9560  119.4990   12.0940 C.3   159  THR159      0.0378
     89  N          7.8990  127.8640    9.8360 N.3   180  GLY180     -0.1210
     90  CA         7.0410  129.0270    9.8880 C.3   180  GLY180      0.1956
     91  C          6.5490  129.4060   11.2940 C.2   180  GLY180      0.2611
     92  O          6.2740  130.5320   11.5240 O.2   180  GLY180     -0.2717
     93  N          6.3730  128.4670   12.1930 N.am  181  ASP181     -0.1973
     94  CA         6.0070  128.7940   13.5750 C.3   181  ASP181      0.1709
     95  C          7.1190  129.5720   14.2660 C.2   181  ASP181      0.2293
     96  O          6.8460  130.5200   14.9360 O.2   181  ASP181     -0.2864
     97  CB         5.7260  127.5540   14.3730 C.3   181  ASP181      0.1436
     98  CG         4.4100  126.8940   13.9680 C.2   181  ASP181      0.3671
     99  OD1        3.6250  127.5630   13.2570 O.co2 181  ASP181     -0.2456
    100  OD2        4.1700  125.7240   14.3580 O.co2 181  ASP181     -0.2456
    101  N          9.2070  131.5980   12.8950 N.3   183  MET183     -0.1230
    102  CA         9.4240  132.8620   12.2750 C.3   183  MET183      0.1702
    103  C          8.3240  133.8170   12.7110 C.2   183  MET183      0.2592
    104  O          8.5230  135.0430   12.6390 O.2   183  MET183     -0.2718
    105  CB         9.3760  132.7580   10.7560 C.3   183  MET183      0.0401
    106  CG        10.3720  131.8290   10.0310 C.3   183  MET183      0.0596
    107  SD         9.9630  131.9900    8.2370 S.3   183  MET183     -0.1393
    108  CE        10.8030  130.5800    7.4830 C.3   183  MET183      0.0692
    109  N          7.1510  133.2620   13.0710 N.am  184  ASP184     -0.1974
    110  CA         6.0810  134.0310   13.7110 C.3   184  ASP184      0.1709
    111  C          6.4830  134.5300   15.1090 C.2   184  ASP184      0.2293
    112  O          6.2570  135.6690   15.4280 O.2   184  ASP184     -0.2864
    113  CB         4.8280  133.1870   13.8950 C.3   184  ASP184      0.1436
    114  CG         4.1130  132.9170   12.6000 C.2   184  ASP184      0.3671
    115  OD1        4.5050  133.5050   11.5830 O.co2 184  ASP184     -0.2456
    116  OD2        3.1590  132.1140   12.6060 O.co2 184  ASP184     -0.2456
    117  N          1.6000  136.5360   11.3920 N.3   205  GLU205     -0.1245
    118  CA         1.4940  135.9470   10.0540 C.3   205  GLU205      0.1567
    119  C          1.2390  137.0030    8.9810 C.2   205  GLU205      0.2260
    120  O          1.9440  137.0430    7.9570 O.2   205  GLU205     -0.2867
    121  CB         0.4740  134.7900   10.0150 C.3   205  GLU205      0.0388
    122  CG         1.1590  133.4470    9.6080 C.3   205  GLU205      0.1160
    123  CD         0.2250  132.2000    9.5380 C.2   205  GLU205      0.3649
    124  OE1       -0.4220  131.8280   10.5690 O.co2 205  GLU205     -0.2457
    125  OE2        0.1720  131.5750    8.4310 O.co2 205  GLU205     -0.2457
    126  N          4.5910  138.5960    8.4650 N.3   208  LYS208     -0.1231
    127  CA         5.4750  137.6940    7.7540 C.3   208  LYS208      0.1693
    128  C          5.2110  137.5910    6.2350 C.2   208  LYS208      0.2591
    129  O          6.1170  137.3430    5.4840 O.2   208  LYS208     -0.2718
    130  CB         5.3810  136.3300    8.3780 C.3   208  LYS208      0.0285
    131  CG         6.3030  135.3580    7.7580 C.3   208  LYS208      0.0035
    132  CD         6.3400  134.0500    8.5100 C.3   208  LYS208      0.0206
    133  CE         5.0950  133.3200    8.3410 C.3   208  LYS208      0.1093
    134  NZ         5.1220  131.9870    8.9130 N.3   208  LYS208     -0.1314
    135  N          3.9760  137.8370    5.8120 N.am  209  LYS209     -0.1980
    136  CA         3.5420  137.5730    4.4700 C.3   209  LYS209      0.1596
    137  C          3.5330  138.8450    3.6990 C.2   209  LYS209      0.2287
    138  O          3.7350  138.8620    2.4990 O.2   209  LYS209     -0.2864
    139  CB         2.1320  137.0470    4.4890 C.3   209  LYS209      0.0298
    140  CG         1.9870  135.6850    5.0070 C.3   209  LYS209      0.0038
    141  CD         0.4890  135.3330    4.8700 C.3   209  LYS209      0.0206
    142  CE         0.2050  133.8810    5.1680 C.3   209  LYS209      0.1093
    143  NZ        -1.2510  133.6670    5.0610 N.3   209  LYS209     -0.1314
    144  N          7.1670  123.6750    0.3830 N.3   286  GLY286     -0.1210
    145  CA         6.5640  123.9200    1.6910 C.3   286  GLY286      0.1956
    146  C          6.0960  125.3450    1.8350 C.2   286  GLY286      0.2612
    147  O          6.4860  126.2510    1.1090 O.2   286  GLY286     -0.2717
    148  N          5.1700  125.5680    2.7500 N.am  287  GLY287     -0.1942
    149  CA         4.7300  126.9280    2.9760 C.3   287  GLY287      0.2014
    150  C          5.8090  127.9340    3.3680 C.2   287  GLY287      0.2639
    151  O          5.7300  129.0450    2.9720 O.2   287  GLY287     -0.2714
    152  N          6.8340  127.5410    4.1160 N.am  288  GLY288     -0.1954
    153  CA         7.9170  128.4910    4.3850 C.3   288  GLY288      0.1869
    154  C          8.7170  128.9370    3.1530 C.2   288  GLY288      0.2309
    155  O          9.3920  129.9450    3.1830 O.2   288  GLY288     -0.2863
    156  N          7.8150  130.2370    0.7440 N.3   290  LEU290     -0.1231
    157  CA         7.2790  131.4310    0.1460 C.3   290  LEU290      0.1693
    158  C          7.8040  132.7260    0.8130 C.2   290  LEU290      0.2591
    159  O          7.5160  133.8520    0.3360 O.2   290  LEU290     -0.2718
    160  CB         5.7460  131.4010    0.2020 C.3   290  LEU290      0.0284
    161  CG         5.0210  130.3140   -0.5760 C.3   290  LEU290      0.0019
    162  CD1        3.5740  130.3130   -0.0970 C.3   290  LEU290      0.0001
    163  CD2        5.0820  130.6140   -2.0000 C.3   290  LEU290      0.0001
    164  N          8.5380  132.5670    1.9060 N.am  291  LEU291     -0.1980
    165  CA         9.1430  133.7480    2.5930 C.3   291  LEU291      0.1596
    166  C          9.9740  134.4940    1.5750 C.2   291  LEU291      0.2287
    167  O         10.8320  133.9040    0.9840 O.2   291  LEU291     -0.2864
    168  CB        10.0250  133.3180    3.7280 C.3   291  LEU291      0.0297
    169  CG        10.6220  134.4750    4.5340 C.3   291  LEU291      0.0022
    170  CD1        9.5290  135.0940    5.3600 C.3   291  LEU291      0.0001
    171  CD2       11.7220  134.0000    5.4300 C.3   291  LEU291      0.0001
    172  N          2.9140  124.9820   -1.3260 N.3   313  LEU313     -0.1245
    173  CA         2.0350  124.4180   -0.2580 C.3   313  LEU313      0.1561
    174  C          1.4970  123.0130   -0.5000 C.2   313  LEU313      0.2260
    175  O          1.2400  122.2380    0.4380 O.2   313  LEU313     -0.2867
    176  CB         0.8810  125.3850    0.0670 C.3   313  LEU313      0.0270
    177  CG         1.2910  126.6220    0.8540 C.3   313  LEU313      0.0019
    178  CD1        0.4060  127.8250    0.5390 C.3   313  LEU313      0.0001
    179  CD2        1.2580  126.3230    2.3330 C.3   313  LEU313      0.0001
@<TRIPOS>BOND
     1   163   161    1
     2   172   173    1
     3   161   162    1
     4   161   160    1
     5   174   173    1
     6   174   175    2
     7   173   176    1
     8   176   177    1
     9   157   160    1
    10   157   156    1
    11   157   158    1
    12    48    46    1
    13   159   158    2
    14   144   145    1
    15   178   177    1
    16   158   164   am
    17   177   179    1
    18   167   166    2
    19   147   146    2
    20    56    55    2
    21    46    45    1
    22    46    47    1
    23    45    42    1
    24   166   165    1
    25   145   146    1
    26   146   148   am
    27   164   165    1
    28    43    42    1
    29    43    44    2
    30    68    67   ar
    31    55    54    1
    32    62    63    1
    33    42    41    1
    34   138   137    2
    35   165   168    1
    36    63    66    1
    37    63    64    1
    38   148   149    1
    39    66    67    1
    40     5     6    1
    41     5     2    1
    42   151   150    2
    43   149   150    1
    44     8     6   ar
    45    67    69   ar
    46   154   155    2
    47   154   153    1
    48    54    53    1
    49    54    57    1
    50   150   152   am
    51     1     2    1
    52     6     7   ar
    53   137   136    1
    54   168   169    1
    55     2     3    1
    56    64    65    2
    57   152   153    1
    58   136   139    1
    59   136   135    1
    60   139   140    1
    61   169   170    1
    62   169   171    1
    63    57    58    1
    64   141   140    1
    65   141   142    1
    66   143   142    1
    67     4     3    2
    68     3     9   am
    69    58    59    1
    70   129   128    2
    71    37    38    1
    72    37    34    1
    73    40    38   am
    74   135   128   am
    75    38    39    2
    76   128   127    1
    77    60    59   ar
    78    59    61   ar
    79    70    71    1
    80     9    10    1
    81    36    35    2
    82    35    34    1
    83    71    72    1
    84    34    33    1
    85   108   107    1
    86    10    11    1
    87    10    13    1
    88   127   130    1
    89   127   126    1
    90   131   130    1
    91   131   132    1
    92    17    18    1
    93    17    11   am
    94    33    30   am
    95   120   119    2
    96    72    73    2
    97    72    74   am
    98   107   106    1
    99    85    84    2
   100    18    19    1
   101   133   132    1
   102   133   134    1
   103    11    12    2
   104   125   123   ar
   105    13    14    1
   106    74    75    1
   107    15    14    1
   108   119   118    1
   109    16    14    1
   110    30    31    2
   111    30    29    1
   112    84    83    1
   113    32    29    1
   114   123   122    1
   115   123   124   ar
   116   122   121    1
   117    19    20    2
   118    19    21   am
   119    89    90    1
   120    75    76    1
   121    90    91    1
   122    29    28    1
   123   121   118    1
   124   106   105    1
   125   118   117    1
   126    21    22    1
   127    28    23   am
   128    87    86    1
   129    83    86    1
   130    83    82    1
   131    86    88    1
   132   105   102    1
   133    82    80   am
   134    76    78   am
   135    76    77    2
   136    26    25    1
   137    91    92    2
   138    91    93   am
   139    23    22    1
   140    23    24    2
   141    78    79    1
   142    22    25    1
   143   115   114   ar
   144    25    27    1
   145    93    94    1
   146    80    79    1
   147    80    81    2
   148   102   103    1
   149   102   101    1
   150   114   116   ar
   151   114   113    1
   152   104   103    2
   153   103   109   am
   154   109   110    1
   155    99    98   ar
   156    52    51    2
   157    50    49    1
   158    50    51    1
   159    94    95    1
   160    94    97    1
   161   110   113    1
   162   110   111    1
   163    98   100   ar
   164    98    97    1
   165    95    96    2
   166   111   112    2
