@<TRIPOS>MOLECULE
tmp/4czsB00.pdb
 136 136 0 0 0
SMALL
GASTEIGER

@<TRIPOS>ATOM
      1  N        -41.9080  -30.5130   46.1250 N.3    11  THR11      -0.1203
      2  CA       -41.8410  -29.1580   45.6020 C.3    11  THR11       0.1994
      3  C        -40.8380  -28.3160   46.3890 C.2    11  THR11       0.2618
      4  O        -40.4640  -27.2180   45.9630 O.2    11  THR11      -0.2717
      5  CB       -43.2040  -28.4810   45.6730 C.3    11  THR11       0.1784
      6  OG1      -43.6670  -28.4870   47.0290 O.3    11  THR11      -0.2211
      7  CG2      -44.2160  -29.2100   44.7930 C.3    11  THR11       0.0376
      8  N        -40.3910  -28.8460   47.5230 N.am   12  TYR12      -0.1962
      9  CA       -39.6040  -28.0610   48.4660 C.3    12  TYR12       0.1756
     10  C        -38.3020  -28.7400   48.8630 C.2    12  TYR12       0.2461
     11  O        -38.2980  -29.7920   49.5030 O.2    12  TYR12      -0.2730
     12  CB       -40.4360  -27.7830   49.7160 C.3    12  TYR12       0.0574
     13  CG       -39.7670  -26.8580   50.7110 C.ar   12  TYR12      -0.0198
     14  CD1      -39.9480  -25.4840   50.6350 C.ar   12  TYR12      -0.0009
     15  CD2      -38.9700  -27.3660   51.7330 C.ar   12  TYR12      -0.0009
     16  CE1      -39.3520  -24.6370   51.5530 C.ar   12  TYR12       0.0417
     17  CE2      -38.3640  -26.5330   52.6520 C.ar   12  TYR12       0.0417
     18  CZ       -38.5630  -25.1710   52.5600 C.ar   12  TYR12       0.1957
     19  OH       -37.9520  -24.3450   53.4770 O.3    12  TYR12      -0.2866
     20  N        -37.1730  -28.1200   48.5170 N.am   13  PRO13      -0.2716
     21  CA       -35.9050  -28.7800   48.8440 C.3    13  PRO13       0.1536
     22  C        -35.5260  -28.6930   50.3220 C.2    13  PRO13       0.2599
     23  O        -35.1350  -27.6240   50.8220 O.2    13  PRO13      -0.2715
     24  CB       -34.8770  -28.0100   47.9970 C.3    13  PRO13       0.0310
     25  CG       -35.6760  -27.2390   46.9900 C.3    13  PRO13       0.0237
     26  CD       -36.9930  -26.9580   47.6320 C.3    13  PRO13       0.0939
     27  N        -35.6290  -29.8200   51.0090 N.am   14  ASN14      -0.1959
     28  CA       -35.1090  -29.9450   52.3600 C.3    14  ASN14       0.1819
     29  C        -33.7040  -30.5340   52.2920 C.2    14  ASN14       0.2621
     30  O        -33.5000  -31.7300   52.4980 O.2    14  ASN14      -0.2715
     31  CB       -36.0170  -30.8330   53.1960 C.3    14  ASN14       0.1195
     32  CG       -37.4090  -30.2770   53.3180 C.2    14  ASN14       0.2630
     33  OD1      -37.6970  -29.4630   54.2000 O.2    14  ASN14      -0.2716
     34  ND2      -38.2910  -30.7140   52.4360 N.am   14  ASN14      -0.0877
     35  N        -32.7340  -29.6710   52.0120 N.am   15  THR15      -0.1951
     36  CA       -31.3680  -30.1070   51.7410 C.3    15  THR15       0.1897
     37  C        -30.6900  -30.7720   52.9340 C.2    15  THR15       0.2313
     38  O        -29.7510  -31.5510   52.7640 O.2    15  THR15      -0.2863
     39  CB       -30.5090  -28.9340   51.2130 C.3    15  THR15       0.1794
     40  OG1      -30.5160  -27.8650   52.1680 O.3    15  THR15      -0.2208
     41  CG2      -31.0850  -28.4180   49.9030 C.3    15  THR15       0.0378
     42  N        -31.2910  -29.6840   45.5100 N.3    21  SER21      -0.1217
     43  CA       -31.5900  -28.2660   45.6560 C.3    21  SER21       0.1889
     44  C        -32.5940  -27.7420   44.6410 C.2    21  SER21       0.2288
     45  O        -32.4770  -26.6130   44.1550 O.2    21  SER21      -0.2866
     46  CB       -30.2990  -27.4520   45.5610 C.3    21  SER21       0.2089
     47  OG       -29.3400  -27.9370   46.4730 O.3    21  SER21      -0.2183
     48  N        -36.9790  -28.6440   43.0760 N.3    23  PRO23      -0.2116
     49  CA       -38.1190  -29.5660   43.0880 C.3    23  PRO23       0.1372
     50  C        -37.7520  -30.8190   42.3210 C.2    23  PRO23       0.2244
     51  O        -37.0350  -30.7670   41.3210 O.2    23  PRO23      -0.2868
     52  CB       -39.2090  -28.7850   42.3540 C.3    23  PRO23       0.0268
     53  CG       -38.8620  -27.3500   42.5880 C.3    23  PRO23       0.0207
     54  CD       -37.3520  -27.3200   42.5420 C.3    23  PRO23       0.0892
     55  N        -45.9060  -26.8500   55.1840 N.3    98  GLY98      -0.1210
     56  CA       -45.1910  -26.5960   56.4230 C.3    98  GLY98       0.1956
     57  C        -45.1750  -25.1150   56.6930 C.2    98  GLY98       0.2612
     58  O        -46.2370  -24.4910   56.7880 O.2    98  GLY98      -0.2717
     59  N        -43.9800  -24.5390   56.8070 N.am   99  LEU99      -0.1965
     60  CA       -43.8820  -23.0880   56.8710 C.3    99  LEU99       0.1728
     61  C        -44.3880  -22.5140   55.5690 C.2    99  LEU99       0.2616
     62  O        -45.1210  -21.5160   55.5460 O.2    99  LEU99      -0.2715
     63  CB       -42.4390  -22.6500   57.1050 C.3    99  LEU99       0.0311
     64  CG       -42.2050  -21.1430   56.9850 C.3    99  LEU99       0.0022
     65  CD1      -42.9800  -20.4190   58.0520 C.3    99  LEU99       0.0001
     66  CD2      -40.7230  -20.8370   57.1050 C.3    99  LEU99       0.0001
     67  N        -43.9970  -23.1570   54.4730 N.am  100  TYR100     -0.1974
     68  CA       -44.4670  -22.7640   53.1600 C.3   100  TYR100      0.1639
     69  C        -45.6040  -23.6700   52.6920 C.2   100  TYR100      0.2290
     70  O        -45.8090  -24.7580   53.2330 O.2   100  TYR100     -0.2864
     71  CB       -43.3190  -22.7730   52.1660 C.3   100  TYR100      0.0560
     72  CG       -42.2660  -21.7530   52.5120 C.ar  100  TYR100     -0.0198
     73  CD1      -42.4970  -20.4030   52.3080 C.ar  100  TYR100     -0.0009
     74  CD2      -41.0510  -22.1390   53.0450 C.ar  100  TYR100     -0.0009
     75  CE1      -41.5380  -19.4610   52.6230 C.ar  100  TYR100      0.0417
     76  CE2      -40.0820  -21.2010   53.3680 C.ar  100  TYR100      0.0417
     77  CZ       -40.3320  -19.8640   53.1470 C.ar  100  TYR100      0.1957
     78  OH       -39.3730  -18.9200   53.4620 O.3   100  TYR100     -0.2866
     79  N        -45.4220  -17.9690   44.9380 N.3   204  SER204     -0.1202
     80  CA       -44.3650  -18.7150   44.2510 C.3   204  SER204      0.2020
     81  C        -43.3590  -19.3240   45.2350 C.2   204  SER204      0.2619
     82  O        -42.1720  -19.4930   44.9270 O.2   204  SER204     -0.2717
     83  CB       -43.6640  -17.8290   43.2150 C.3   204  SER204      0.2103
     84  OG       -44.6230  -17.1060   42.4590 O.3   204  SER204     -0.2182
     85  N        -43.8520  -19.6670   46.4200 N.am  205  HIS205     -0.1961
     86  CA       -43.0280  -20.2990   47.4360 C.3   205  HIS205      0.1772
     87  C        -43.6050  -21.6560   47.8270 C.2   205  HIS205      0.2462
     88  O        -43.9300  -21.8650   48.9900 O.2   205  HIS205     -0.2730
     89  CB       -43.0140  -19.4300   48.6950 C.3   205  HIS205      0.0785
     90  CG       -42.2480  -18.1520   48.5460 C.ar  205  HIS205      0.0821
     91  ND1      -41.4670  -17.8700   47.4450 N.ar  205  HIS205     -0.2267
     92  CD2      -42.1490  -17.0780   49.3660 C.ar  205  HIS205      0.1154
     93  CE1      -40.9110  -16.6790   47.5980 C.ar  205  HIS205      0.1986
     94  NE2      -41.3120  -16.1760   48.7520 N.ar  205  HIS205     -0.2212
     95  N        -43.7300  -22.5870   46.8720 N.am  206  PRO206     -0.2716
     96  CA       -44.4900  -23.8020   47.2070 C.3   206  PRO206      0.1536
     97  C        -43.7770  -24.7890   48.1270 C.2   206  PRO206      0.2598
     98  O        -42.5550  -24.9250   48.0920 O.2   206  PRO206     -0.2715
     99  CB       -44.7170  -24.4510   45.8410 C.3   206  PRO206      0.0310
    100  CG       -43.5180  -24.0320   45.0420 C.3   206  PRO206      0.0237
    101  CD       -43.2240  -22.6150   45.4870 C.3   206  PRO206      0.0939
    102  N        -44.5700  -25.4760   48.9480 N.am  207  ALA207     -0.1964
    103  CA       -44.1110  -26.5840   49.7760 C.3   207  ALA207      0.1728
    104  C        -45.4050  -27.2910   50.1450 C.2   207  ALA207      0.2616
    105  O        -46.4380  -26.6400   50.1550 O.2   207  ALA207     -0.2715
    106  CB       -43.4210  -26.0640   51.0120 C.3   207  ALA207      0.0334
    107  N        -45.3830  -28.5960   50.4270 N.am  208  ASP208     -0.1971
    108  CA       -44.1850  -29.4270   50.4420 C.3   208  ASP208      0.1709
    109  C        -44.1750  -30.4990   49.3670 C.2   208  ASP208      0.2293
    110  O        -43.1200  -30.9840   48.9910 O.2   208  ASP208     -0.2864
    111  CB       -44.0580  -30.1170   51.7870 C.3   208  ASP208      0.1436
    112  CG       -43.3130  -29.2810   52.7800 C.2   208  ASP208      0.3671
    113  OD1      -43.9670  -28.4680   53.4710 O.co2 208  ASP208     -0.2456
    114  OD2      -42.0740  -29.4340   52.8560 O.co2 208  ASP208     -0.2456
    115  N        -46.3050  -33.1440   59.0780 N.3   226  THR226     -0.1203
    116  CA       -46.5480  -32.0510   58.1500 C.3   226  THR226      0.1994
    117  C        -45.2190  -31.7550   57.5190 C.2   226  THR226      0.2618
    118  O        -44.2300  -32.4400   57.7970 O.2   226  THR226     -0.2717
    119  CB       -47.0200  -30.7970   58.8940 C.3   226  THR226      0.1784
    120  OG1      -46.0990  -30.5130   59.9500 O.3   226  THR226     -0.2211
    121  CG2      -48.3870  -31.0230   59.5070 C.3   226  THR226      0.0376
    122  N        -45.1900  -30.7450   56.6570 N.am  227  GLY227     -0.1942
    123  CA       -43.9360  -30.2800   56.0980 C.3   227  GLY227      0.2014
    124  C        -43.1980  -31.3440   55.3200 C.2   227  GLY227      0.2638
    125  O        -43.7930  -32.0780   54.5280 O.2   227  GLY227     -0.2714
    126  N        -41.8950  -31.4310   55.5500 N.am  228  ARG228     -0.1977
    127  CA       -41.0250  -32.2520   54.7060 C.3   228  ARG228      0.1597
    128  C        -41.3220  -33.7550   54.7490 C.2   228  ARG228      0.2287
    129  O        -40.8070  -34.5180   53.9350 O.2   228  ARG228     -0.2864
    130  CB       -39.5730  -32.0190   55.1310 C.3   228  ARG228      0.0334
    131  CG       -39.2980  -32.4600   56.5360 C.3   228  ARG228      0.0492
    132  CD       -37.9120  -32.0280   56.9980 C.3   228  ARG228      0.2205
    133  NE       -37.6070  -32.5880   58.3070 N.pl3 228  ARG228     -0.0865
    134  CZ       -36.4920  -32.3440   58.9810 C.cat 228  ARG228      0.5346
    135  NH1      -35.5750  -31.5460   58.4640 N.pl3 228  ARG228      0.1354
    136  NH2      -36.3000  -32.8940   60.1710 N.pl3 228  ARG228      0.1354
@<TRIPOS>BOND
     1    51    50    2
     2    50    49    1
     3    52    53    1
     4    52    49    1
     5    84    83    1
     6    54    53    1
     7    54    48    1
     8    48    49    1
     9    83    80    1
    10    45    44    2
    11    80    79    1
    12    80    81    1
    13    44    43    1
    14     7     5    1
    15    82    81    2
    16   100   101    1
    17   100    99    1
    18    81    85   am
    19   101    95    1
    20    42    43    1
    21    46    43    1
    22    46    47    1
    23     2     5    1
    24     2     1    1
    25     2     3    1
    26     5     6    1
    27    99    96    1
    28     4     3    2
    29     3     8   am
    30    85    86    1
    31    95    96    1
    32    95    87   am
    33    25    26    1
    34    25    24    1
    35    96    97    1
    36    86    87    1
    37    86    89    1
    38    91    93   ar
    39    91    90   ar
    40     8     9    1
    41    93    94   ar
    42    26    20    1
    43    87    88    2
    44    24    21    1
    45    98    97    2
    46    97   102   am
    47     9    10    1
    48     9    12    1
    49    20    21    1
    50    20    10   am
    51    90    89    1
    52    90    92   ar
    53    94    92   ar
    54    21    22    1
    55    10    11    2
    56   102   103    1
    57   110   109    2
    58   109   108    1
    59    12    13    1
    60   103   104    1
    61   103   106    1
    62    41    39    1
    63   104   105    2
    64   104   107   am
    65    22    23    2
    66    22    27   am
    67   107   108    1
    68   108   111    1
    69    14    13   ar
    70    14    16   ar
    71    13    15   ar
    72    27    28    1
    73    39    36    1
    74    39    40    1
    75    16    18   ar
    76    15    17   ar
    77    36    35    1
    78    36    37    1
    79   111   112    1
    80    35    29   am
    81    71    72    1
    82    71    68    1
    83    29    28    1
    84    29    30    2
    85    73    72   ar
    86    73    75   ar
    87    28    31    1
    88    34    32   am
    89    72    74   ar
    90    18    17   ar
    91    18    19    1
    92    75    77   ar
    93    69    68    1
    94    69    70    2
    95    38    37    2
    96   112   114   ar
    97   112   113   ar
    98    74    76   ar
    99    77    76   ar
   100    77    78    1
   101    68    67    1
   102    31    32    1
   103    32    33    2
   104   129   128    2
   105    67    61   am
   106   125   124    2
   107   127   128    1
   108   127   130    1
   109   127   126    1
   110   130   131    1
   111    55    56    1
   112   124   126   am
   113   124   123    1
   114    62    61    2
   115    61    60    1
   116   123   122    1
   117    56    57    1
   118   131   132    1
   119   122   117   am
   120    57    58    2
   121    57    59   am
   122    59    60    1
   123    60    63    1
   124    64    66    1
   125    64    63    1
   126    64    65    1
   127   132   133    1
   128   117   118    2
   129   117   116    1
   130   116   119    1
   131   116   115    1
   132   133   134    2
   133   135   134    1
   134   119   121    1
   135   119   120    1
   136   134   136    1
