@<TRIPOS>MOLECULE
tmp/4czuD01.pdb
 176 164 0 0 0
SMALL
GASTEIGER

@<TRIPOS>ATOM
      1  N         -5.9580  -52.5080   44.4830 N.3    19  LEU19      -0.1245
      2  CA        -5.6990  -51.0870   44.4350 C.3    19  LEU19       0.1561
      3  C         -6.8460  -50.4170   43.6800 C.2    19  LEU19       0.2260
      4  O         -7.3530  -49.3810   44.1020 O.2    19  LEU19      -0.2867
      5  CB        -4.3450  -50.8320   43.7610 C.3    19  LEU19       0.0270
      6  CG        -3.9910  -49.3880   43.3750 C.3    19  LEU19       0.0019
      7  CD1       -3.9570  -48.4630   44.5910 C.3    19  LEU19       0.0001
      8  CD2       -2.6650  -49.3310   42.6010 C.3    19  LEU19       0.0001
      9  N         -7.0490  -54.3720   39.7290 N.3    27  VAL27      -0.1245
     10  CA        -5.5920  -54.2690   39.7640 C.3    27  VAL27       0.1561
     11  C         -5.0850  -54.5250   41.1870 C.2    27  VAL27       0.2260
     12  O         -5.5470  -53.8860   42.1470 O.2    27  VAL27      -0.2867
     13  CB        -5.1240  -52.8900   39.2540 C.3    27  VAL27       0.0252
     14  CG1       -3.6190  -52.7080   39.4750 C.3    27  VAL27       0.0019
     15  CG2       -5.4560  -52.7550   37.7650 C.3    27  VAL27       0.0019
     16  N         -1.5410  -55.4260   43.8240 N.3    29  PHE29      -0.1241
     17  CA        -0.1060  -55.5300   44.0450 C.3    29  PHE29       0.1605
     18  C          0.2020  -57.0170   44.0270 C.2    29  PHE29       0.2264
     19  O         -0.6410  -57.8420   44.3980 O.2    29  PHE29      -0.2867
     20  CB         0.2980  -54.9610   45.4140 C.3    29  PHE29       0.0534
     21  CG        -0.0450  -53.5040   45.6220 C.ar   29  PHE29      -0.0203
     22  CD1       -1.3360  -53.1160   45.9560 C.ar   29  PHE29      -0.0042
     23  CD2        0.9380  -52.5310   45.5330 C.ar   29  PHE29      -0.0042
     24  CE1       -1.6470  -51.7860   46.1630 C.ar   29  PHE29      -0.0003
     25  CE2        0.6390  -51.1970   45.7460 C.ar   29  PHE29      -0.0003
     26  CZ        -0.6550  -50.8210   46.0620 C.ar   29  PHE29      -0.0000
     27  N          2.5380  -55.3680   39.3080 N.3    40  ALA40      -0.1245
     28  CA         1.1080  -55.1750   39.4060 C.3    40  ALA40       0.1562
     29  C          0.4370  -56.2240   38.5470 C.2    40  ALA40       0.2260
     30  O          0.9110  -56.5440   37.4600 O.2    40  ALA40      -0.2867
     31  CB         0.7320  -53.7860   38.9320 C.3    40  ALA40       0.0290
     32  N         -3.1430  -57.1630   36.5930 N.3    42  LYS42      -0.1245
     33  CA        -4.4750  -56.7490   36.1840 C.3    42  LYS42       0.1561
     34  C         -5.2630  -58.0100   35.8720 C.2    42  LYS42       0.2260
     35  O         -4.8620  -58.8020   35.0320 O.2    42  LYS42      -0.2867
     36  CB        -4.4150  -55.8010   34.9630 C.3    42  LYS42       0.0271
     37  CG        -5.7770  -55.2420   34.5310 C.3    42  LYS42       0.0035
     38  CD        -5.6470  -53.8380   33.9260 C.3    42  LYS42       0.0206
     39  CE        -7.0050  -53.3000   33.4910 C.3    42  LYS42       0.1093
     40  NZ        -6.9810  -51.8260   33.1760 N.3    42  LYS42      -0.1314
     41  N          6.3560  -49.9150   29.1660 N.3    74  ILE74      -0.1245
     42  CA         5.9880  -50.7480   30.3200 C.3    74  ILE74       0.1561
     43  C          5.9770  -52.2320   29.9620 C.2    74  ILE74       0.2260
     44  O          5.3290  -52.6540   29.0050 O.2    74  ILE74      -0.2867
     45  CB         4.5920  -50.3490   30.8640 C.3    74  ILE74       0.0252
     46  CG1        4.6460  -48.9740   31.5390 C.3    74  ILE74       0.0019
     47  CG2        4.0350  -51.4060   31.7960 C.3    74  ILE74       0.0019
     48  CD1        5.4710  -48.9470   32.8010 C.3    74  ILE74       0.0001
     49  N          2.2740  -57.1200   35.0780 N.3    90  LEU90      -0.1231
     50  CA         2.8080  -55.8810   34.5110 C.3    90  LEU90       0.1693
     51  C          3.7790  -55.1350   35.4090 C.2    90  LEU90       0.2592
     52  O          3.6660  -55.1570   36.6370 O.2    90  LEU90      -0.2718
     53  CB         1.6600  -54.9220   34.1810 C.3    90  LEU90       0.0284
     54  CG         0.7120  -55.3790   33.0830 C.3    90  LEU90       0.0019
     55  CD1       -0.6810  -54.9200   33.4390 C.3    90  LEU90       0.0001
     56  CD2        1.1720  -54.7920   31.7420 C.3    90  LEU90       0.0001
     57  N          4.6930  -54.4100   34.7710 N.am   91  GLU91      -0.1966
     58  CA         5.6810  -53.5890   35.4630 C.3    91  GLU91       0.1733
     59  C          5.0790  -52.3770   36.1840 C.2    91  GLU91       0.2616
     60  O          4.2970  -51.6190   35.6120 O.2    91  GLU91      -0.2715
     61  CB         6.7550  -53.1300   34.4730 C.3    91  GLU91       0.0429
     62  CG         7.6640  -52.0260   34.9890 C.3    91  GLU91       0.1163
     63  CD         8.6750  -51.5680   33.9490 C.2    91  GLU91       0.3649
     64  OE1        8.4920  -51.8790   32.7370 O.co2  91  GLU91      -0.2457
     65  OE2        9.6540  -50.8900   34.3440 O.co2  91  GLU91      -0.2457
     66  N          5.4600  -52.2230   37.4520 N.am   92  PHE92      -0.1960
     67  CA         5.0880  -51.1060   38.3180 C.3    92  PHE92       0.1771
     68  C          6.2100  -50.0860   38.1480 C.2    92  PHE92       0.2619
     69  O          7.3830  -50.4550   38.1550 O.2    92  PHE92      -0.2715
     70  CB         5.0990  -51.6110   39.7750 C.3    92  PHE92       0.0574
     71  CG         3.9990  -51.0600   40.6560 C.ar   92  PHE92      -0.0200
     72  CD1        3.8010  -49.6950   40.8030 C.ar   92  PHE92      -0.0042
     73  CD2        3.1920  -51.9300   41.3870 C.ar   92  PHE92      -0.0042
     74  CE1        2.7930  -49.2050   41.6390 C.ar   92  PHE92      -0.0003
     75  CE2        2.1860  -51.4510   42.2280 C.ar   92  PHE92      -0.0003
     76  CZ         1.9870  -50.0860   42.3510 C.ar   92  PHE92      -0.0000
     77  N          5.8760  -48.8120   37.9590 N.am   93  VAL93      -0.1963
     78  CA         6.8930  -47.7700   38.0570 C.3    93  VAL93       0.1727
     79  C          6.4710  -46.7330   39.0790 C.2    93  VAL93       0.2616
     80  O          5.3030  -46.6690   39.4700 O.2    93  VAL93      -0.2715
     81  CB         7.2510  -47.0820   36.7000 C.3    93  VAL93       0.0290
     82  CG1        7.7740  -48.1080   35.6890 C.3    93  VAL93       0.0023
     83  CG2        6.0740  -46.2930   36.1570 C.3    93  VAL93       0.0023
     84  N          7.4220  -45.9020   39.4920 N.am   94  THR94      -0.1951
     85  CA         7.2570  -45.1140   40.7050 C.3    94  THR94       0.1897
     86  C          7.4230  -43.5900   40.5450 C.2    94  THR94       0.2313
     87  O          7.2230  -42.8420   41.5070 O.2    94  THR94      -0.2863
     88  CB         8.2070  -45.6540   41.8100 C.3    94  THR94       0.1794
     89  OG1        9.5530  -45.6700   41.3190 O.3    94  THR94      -0.2208
     90  CG2        7.8170  -47.0820   42.1920 C.3    94  THR94       0.0378
     91  N          5.6050  -41.4490   38.8520 N.3    96  GLY96      -0.1210
     92  CA         4.3720  -40.7020   38.6490 C.3    96  GLY96       0.1956
     93  C          4.1320  -40.3980   37.1760 C.2    96  GLY96       0.2611
     94  O          4.8840  -40.8550   36.3220 O.2    96  GLY96      -0.2717
     95  N          3.0810  -39.6330   36.8810 N.am   97  GLU97      -0.1979
     96  CA         2.7430  -39.2510   35.5050 C.3    97  GLU97       0.1602
     97  C          3.5860  -38.0770   34.9900 C.2    97  GLU97       0.2287
     98  O          3.9010  -37.1500   35.7290 O.2    97  GLU97      -0.2864
     99  CB         1.2470  -38.9250   35.4030 C.3    97  GLU97       0.0415
    100  CG         0.3440  -40.1590   35.5640 C.3    97  GLU97       0.1163
    101  CD        -1.1180  -39.8220   35.8410 C.2    97  GLU97       0.3649
    102  OE1       -1.4420  -38.6270   36.0320 O.co2  97  GLU97      -0.2457
    103  OE2       -1.9500  -40.7600   35.8770 O.co2  97  GLU97      -0.2457
    104  N         -2.2730  -39.9660   30.8380 N.3   140  GLU140     -0.1231
    105  CA        -2.3490  -41.0140   31.8410 C.3   140  GLU140      0.1699
    106  C         -1.5640  -42.2730   31.4720 C.2   140  GLU140      0.2592
    107  O         -1.3410  -43.1340   32.3290 O.2   140  GLU140     -0.2718
    108  CB        -3.8140  -41.3650   32.1200 C.3   140  GLU140      0.0402
    109  CG        -4.5990  -40.2630   32.8400 C.3   140  GLU140      0.1161
    110  CD        -5.2030  -39.2280   31.8980 C.2   140  GLU140      0.3649
    111  OE1       -5.1380  -39.4070   30.6540 O.co2 140  GLU140     -0.2457
    112  OE2       -5.7580  -38.2280   32.4190 O.co2 140  GLU140     -0.2457
    113  N         -1.1610  -42.3920   30.2040 N.am  141  ASN141     -0.1974
    114  CA        -0.2980  -43.5060   29.7760 C.3   141  ASN141      0.1688
    115  C          1.1800  -43.1470   29.7210 C.2   141  ASN141      0.2292
    116  O          2.0080  -43.9730   29.3330 O.2   141  ASN141     -0.2864
    117  CB        -0.7340  -44.0740   28.4110 C.3   141  ASN141      0.1181
    118  CG        -2.0180  -44.8620   28.5000 C.2   141  ASN141      0.2629
    119  OD1       -2.3150  -45.4810   29.5300 O.2   141  ASN141     -0.2716
    120  ND2       -2.8040  -44.8270   27.4380 N.am  141  ASN141     -0.0877
    121  N          4.0950  -42.5800   31.8630 N.3   143  LEU143     -0.1245
    122  CA         4.6260  -42.6770   33.2190 C.3   143  LEU143      0.1561
    123  C          6.1110  -42.3730   33.2690 C.2   143  LEU143      0.2260
    124  O          6.7810  -42.3230   32.2480 O.2   143  LEU143     -0.2867
    125  CB         4.3920  -44.0720   33.7820 C.3   143  LEU143      0.0270
    126  CG         2.9750  -44.6030   33.6130 C.3   143  LEU143      0.0019
    127  CD1        2.8990  -45.9400   34.2790 C.3   143  LEU143      0.0001
    128  CD2        1.9550  -43.6360   34.2010 C.3   143  LEU143      0.0001
    129  N          2.5010  -46.7940   28.9330 N.3   153  SER153     -0.1202
    130  CA         1.6670  -47.8920   29.3890 C.3   153  SER153      0.2020
    131  C          0.5000  -48.1820   28.4500 C.2   153  SER153      0.2618
    132  O          0.1680  -47.3830   27.5670 O.2   153  SER153     -0.2717
    133  CB         1.1320  -47.5840   30.7920 C.3   153  SER153      0.2103
    134  OG         0.1530  -46.5740   30.6920 O.3   153  SER153     -0.2182
    135  N         -0.1080  -49.3470   28.6650 N.am  154  ASP154     -0.1973
    136  CA        -1.3290  -49.8160   27.9940 C.3   154  ASP154      0.1709
    137  C         -1.2220  -50.3560   26.5620 C.2   154  ASP154      0.2293
    138  O         -2.2440  -50.6830   25.9640 O.2   154  ASP154     -0.2864
    139  CB        -2.4700  -48.7930   28.0750 C.3   154  ASP154      0.1436
    140  CG        -3.6600  -49.3260   28.8380 C.2   154  ASP154      0.3671
    141  OD1       -3.4460  -49.9540   29.8960 O.co2 154  ASP154     -0.2456
    142  OD2       -4.8070  -49.1460   28.3700 O.co2 154  ASP154     -0.2456
    143  N         -3.1040  -53.8730   26.1190 N.3   157  LEU157     -0.1245
    144  CA        -4.3210  -53.7560   26.9020 C.3   157  LEU157      0.1561
    145  C         -5.3110  -52.8380   26.2060 C.2   157  LEU157      0.2260
    146  O         -6.5220  -53.0640   26.2700 O.2   157  LEU157     -0.2867
    147  CB        -4.0020  -53.2120   28.3070 C.3   157  LEU157      0.0270
    148  CG        -3.8130  -54.1710   29.4870 C.3   157  LEU157      0.0019
    149  CD1       -3.4610  -55.5500   28.9890 C.3   157  LEU157      0.0001
    150  CD2       -2.7510  -53.6550   30.4640 C.3   157  LEU157      0.0001
    151  N        -10.5500  -50.2150   35.4290 N.3   167  ASP167     -0.1239
    152  CA       -10.0800  -50.7530   36.7070 C.3   167  ASP167      0.1674
    153  C        -10.2640  -49.8270   37.9100 C.2   167  ASP167      0.2266
    154  O         -9.6600  -50.0560   38.9490 O.2   167  ASP167     -0.2867
    155  CB        -8.5920  -51.1210   36.5850 C.3   167  ASP167      0.1410
    156  CG        -7.7170  -49.9200   36.2000 C.2   167  ASP167      0.3668
    157  OD1       -8.1940  -48.7680   36.2990 O.co2 167  ASP167     -0.2456
    158  OD2       -6.5400  -50.1160   35.8010 O.co2 167  ASP167     -0.2456
    159  N         -9.2160  -46.7810   38.4000 N.3   169  LEU169     -0.1245
    160  CA        -8.0640  -45.9220   38.6870 C.3   169  LEU169      0.1561
    161  C         -7.9740  -44.6680   37.7950 C.2   169  LEU169      0.2260
    162  O         -6.9280  -44.0200   37.7310 O.2   169  LEU169     -0.2867
    163  CB        -6.7660  -46.7330   38.6150 C.3   169  LEU169      0.0270
    164  CG        -6.7020  -47.8060   39.7230 C.3   169  LEU169      0.0019
    165  CD1       -5.5870  -48.8220   39.4600 C.3   169  LEU169      0.0001
    166  CD2       -6.5500  -47.1490   41.1130 C.3   169  LEU169      0.0001
    167  N         -7.7840  -43.9520   34.4620 N.3   171  HIS171     -0.1241
    168  CA        -6.8960  -43.8090   33.3180 C.3   171  HIS171      0.1621
    169  C         -7.5420  -44.3580   32.0540 C.2   171  HIS171      0.2264
    170  O         -7.2790  -43.8740   30.9510 O.2   171  HIS171     -0.2867
    171  CB        -5.5280  -44.4610   33.5770 C.3   171  HIS171      0.0745
    172  CG        -5.5900  -45.9410   33.7930 C.ar  171  HIS171      0.0817
    173  ND1       -5.6310  -46.8490   32.7510 N.ar  171  HIS171     -0.2268
    174  CD2       -5.6140  -46.6730   34.9350 C.ar  171  HIS171      0.1154
    175  CE1       -5.6860  -48.0780   33.2430 C.ar  171  HIS171      0.1986
    176  NE2       -5.6760  -47.9990   34.5660 N.ar  171  HIS171     -0.2212
@<TRIPOS>BOND
     1   138   137    2
     2   143   144    1
     3   145   146    2
     4   145   144    1
     5   137   136    1
     6   144   147    1
     7   120   118   am
     8   132   131    2
     9   136   139    1
    10   136   135    1
    11   139   140    1
    12   147   148    1
    13   142   140   ar
    14   117   118    1
    15   117   114    1
    16   131   135   am
    17   131   130    1
    18   118   119    2
    19   140   141   ar
    20   129   130    1
    21   149   148    1
    22    44    43    2
    23    41    42    1
    24   116   115    2
    25   130   133    1
    26   148   150    1
    27   115   114    1
    28   114   113    1
    29    43    42    1
    30   113   106   am
    31    42    45    1
    32   111   110   ar
    33   134   133    1
    34   104   105    1
    35    45    46    1
    36    45    47    1
    37   170   169    2
    38   106   105    1
    39   106   107    2
    40    46    48    1
    41    56    54    1
    42   105   108    1
    43   121   122    1
    44   110   112   ar
    45   110   109    1
    46   169   168    1
    47   108   109    1
    48   124   123    2
    49    64    63   ar
    50   173   175   ar
    51   173   172   ar
    52    54    55    1
    53    54    53    1
    54    40    39    1
    55   122   123    1
    56   122   125    1
    57   175   176   ar
    58   168   171    1
    59   168   167    1
    60    39    38    1
    61   171   172    1
    62   126   125    1
    63   126   128    1
    64   126   127    1
    65   172   174   ar
    66    38    37    1
    67    63    65   ar
    68    63    62    1
    69    53    50    1
    70    61    62    1
    71    61    58    1
    72    50    49    1
    73    50    51    1
    74    37    36    1
    75   176   174   ar
    76    57    51   am
    77    57    58    1
    78    36    33    1
    79    97    96    1
    80    97    98    2
    81    35    34    2
    82    99    96    1
    83    99   100    1
    84    51    52    2
    85   151   152    1
    86    58    59    1
    87    96    95    1
    88   100   101    1
    89    60    59    2
    90    82    81    1
    91   158   156   ar
    92   101   103   ar
    93   101   102   ar
    94    34    33    1
    95    83    81    1
    96    59    66   am
    97    33    32    1
    98   156   157   ar
    99   156   155    1
   100    94    93    2
   101   155   152    1
   102    81    78    1
   103   152   153    1
   104    95    93   am
   105    93    92    1
   106    66    67    1
   107    30    29    2
   108   162   161    2
   109    15    13    1
   110   161   160    1
   111   153   154    2
   112    77    78    1
   113    77    68   am
   114    78    79    1
   115    68    69    2
   116    68    67    1
   117    67    70    1
   118   159   160    1
   119    29    28    1
   120   163   160    1
   121   163   164    1
   122    92    91    1
   123    31    28    1
   124    79    80    2
   125    79    84   am
   126    13    14    1
   127    13    10    1
   128    27    28    1
   129   165   164    1
   130    84    85    1
   131   164   166    1
   132     9    10    1
   133    10    11    1
   134    70    71    1
   135    86    85    1
   136    86    87    2
   137    71    72   ar
   138    71    73   ar
   139    85    88    1
   140    72    74   ar
   141    11    12    2
   142    89    88    1
   143    73    75   ar
   144    74    76   ar
   145    88    90    1
   146    75    76   ar
   147     8     6    1
   148     6     5    1
   149     6     7    1
   150     3     4    2
   151     3     2    1
   152     5     2    1
   153    16    17    1
   154    18    17    1
   155    18    19    2
   156    17    20    1
   157     2     1    1
   158    20    21    1
   159    23    21   ar
   160    23    25   ar
   161    21    22   ar
   162    25    26   ar
   163    22    24   ar
   164    26    24   ar
