@<TRIPOS>MOLECULE
tmp/4czxA00.pdb
 117 113 0 0 0
SMALL
GASTEIGER

@<TRIPOS>ATOM
      1  N         11.1440   65.7390    0.5790 N.3   115  ARG115     -0.1245
      2  CA         9.8490   66.1400    0.0280 C.3   115  ARG115      0.1563
      3  C          9.2970   65.1730   -1.0090 C.2   115  ARG115      0.2260
      4  O          8.0990   65.1970   -1.3250 O.2   115  ARG115     -0.2867
      5  CB         9.9550   67.5290   -0.6190 C.3   115  ARG115      0.0307
      6  CG        10.2970   68.6610    0.3560 C.3   115  ARG115      0.0489
      7  CD         9.2180   68.8460    1.4140 C.3   115  ARG115      0.2205
      8  NE         9.5900   69.9430    2.3210 N.pl3 115  ARG115     -0.0865
      9  CZ         9.3040   71.2280    2.1080 C.cat 115  ARG115      0.5346
     10  NH1        8.6230   71.6010    1.0270 N.pl3 115  ARG115      0.1354
     11  NH2        9.7010   72.1540    2.9830 N.pl3 115  ARG115      0.1354
     12  N         13.9810   69.6570   -0.0160 N.3   132  TRP132     -0.1241
     13  CA        14.4810   71.0230    0.0210 C.3   132  TRP132      0.1605
     14  C         15.7750   71.0280    0.8340 C.2   132  TRP132      0.2264
     15  O         15.8310   71.5210    1.9540 O.2   132  TRP132     -0.2867
     16  CB        13.4240   71.9720    0.5960 C.3   132  TRP132      0.0550
     17  CG        12.2170   72.1440   -0.3100 C.ar  132  TRP132      0.0003
     18  CD1       11.8570   71.3510   -1.3690 C.ar  132  TRP132      0.0946
     19  CD2       11.2320   73.1820   -0.2410 C.ar  132  TRP132      0.0152
     20  NE1       10.7010   71.8240   -1.9490 N.ar  132  TRP132     -0.2442
     21  CE2       10.2970   72.9440   -1.2730 C.ar  132  TRP132      0.0810
     22  CE3       11.0400   74.2840    0.6070 C.ar  132  TRP132      0.0012
     23  CZ2        9.1950   73.7730   -1.4870 C.ar  132  TRP132      0.0191
     24  CZ3        9.9450   75.0970    0.3990 C.ar  132  TRP132      0.0001
     25  CH2        9.0360   74.8410   -0.6410 C.ar  132  TRP132      0.0015
     26  N         10.6820   69.2410   -5.2380 N.3   157  SER157     -0.1202
     27  CA         9.3700   69.0500   -4.6170 C.3   157  SER157      0.2020
     28  C          8.6420   67.7800   -5.0680 C.2   157  SER157      0.2618
     29  O          7.7560   67.3000   -4.3610 O.2   157  SER157     -0.2717
     30  CB         8.4700   70.2570   -4.8950 C.3   157  SER157      0.2103
     31  OG         9.0420   71.4410   -4.3570 O.3   157  SER157     -0.2182
     32  N          8.9880   67.2820   -6.2560 N.am  158  PHE158     -0.1975
     33  CA         8.4020   66.0620   -6.8300 C.3   158  PHE158      0.1639
     34  C          9.4610   65.2610   -7.5630 C.2   158  PHE158      0.2290
     35  O         10.3710   65.8340   -8.1810 O.2   158  PHE158     -0.2864
     36  CB         7.2820   66.3540   -7.8440 C.3   158  PHE158      0.0560
     37  CG         6.0850   67.0380   -7.2700 C.ar  158  PHE158     -0.0200
     38  CD1        6.0160   68.4190   -7.2450 C.ar  158  PHE158     -0.0042
     39  CD2        5.0090   66.3090   -6.8000 C.ar  158  PHE158     -0.0042
     40  CE1        4.9100   69.0630   -6.7200 C.ar  158  PHE158     -0.0003
     41  CE2        3.9000   66.9520   -6.2800 C.ar  158  PHE158     -0.0003
     42  CZ         3.8470   68.3270   -6.2490 C.ar  158  PHE158     -0.0000
     43  N         11.7960   70.9230   -9.4150 N.3   169  THR169     -0.1203
     44  CA        12.4720   71.7450   -8.4310 C.3   169  THR169      0.1994
     45  C         11.4810   72.6440   -7.7270 C.2   169  THR169      0.2617
     46  O         10.3570   72.8420   -8.1910 O.2   169  THR169     -0.2717
     47  CB        13.5440   72.6450   -9.0580 C.3   169  THR169      0.1784
     48  OG1       12.9060   73.7700   -9.6740 O.3   169  THR169     -0.2211
     49  CG2       14.3510   71.8820  -10.0900 C.3   169  THR169      0.0376
     50  N         11.9100   73.2400   -6.6240 N.am  170  ASN170     -0.1974
     51  CA        11.0180   74.1410   -5.9140 C.3   170  ASN170      0.1688
     52  C         11.0350   75.5350   -6.5360 C.2   170  ASN170      0.2292
     53  O         10.4740   76.4710   -5.9680 O.2   170  ASN170     -0.2864
     54  CB        11.3720   74.1980   -4.4250 C.3   170  ASN170      0.1181
     55  CG        12.8200   74.5600   -4.1700 C.2   170  ASN170      0.2629
     56  OD1       13.5560   74.9200   -5.0850 O.2   170  ASN170     -0.2716
     57  ND2       13.2300   74.4950   -2.8970 N.am  170  ASN170     -0.0877
     58  N          6.8470   78.0100   -8.9900 N.3   194  PHE194     -0.1227
     59  CA         6.5230   76.7410   -8.3380 C.3   194  PHE194      0.1736
     60  C          5.7220   75.8020   -9.2160 C.2   194  PHE194      0.2595
     61  O          5.0230   76.2040  -10.1430 O.2   194  PHE194     -0.2718
     62  CB         5.7490   76.9610   -7.0230 C.3   194  PHE194      0.0547
     63  CG         4.3380   77.4450   -7.2160 C.ar  194  PHE194     -0.0202
     64  CD1        4.0750   78.8100   -7.3660 C.ar  194  PHE194     -0.0042
     65  CD2        3.2760   76.5530   -7.2340 C.ar  194  PHE194     -0.0042
     66  CE1        2.7750   79.2650   -7.5480 C.ar  194  PHE194     -0.0003
     67  CE2        1.9770   76.9960   -7.4170 C.ar  194  PHE194     -0.0003
     68  CZ         1.7230   78.3600   -7.5780 C.ar  194  PHE194     -0.0000
     69  N          5.8220   74.5380   -8.8530 N.am  195  ILE195     -0.1966
     70  CA         5.0760   73.4570   -9.4610 C.3   195  ILE195      0.1727
     71  C          4.1980   72.8840   -8.3580 C.2   195  ILE195      0.2616
     72  O          4.7060   72.4660   -7.3290 O.2   195  ILE195     -0.2715
     73  CB         6.0260   72.4100  -10.0420 C.3   195  ILE195      0.0290
     74  CG1        6.6290   72.9540  -11.3510 C.3   195  ILE195      0.0022
     75  CG2        5.3010   71.0780  -10.2930 C.3   195  ILE195      0.0023
     76  CD1        7.8100   72.1830  -11.8670 C.3   195  ILE195      0.0001
     77  N          2.8840   72.9280   -8.5510 N.am  196  ASN196     -0.1972
     78  CA         1.9420   72.4010   -7.5740 C.3   196  ASN196      0.1688
     79  C          1.6790   70.8960   -7.7720 C.2   196  ASN196      0.2292
     80  O          1.1950   70.2070   -6.8670 O.2   196  ASN196     -0.2864
     81  CB         0.6190   73.1680   -7.6530 C.3   196  ASN196      0.1181
     82  CG        -0.2520   72.9290   -6.4410 C.2   196  ASN196      0.2629
     83  OD1        0.2120   73.0480   -5.3150 O.2   196  ASN196     -0.2716
     84  ND2       -1.5070   72.5610   -6.6610 N.am  196  ASN196     -0.0877
     85  N          5.5110   82.5030   -5.7040 N.3   213  ARG213     -0.1231
     86  CA         5.1050   81.9580   -4.4220 C.3   213  ARG213      0.1694
     87  C          4.4910   83.0800   -3.5730 C.2   213  ARG213      0.2591
     88  O          4.6290   84.2790   -3.8720 O.2   213  ARG213     -0.2718
     89  CB         6.2810   81.3010   -3.7070 C.3   213  ARG213      0.0321
     90  CG         6.6510   79.9430   -4.3160 C.3   213  ARG213      0.0489
     91  CD         7.8930   79.3440   -3.6800 C.3   213  ARG213      0.2205
     92  NE         8.2190   78.0700   -4.3270 N.pl3 213  ARG213     -0.0865
     93  CZ         7.7710   76.8880   -3.9140 C.cat 213  ARG213      0.5346
     94  NH1        6.9800   76.8270   -2.8620 N.pl3 213  ARG213      0.1354
     95  NH2        8.1070   75.7720   -4.5600 N.pl3 213  ARG213      0.1354
     96  N          3.7900   82.6630   -2.5310 N.am  214  GLN214     -0.1979
     97  CA         2.9870   83.5620   -1.7100 C.3   214  GLN214      0.1601
     98  C          3.8340   84.5730   -0.9470 C.2   214  GLN214      0.2287
     99  O          4.8840   84.2290   -0.3910 O.2   214  GLN214     -0.2864
    100  CB         2.1510   82.7220   -0.7310 C.3   214  GLN214      0.0394
    101  CG         1.2030   83.5240    0.1420 C.3   214  GLN214      0.0908
    102  CD         0.4420   82.6250    1.1010 C.2   214  GLN214      0.2608
    103  OE1        0.8480   81.4870    1.3700 O.2   214  GLN214     -0.2717
    104  NE2       -0.6480   83.1460    1.6540 N.am  214  GLN214     -0.0878
    105  N         -0.2470   83.0800   -3.9280 N.3   220  ALA220     -0.1245
    106  CA         0.2510   82.2670   -5.0370 C.3   220  ALA220      0.1562
    107  C         -0.9150   81.9780   -5.9680 C.2   220  ALA220      0.2260
    108  O         -1.9340   81.4250   -5.5480 O.2   220  ALA220     -0.2867
    109  CB         0.8870   80.9600   -4.5370 C.3   220  ALA220      0.0290
    110  N         -2.3500   80.1350   -9.4510 N.3   222  LEU222     -0.1245
    111  CA        -2.1150   79.0590  -10.4200 C.3   222  LEU222      0.1561
    112  C         -2.2770   79.5110  -11.8810 C.2   222  LEU222      0.2260
    113  O         -3.0470   80.4310  -12.1800 O.2   222  LEU222     -0.2867
    114  CB        -3.0580   77.8990  -10.1380 C.3   222  LEU222      0.0270
    115  CG        -2.7200   77.1460   -8.8550 C.3   222  LEU222      0.0019
    116  CD1       -3.9290   76.3520   -8.3810 C.3   222  LEU222      0.0001
    117  CD2       -1.5260   76.2280   -9.1110 C.3   222  LEU222      0.0001
@<TRIPOS>BOND
     1   113   112    2
     2   112   111    1
     3    76    74    1
     4    74    73    1
     5   111   114    1
     6   111   110    1
     7    75    73    1
     8    61    60    2
     9   114   115    1
    10    49    47    1
    11    73    70    1
    12    48    47    1
    13    70    69    1
    14    70    71    1
    15    43    44    1
    16    60    69   am
    17    60    59    1
    18   117   115    1
    19    47    44    1
    20    58    59    1
    21   115   116    1
    22    77    71   am
    23    77    78    1
    24    44    45    1
    25    71    72    2
    26    59    62    1
    27    46    45    2
    28    35    34    2
    29    36    37    1
    30    36    33    1
    31    79    78    1
    32    79    80    2
    33    45    50   am
    34    81    78    1
    35    81    82    1
    36    68    66   ar
    37    68    67   ar
    38    34    33    1
    39    66    64   ar
    40    67    65   ar
    41    64    63   ar
    42    37    38   ar
    43    37    39   ar
    44    38    40   ar
    45    65    63   ar
    46    63    62    1
    47    33    32    1
    48    39    41   ar
    49    40    42   ar
    50    84    82   am
    51    50    51    1
    52    52    53    2
    53    52    51    1
    54    82    83    2
    55    41    42   ar
    56    32    28   am
    57   107   108    2
    58   107   106    1
    59    51    54    1
    60    85    86    1
    61    26    27    1
    62    56    55    2
    63    28    27    1
    64    28    29    2
    65   106   109    1
    66   106   105    1
    67    30    27    1
    68    30    31    1
    69    95    93    1
    70    54    55    1
    71    86    89    1
    72    86    87    1
    73    92    93    2
    74    92    91    1
    75    90    89    1
    76    90    91    1
    77    55    57   am
    78    93    94    1
    79    88    87    2
    80    87    96   am
    81    96    97    1
    82    20    18   ar
    83    20    21   ar
    84    97    98    1
    85    97   100    1
    86    23    21   ar
    87    23    25   ar
    88    18    17   ar
    89     4     3    2
    90    21    19   ar
    91     3     2    1
    92    98    99    2
    93   100   101    1
    94    25    24   ar
    95     5     2    1
    96     5     6    1
    97    17    19   ar
    98    17    16    1
    99    19    22   ar
   100    12    13    1
   101    13    16    1
   102    13    14    1
   103     2     1    1
   104   101   102    1
   105     6     7    1
   106    24    22   ar
   107    14    15    2
   108    10     9    1
   109   102   103    2
   110   102   104   am
   111     7     8    1
   112     9     8    2
   113     9    11    1
