@<TRIPOS>MOLECULE
tmp/4d00C02.pdb
 137 130 0 0 0
SMALL
GASTEIGER

@<TRIPOS>ATOM
      1  N         32.1190   39.4200   60.2420 N.3    91  TYR91      -0.1241
      2  CA        32.5080   39.0270   61.5970 C.3    91  TYR91       0.1605
      3  C         31.9220   37.6370   61.8500 C.2    91  TYR91       0.2264
      4  O         30.7140   37.4440   61.6680 O.2    91  TYR91      -0.2867
      5  CB        31.9660   40.0200   62.6240 C.3    91  TYR91       0.0534
      6  CG        32.6240   39.9390   63.9870 C.ar   91  TYR91      -0.0201
      7  CD1       32.1980   39.0210   64.9390 C.ar   91  TYR91      -0.0009
      8  CD2       33.6630   40.7910   64.3280 C.ar   91  TYR91      -0.0009
      9  CE1       32.7970   38.9560   66.1880 C.ar   91  TYR91       0.0417
     10  CE2       34.2680   40.7320   65.5690 C.ar   91  TYR91       0.0417
     11  CZ        33.8310   39.8190   66.4990 C.ar   91  TYR91       0.1957
     12  OH        34.4370   39.7670   67.7380 O.3    91  TYR91      -0.2866
     13  N         28.5460   53.8240   73.3470 N.3   125  ASN125     -0.1240
     14  CA        29.1030   54.0420   72.0240 C.3   125  ASN125      0.1653
     15  C         28.4390   53.0590   71.0700 C.2   125  ASN125      0.2266
     16  O         28.6620   51.8550   71.1610 O.2   125  ASN125     -0.2867
     17  CB        30.6130   53.8280   72.0430 C.3   125  ASN125      0.1155
     18  CG        31.2250   53.8340   70.6520 C.2   125  ASN125      0.2627
     19  OD1       30.6190   54.3050   69.6840 O.2   125  ASN125     -0.2716
     20  ND2       32.4310   53.2980   70.5440 N.am  125  ASN125     -0.0877
     21  N         30.5060   50.8470   67.1670 N.3   128  GLY128     -0.1210
     22  CA        31.5190   49.7980   67.1800 C.3   128  GLY128      0.1956
     23  C         31.7920   49.2830   65.7740 C.2   128  GLY128      0.2613
     24  O         30.8650   49.0370   65.0010 O.2   128  GLY128     -0.2717
     25  N         33.0710   49.1430   65.4380 N.am  129  THR129     -0.1938
     26  CA        33.4860   48.6280   64.1310 C.3   129  THR129      0.2028
     27  C         34.5200   47.5320   64.3150 C.2   129  THR129      0.2643
     28  O         34.9710   47.2690   65.4260 O.2   129  THR129     -0.2714
     29  CB        34.0710   49.7410   63.2250 C.3   129  THR129      0.1808
     30  OG1       35.1970   50.3560   63.8620 O.3   129  THR129     -0.2208
     31  CG2       33.0250   50.8000   62.9270 C.3   129  THR129      0.0379
     32  N         34.8930   46.8970   63.2140 N.am  130  THR130     -0.1936
     33  CA        35.8470   45.8040   63.2490 C.3   130  THR130      0.2028
     34  C         36.5490   45.6530   61.9090 C.2   130  THR130      0.2642
     35  O         35.9870   45.9600   60.8620 O.2   130  THR130     -0.2714
     36  CB        35.1530   44.4660   63.6020 C.3   130  THR130      0.1808
     37  OG1       36.0330   43.3680   63.3170 O.3   130  THR130     -0.2208
     38  CG2       33.8620   44.2950   62.8100 C.3   130  THR130      0.0379
     39  N         37.7840   45.1710   61.9700 N.am  131  ARG131     -0.1977
     40  CA        38.5790   44.8730   60.7890 C.3   131  ARG131      0.1597
     41  C         37.9810   43.7210   59.9800 C.2   131  ARG131      0.2287
     42  O         38.2350   43.6000   58.7820 O.2   131  ARG131     -0.2864
     43  CB        40.0100   44.5650   61.2260 C.3   131  ARG131      0.0334
     44  CG        40.9370   43.9790   60.1940 C.3   131  ARG131      0.0492
     45  CD        42.2760   43.7230   60.8730 C.3   131  ARG131      0.2205
     46  NE        43.4260   44.0430   60.0220 N.pl3 131  ARG131     -0.0865
     47  CZ        44.2700   45.0620   60.2120 C.cat 131  ARG131      0.5346
     48  NH1       44.1320   45.9090   61.2370 N.pl3 131  ARG131      0.1354
     49  NH2       45.2760   45.2340   59.3580 N.pl3 131  ARG131      0.1354
     50  N         37.6260   50.1190   58.8940 N.3   139  ASN139     -0.1240
     51  CA        36.8530   49.2380   59.7660 C.3   139  ASN139      0.1653
     52  C         35.4030   49.6880   59.7960 C.2   139  ASN139      0.2266
     53  O         35.1230   50.8690   59.9510 O.2   139  ASN139     -0.2867
     54  CB        37.4250   49.2250   61.1870 C.3   139  ASN139      0.1155
     55  CG        38.7830   48.5470   61.2700 C.2   139  ASN139      0.2627
     56  OD1       39.3580   48.1560   60.2550 O.2   139  ASN139     -0.2716
     57  ND2       39.2930   48.3950   62.4850 N.am  139  ASN139     -0.0877
     58  N         26.9070   47.8650   66.7960 N.3   147  TRP147     -0.1241
     59  CA        27.6450   47.2420   67.8710 C.3   147  TRP147      0.1605
     60  C         27.7550   48.2300   69.0380 C.2   147  TRP147      0.2264
     61  O         28.5720   49.1540   69.0160 O.2   147  TRP147     -0.2867
     62  CB        29.0270   46.8230   67.3870 C.3   147  TRP147      0.0550
     63  CG        29.7440   45.8860   68.3060 C.ar  147  TRP147      0.0003
     64  CD1       29.5030   45.6700   69.6380 C.ar  147  TRP147      0.0946
     65  CD2       30.8600   45.0670   67.9650 C.ar  147  TRP147      0.0152
     66  NE1       30.3880   44.7510   70.1380 N.ar  147  TRP147     -0.2442
     67  CE2       31.2390   44.3680   69.1340 C.ar  147  TRP147      0.0810
     68  CE3       31.5790   44.8500   66.7800 C.ar  147  TRP147      0.0012
     69  CZ2       32.3040   43.4600   69.1550 C.ar  147  TRP147      0.0191
     70  CZ3       32.6400   43.9470   66.7980 C.ar  147  TRP147      0.0001
     71  CH2       32.9880   43.2620   67.9810 C.ar  147  TRP147      0.0015
     72  N         28.7840   49.3730   72.6770 N.3   149  VAL149     -0.1245
     73  CA        29.7560   49.1540   73.7610 C.3   149  VAL149      0.1561
     74  C         29.7790   50.3580   74.6880 C.2   149  VAL149      0.2260
     75  O         29.3210   51.4420   74.3190 O.2   149  VAL149     -0.2867
     76  CB        31.1950   48.9020   73.2410 C.3   149  VAL149      0.0252
     77  CG1       31.2330   47.6640   72.3550 C.3   149  VAL149      0.0019
     78  CG2       31.7390   50.1200   72.5020 C.3   149  VAL149      0.0019
     79  N         26.8760   39.3490   71.0840 N.3   179  HIS179     -0.1241
     80  CA        28.3200   39.2270   71.0080 C.3   179  HIS179      0.1621
     81  C         28.8300   38.3100   72.1110 C.2   179  HIS179      0.2264
     82  O         28.4810   38.4880   73.2730 O.2   179  HIS179     -0.2867
     83  CB        28.9830   40.5920   71.1250 C.3   179  HIS179      0.0745
     84  CG        30.4720   40.5320   71.0460 C.ar  179  HIS179      0.0817
     85  ND1       31.2910   41.0360   72.0300 N.ar  179  HIS179     -0.2268
     86  CD2       31.2880   39.9860   70.1160 C.ar  179  HIS179      0.1154
     87  CE1       32.5510   40.8180   71.7000 C.ar  179  HIS179      0.1986
     88  NE2       32.5750   40.1800   70.5430 N.ar  179  HIS179     -0.2212
     89  N         38.4030   41.1410   77.6390 N.3   186  GLU186     -0.1245
     90  CA        37.7000   41.7560   76.5100 C.3   186  GLU186      0.1567
     91  C         36.2630   42.1190   76.8650 C.2   186  GLU186      0.2260
     92  O         35.8040   43.2210   76.5740 O.2   186  GLU186     -0.2867
     93  CB        37.7180   40.7990   75.3170 C.3   186  GLU186      0.0388
     94  CG        37.0780   41.3300   74.0480 C.3   186  GLU186      0.1160
     95  CD        37.2090   40.3440   72.9050 C.2   186  GLU186      0.3649
     96  OE1       38.3450   40.1490   72.4260 O.co2 186  GLU186     -0.2457
     97  OE2       36.1880   39.7350   72.5080 O.co2 186  GLU186     -0.2457
     98  N         34.6330   46.0050   77.1100 N.3   190  LEU190     -0.1245
     99  CA        33.5170   46.4100   76.2610 C.3   190  LEU190      0.1561
    100  C         32.2470   46.7350   77.0400 C.2   190  LEU190      0.2260
    101  O         31.5590   47.7050   76.7070 O.2   190  LEU190     -0.2867
    102  CB        33.2130   45.3140   75.2310 C.3   190  LEU190      0.0270
    103  CG        33.9450   45.3550   73.8840 C.3   190  LEU190      0.0019
    104  CD1       35.4100   45.7280   74.0170 C.3   190  LEU190      0.0001
    105  CD2       33.8020   44.0140   73.1870 C.3   190  LEU190      0.0001
    106  N         40.5470   31.7360   65.6150 N.3   218  GLN218     -0.1245
    107  CA        40.2680   32.9530   64.8780 C.3   218  GLN218      0.1566
    108  C         39.6140   32.6300   63.5450 C.2   218  GLN218      0.2260
    109  O         40.0290   31.7050   62.8560 O.2   218  GLN218     -0.2867
    110  CB        41.5450   33.7440   64.6280 C.3   218  GLN218      0.0367
    111  CG        42.1800   34.2920   65.8900 C.3   218  GLN218      0.0905
    112  CD        43.0220   35.5240   65.6190 C.2   218  GLN218      0.2608
    113  OE1       43.6350   35.6550   64.5550 O.2   218  GLN218     -0.2717
    114  NE2       43.0690   36.4290   66.5870 N.am  218  GLN218     -0.0878
    115  N         40.4570   36.7040   61.4920 N.3   221  GLY221     -0.1210
    116  CA        41.2090   37.3890   62.5400 C.3   221  GLY221      0.1956
    117  C         40.4720   37.6310   63.8510 C.2   221  GLY221      0.2612
    118  O         40.9430   38.3960   64.6800 O.2   221  GLY221     -0.2717
    119  N         39.3360   36.9700   64.0600 N.am  222  GLN222     -0.1965
    120  CA        38.5080   37.2210   65.2340 C.3   222  GLN222      0.1733
    121  C         38.2240   35.9480   66.0250 C.2   222  GLN222      0.2617
    122  O         37.6750   34.9890   65.4870 O.2   222  GLN222     -0.2715
    123  CB        37.1800   37.8480   64.8110 C.3   222  GLN222      0.0408
    124  CG        37.3100   39.1000   63.9620 C.3   222  GLN222      0.0908
    125  CD        37.9880   40.2570   64.6880 C.2   222  GLN222      0.2608
    126  OE1       37.9380   40.3620   65.9180 O.2   222  GLN222     -0.2717
    127  NE2       38.6180   41.1380   63.9190 N.am  222  GLN222     -0.0878
    128  N         38.5870   35.9560   67.3050 N.am  223  SER223     -0.1936
    129  CA        38.2050   34.8860   68.2260 C.3   223  SER223      0.2055
    130  C         36.8130   35.1260   68.7890 C.2   223  SER223      0.2643
    131  O         36.1660   34.1970   69.2640 O.2   223  SER223     -0.2714
    132  CB        39.2120   34.7530   69.3710 C.3   223  SER223      0.2130
    133  OG        40.3400   34.0060   68.9470 O.3   223  SER223     -0.2179
    134  N         36.3510   36.3700   68.7300 N.am  224  GLY224     -0.1954
    135  CA        34.9850   36.6960   69.1250 C.3   224  GLY224      0.1869
    136  C         33.9630   36.1320   68.1560 C.2   224  GLY224      0.2309
    137  O         34.2920   35.7420   67.0330 O.2   224  GLY224     -0.2863
@<TRIPOS>BOND
     1    42    41    2
     2    50    51    1
     3    49    47    1
     4    51    52    1
     5    51    54    1
     6    52    53    2
     7    41    40    1
     8    46    47    2
     9    46    45    1
    10    44    45    1
    11    44    43    1
    12    47    48    1
    13     1     2    1
    14    56    55    2
    15    40    43    1
    16    40    39    1
    17    35    34    2
    18    54    55    1
    19    55    57   am
    20   115   116    1
    21     2     3    1
    22     2     5    1
    23     4     3    2
    24    34    39   am
    25    34    33    1
    26   116   117    1
    27     5     6    1
    28    38    36    1
    29   109   108    2
    30    31    29    1
    31    32    33    1
    32    32    27   am
    33    29    30    1
    34    29    26    1
    35    33    36    1
    36    37    36    1
    37   108   107    1
    38   117   119   am
    39   117   118    2
    40   127   125   am
    41   124   125    1
    42   124   123    1
    43     6     8   ar
    44     6     7   ar
    45   119   120    1
    46    26    27    1
    47    26    25    1
    48    27    28    2
    49     8    10   ar
    50   113   112    2
    51   110   107    1
    52   110   111    1
    53   125   126    2
    54   123   120    1
    55   107   106    1
    56     7     9   ar
    57    24    23    2
    58   120   121    1
    59    25    23   am
    60   122   121    2
    61    10    11   ar
    62   112   111    1
    63   112   114   am
    64    23    22    1
    65   121   128   am
    66     9    11   ar
    67    11    12    1
    68    68    70   ar
    69    68    65   ar
    70    58    59    1
    71    70    71   ar
    72   137   136    2
    73    21    22    1
    74   128   129    1
    75    62    59    1
    76    62    63    1
    77    59    60    1
    78    65    63   ar
    79    65    67   ar
    80    71    69   ar
    81   136   135    1
    82   129   130    1
    83   129   132    1
    84    63    64   ar
    85   134   130   am
    86   134   135    1
    87   130   131    2
    88   133   132    1
    89    61    60    2
    90    67    69   ar
    91    67    66   ar
    92    64    66   ar
    93    19    18    2
    94    86    88   ar
    95    86    84   ar
    96    88    87   ar
    97    20    18   am
    98    18    17    1
    99    80    79    1
   100    80    83    1
   101    80    81    1
   102    84    83    1
   103    84    85   ar
   104    15    16    2
   105    15    14    1
   106    87    85   ar
   107    14    17    1
   108    14    13    1
   109    81    82    2
   110    77    76    1
   111    96    95   ar
   112    78    76    1
   113    97    95   ar
   114    72    73    1
   115    95    94    1
   116   105   103    1
   117    76    73    1
   118    73    74    1
   119   103   104    1
   120   103   102    1
   121    94    93    1
   122    75    74    2
   123   102    99    1
   124    93    90    1
   125    99   100    1
   126    99    98    1
   127    90    91    1
   128    90    89    1
   129    92    91    2
   130   101   100    2
