@<TRIPOS>MOLECULE
tmp/4d05A00.pdb
 155 144 0 0 0
SMALL
GASTEIGER

@<TRIPOS>ATOM
      1  N         31.8890   25.1200   14.2940 N.3     8  LEU8       -0.1231
      2  CA        32.0140   25.0350   15.7340 C.3     8  LEU8        0.1693
      3  C         31.7120   23.6340   16.3150 C.2     8  LEU8        0.2591
      4  O         30.8770   22.8520   15.8060 O.2     8  LEU8       -0.2718
      5  CB        31.1100   26.0540   16.4420 C.3     8  LEU8        0.0284
      6  CG        31.1060   27.5100   15.9670 C.3     8  LEU8        0.0019
      7  CD1       30.1010   28.2440   16.8300 C.3     8  LEU8        0.0001
      8  CD2       32.5110   28.1910   16.0410 C.3     8  LEU8        0.0001
      9  N         32.4110   23.3310   17.4080 N.am    9  ALA9       -0.1980
     10  CA        32.3450   21.9900   17.9960 C.3     9  ALA9        0.1597
     11  C         31.2020   21.8530   18.9790 C.2     9  ALA9        0.2287
     12  O         30.8440   22.8080   19.7010 O.2     9  ALA9       -0.2864
     13  CB        33.6290   21.6660   18.6960 C.3     9  ALA9        0.0319
     14  N         42.4520   14.3500   17.7240 N.3    24  SER24      -0.1202
     15  CA        43.5680   15.2630   17.7910 C.3    24  SER24       0.2020
     16  C         43.5900   15.9130   19.1690 C.2    24  SER24       0.2619
     17  O         42.6170   15.8680   19.9100 O.2    24  SER24      -0.2717
     18  CB        43.4140   16.3510   16.6980 C.3    24  SER24       0.2103
     19  OG        42.2270   17.0930   16.9070 O.3    24  SER24      -0.2182
     20  N         44.7190   16.5020   19.5130 N.am   25  GLU25      -0.1965
     21  CA        44.8430   17.2370   20.7870 C.3    25  GLU25       0.1733
     22  C         44.1410   18.5850   20.7050 C.2    25  GLU25       0.2616
     23  O         44.3540   19.3790   19.7750 O.2    25  GLU25      -0.2715
     24  CB        46.3190   17.4420   21.1280 C.3    25  GLU25       0.0429
     25  CG        46.5170   18.1060   22.5060 C.3    25  GLU25       0.1163
     26  CD        47.9520   18.1740   22.9620 C.2    25  GLU25       0.3649
     27  OE1       48.7640   17.3630   22.4680 O.co2  25  GLU25      -0.2457
     28  OE2       48.2720   19.0430   23.8280 O.co2  25  GLU25      -0.2457
     29  N         43.2910   18.8540   21.6830 N.am   26  LYS26      -0.1963
     30  CA        42.6470   20.1560   21.8210 C.3    26  LYS26       0.1728
     31  C         43.7190   21.1500   22.3030 C.2    26  LYS26       0.2616
     32  O         44.2740   20.9830   23.3760 O.2    26  LYS26      -0.2715
     33  CB        41.5350   20.0310   22.8610 C.3    26  LYS26       0.0311
     34  CG        40.6230   21.2360   23.0260 C.3    26  LYS26       0.0038
     35  CD        39.5630   20.8680   24.0730 C.3    26  LYS26       0.0206
     36  CE        38.4040   21.8920   24.0820 C.3    26  LYS26       0.1093
     37  NZ        38.9840   23.1170   24.6410 N.3    26  LYS26      -0.1314
     38  N         44.0080   22.1720   21.5000 N.am   27  LEU27      -0.1963
     39  CA        45.0870   23.1040   21.8470 C.3    27  LEU27       0.1728
     40  C         44.4980   24.3830   22.4430 C.2    27  LEU27       0.2616
     41  O         43.4980   24.8950   21.9660 O.2    27  LEU27      -0.2715
     42  CB        45.9020   23.4840   20.6040 C.3    27  LEU27       0.0311
     43  CG        46.5370   22.3380   19.8440 C.3    27  LEU27       0.0022
     44  CD1       47.4500   22.8670   18.7220 C.3    27  LEU27       0.0001
     45  CD2       47.3080   21.4250   20.7890 C.3    27  LEU27       0.0001
     46  N         45.1350   24.8720   23.5030 N.am   28  ASP28      -0.1971
     47  CA        44.6930   26.0920   24.1780 C.3    28  ASP28       0.1709
     48  C         45.4880   27.2570   23.5870 C.2    28  ASP28       0.2293
     49  O         46.5070   27.6910   24.1330 O.2    28  ASP28      -0.2864
     50  CB        44.9740   25.9800   25.6670 C.3    28  ASP28       0.1436
     51  CG        44.2890   27.0710   26.4860 C.2    28  ASP28       0.3671
     52  OD1       43.3240   27.7210   26.0430 O.co2  28  ASP28      -0.2456
     53  OD2       44.6970   27.2210   27.6390 O.co2  28  ASP28      -0.2456
     54  N         42.2740   31.0340   18.2280 N.3    31  ARG31      -0.1245
     55  CA        41.8060   30.5800   16.9370 C.3    31  ARG31       0.1563
     56  C         42.0470   31.6360   15.8720 C.2    31  ARG31       0.2260
     57  O         41.8620   32.8220   16.1180 O.2    31  ARG31      -0.2867
     58  CB        40.3210   30.2710   16.9910 C.3    31  ARG31       0.0307
     59  CG        39.8580   29.5410   15.7490 C.3    31  ARG31       0.0489
     60  CD        38.4310   29.0740   15.8320 C.3    31  ARG31       0.2205
     61  NE        38.0510   28.4200   14.5980 N.pl3  31  ARG31      -0.0865
     62  CZ        37.2040   27.4070   14.5090 C.cat  31  ARG31       0.5346
     63  NH1       36.6080   26.9370   15.5660 N.pl3  31  ARG31       0.1354
     64  NH2       36.9520   26.8910   13.3380 N.pl3  31  ARG31       0.1354
     65  N         38.2990   35.0380   15.8460 N.3    42  LYS42      -0.1245
     66  CA        36.9070   34.6050   15.8930 C.3    42  LYS42       0.1561
     67  C         35.9150   35.7600   15.9200 C.2    42  LYS42       0.2260
     68  O         34.7530   35.5960   15.5090 O.2    42  LYS42      -0.2867
     69  CB        36.6260   33.7440   17.1300 C.3    42  LYS42       0.0271
     70  CG        37.1600   32.3890   17.0760 C.3    42  LYS42       0.0035
     71  CD        37.0770   31.7360   18.4900 C.3    42  LYS42       0.0206
     72  CE        35.6850   31.4850   18.9620 C.3    42  LYS42       0.1093
     73  NZ        35.7240   30.7990   20.3080 N.3    42  LYS42      -0.1314
     74  N         44.9060   27.0450   15.0820 N.3    64  GLU64      -0.1245
     75  CA        45.1370   27.6880   16.3820 C.3    64  GLU64       0.1567
     76  C         46.5250   28.3350   16.3510 C.2    64  GLU64       0.2260
     77  O         47.5060   27.6510   16.0250 O.2    64  GLU64      -0.2867
     78  CB        45.1670   26.6400   17.5010 C.3    64  GLU64       0.0388
     79  CG        43.8360   26.1450   17.9570 C.3    64  GLU64       0.1160
     80  CD        42.9670   27.1370   18.7170 C.2    64  GLU64       0.3649
     81  OE1       43.4160   27.8340   19.6730 O.co2  64  GLU64      -0.2457
     82  OE2       41.7660   27.1010   18.4490 O.co2  64  GLU64      -0.2457
     83  N         43.8060   22.7710   11.5440 N.3    96  PHE96      -0.1241
     84  CA        42.9240   21.6550   11.7720 C.3    96  PHE96       0.1605
     85  C         41.7680   21.5670   10.7520 C.2    96  PHE96       0.2264
     86  O         41.0270   20.6000   10.7840 O.2    96  PHE96      -0.2867
     87  CB        42.4040   21.6460   13.2410 C.3    96  PHE96       0.0534
     88  CG        41.7090   22.9130   13.6670 C.ar   96  PHE96      -0.0203
     89  CD1       40.4650   23.2160   13.1960 C.ar   96  PHE96      -0.0042
     90  CD2       42.2810   23.7770   14.5750 C.ar   96  PHE96      -0.0042
     91  CE1       39.8060   24.3780   13.5960 C.ar   96  PHE96      -0.0003
     92  CE2       41.6010   24.9330   14.9800 C.ar   96  PHE96      -0.0003
     93  CZ        40.3680   25.2080   14.4840 C.ar   96  PHE96      -0.0000
     94  N         48.0670   19.9280   13.0230 N.3   125  ILE125     -0.1245
     95  CA        47.7640   19.1900   14.2340 C.3   125  ILE125      0.1561
     96  C         47.6450   17.7090   13.8540 C.2   125  ILE125      0.2260
     97  O         46.9610   17.3600   12.9160 O.2   125  ILE125     -0.2867
     98  CB        46.4760   19.7150   14.8850 C.3   125  ILE125      0.0252
     99  CG1       46.6730   21.1940   15.2630 C.3   125  ILE125      0.0019
    100  CG2       46.1490   18.8950   16.1080 C.3   125  ILE125      0.0019
    101  CD1       45.4500   21.8840   15.8230 C.3   125  ILE125      0.0001
    102  N         46.4180   14.0210   13.5050 N.3   127  GLN127     -0.1245
    103  CA        45.0950   13.4170   13.4620 C.3   127  GLN127      0.1566
    104  C         45.2990   11.9020   13.4530 C.2   127  GLN127      0.2260
    105  O         46.0120   11.3480   12.5770 O.2   127  GLN127     -0.2867
    106  CB        44.3420   13.8460   12.1890 C.3   127  GLN127      0.0367
    107  CG        44.0800   15.3830   12.0340 C.3   127  GLN127      0.0905
    108  CD        42.9620   15.8640   12.9460 C.2   127  GLN127      0.2608
    109  OE1       42.2070   15.0650   13.4990 O.2   127  GLN127     -0.2717
    110  NE2       42.8240   17.1890   13.0690 N.am  127  GLN127     -0.0878
    111  N         45.2260   20.1100   27.0190 N.3   148  GLU148     -0.1245
    112  CA        43.8850   20.5140   27.3960 C.3   148  GLU148      0.1567
    113  C         42.8800   19.3650   27.3350 C.2   148  GLU148      0.2260
    114  O         42.0860   19.1860   28.2400 O.2   148  GLU148     -0.2867
    115  CB        43.4190   21.6920   26.5230 C.3   148  GLU148      0.0388
    116  CG        42.0810   22.2170   26.9370 C.3   148  GLU148      0.1160
    117  CD        41.6860   23.5140   26.2480 C.2   148  GLU148      0.3649
    118  OE1       42.3530   23.9360   25.2790 O.co2 148  GLU148     -0.2457
    119  OE2       40.6760   24.0880   26.6810 O.co2 148  GLU148     -0.2457
    120  N         36.6940   14.3880   15.0650 N.3   152  HIS152     -0.1241
    121  CA        36.0600   14.9010   13.8460 C.3   152  HIS152      0.1621
    122  C         35.7750   13.7350   12.9130 C.2   152  HIS152      0.2264
    123  O         36.6760   12.9990   12.5320 O.2   152  HIS152     -0.2867
    124  CB        36.9990   15.9130   13.2030 C.3   152  HIS152      0.0745
    125  CG        36.3510   16.7780   12.1690 C.ar  152  HIS152      0.0817
    126  ND1       36.9490   17.9280   11.7030 N.ar  152  HIS152     -0.2268
    127  CD2       35.1860   16.6630   11.5000 C.ar  152  HIS152      0.1154
    128  CE1       36.1550   18.5120   10.8280 C.ar  152  HIS152      0.1986
    129  NE2       35.0900   17.7480   10.6560 N.ar  152  HIS152     -0.2212
    130  N         31.8630   17.2810   14.8870 N.3   166  LEU166     -0.1245
    131  CA        33.0640   17.7830   15.5160 C.3   166  LEU166      0.1561
    132  C         32.7930   17.9080   17.0090 C.2   166  LEU166      0.2260
    133  O         31.9310   18.6820   17.3940 O.2   166  LEU166     -0.2867
    134  CB        33.4140   19.1740   14.9450 C.3   166  LEU166      0.0270
    135  CG        34.6830   19.8250   15.4900 C.3   166  LEU166      0.0019
    136  CD1       35.9450   19.0360   15.1580 C.3   166  LEU166      0.0001
    137  CD2       34.8530   21.2710   15.0160 C.3   166  LEU166      0.0001
    138  N         34.2270   18.1010   21.2450 N.3   167  LYS167     -0.1245
    139  CA        35.2340   18.3700   22.2580 C.3   167  LYS167      0.1561
    140  C         35.1680   17.2730   23.2770 C.2   167  LYS167      0.2260
    141  O         34.0930   16.9110   23.7170 O.2   167  LYS167     -0.2867
    142  CB        34.9380   19.6720   23.0440 C.3   167  LYS167      0.0271
    143  CG        34.7230   20.8650   22.2220 C.3   167  LYS167      0.0035
    144  CD        34.2530   22.0620   23.0980 C.3   167  LYS167      0.0206
    145  CE        34.2800   23.3010   22.2730 C.3   167  LYS167      0.1093
    146  NZ        34.1770   24.5100   23.1180 N.3   167  LYS167     -0.1314
    147  N         36.8580   16.7790   27.0220 N.3   169  LYS169     -0.1245
    148  CA        37.7070   17.1440   28.1530 C.3   169  LYS169      0.1561
    149  C         37.3310   16.2210   29.2940 C.2   169  LYS169      0.2260
    150  O         36.2750   15.5720   29.2630 O.2   169  LYS169     -0.2867
    151  CB        37.5200   18.6220   28.5320 C.3   169  LYS169      0.0271
    152  CG        38.0730   19.5770   27.4660 C.3   169  LYS169      0.0035
    153  CD        37.9960   21.0390   27.8540 C.3   169  LYS169      0.0206
    154  CE        39.1080   21.4000   28.8320 C.3   169  LYS169      0.1093
    155  NZ        39.3290   22.8960   28.9270 N.3   169  LYS169     -0.1314
@<TRIPOS>BOND
     1   129   128   ar
     2   129   127   ar
     3    85    86    2
     4    85    84    1
     5   128   126   ar
     6   127   125   ar
     7    83    84    1
     8   126   125   ar
     9    84    87    1
    10   107   106    1
    11   107   108    1
    12   125   124    1
    13   106   103    1
    14   123   122    2
    15   105   104    2
    16   122   121    1
    17    97    96    2
    18   108   110   am
    19   108   109    2
    20    94    95    1
    21    89    91   ar
    22    89    88   ar
    23   124   121    1
    24    87    88    1
    25    64    62    1
    26   104   103    1
    27   103   102    1
    28    91    93   ar
    29    88    90   ar
    30   121   120    1
    31    96    95    1
    32    95    98    1
    33     1     2    1
    34    93    92   ar
    35    62    61    2
    36    62    63    1
    37    90    92   ar
    38    61    60    1
    39    98    99    1
    40    98   100    1
    41   130   131    1
    42   134   135    1
    43   134   131    1
    44   137   135    1
    45    74    75    1
    46   136   135    1
    47    99   101    1
    48    68    67    2
    49   131   132    1
    50     2     3    1
    51     2     5    1
    52    59    60    1
    53    59    58    1
    54     4     3    2
    55    65    66    1
    56    56    57    2
    57    56    55    1
    58    66    67    1
    59    66    69    1
    60     6     8    1
    61     6     5    1
    62     6     7    1
    63    77    76    2
    64     3     9   am
    65    76    75    1
    66    75    78    1
    67    18    19    1
    68    18    15    1
    69    55    58    1
    70    55    54    1
    71   132   133    2
    72    70    69    1
    73    70    71    1
    74     9    10    1
    75    78    79    1
    76    14    15    1
    77    15    16    1
    78    79    80    1
    79    10    13    1
    80    10    11    1
    81    82    80   ar
    82    71    72    1
    83    80    81   ar
    84    44    43    1
    85    72    73    1
    86    11    12    2
    87    16    20   am
    88    16    17    2
    89    20    21    1
    90    23    22    2
    91    43    42    1
    92    43    45    1
    93    42    39    1
    94    22    21    1
    95    22    29   am
    96    21    24    1
    97    24    25    1
    98   138   139    1
    99    38    39    1
   100    38    31   am
   101    29    30    1
   102    30    31    1
   103    30    33    1
   104    39    40    1
   105    41    40    2
   106   143   142    1
   107   143   144    1
   108   139   142    1
   109   139   140    1
   110   145   144    1
   111   145   146    1
   112    31    32    2
   113    40    46   am
   114    27    26   ar
   115    25    26    1
   116    33    34    1
   117    26    28   ar
   118    34    35    1
   119   140   141    2
   120    46    47    1
   121    48    49    2
   122    48    47    1
   123    35    36    1
   124    36    37    1
   125    47    50    1
   126   118   117   ar
   127    50    51    1
   128    52    51   ar
   129   117   119   ar
   130   117   116    1
   131    51    53   ar
   132   115   116    1
   133   115   112    1
   134   111   112    1
   135   147   148    1
   136   113   112    1
   137   113   114    2
   138   152   153    1
   139   152   151    1
   140   153   154    1
   141   148   151    1
   142   148   149    1
   143   154   155    1
   144   150   149    2
