@<TRIPOS>MOLECULE
tmp/4d06B00.pdb
 115 113 0 0 0
SMALL
GASTEIGER

@<TRIPOS>ATOM
      1  N        118.4790  108.7500   48.3850 N.3    28  TRP28      -0.1241
      2  CA       118.4310  107.8240   47.2650 C.3    28  TRP28       0.1605
      3  C        117.7920  108.5410   46.0770 C.2    28  TRP28       0.2264
      4  O        118.3060  108.4810   44.9620 O.2    28  TRP28      -0.2867
      5  CB       117.6710  106.5440   47.5890 C.3    28  TRP28       0.0550
      6  CG       117.5600  105.6620   46.3820 C.ar   28  TRP28       0.0003
      7  CD1      118.5630  104.8440   45.8330 C.ar   28  TRP28       0.0946
      8  CD2      116.4310  105.5210   45.5400 C.ar   28  TRP28       0.0152
      9  NE1      118.0900  104.2640   44.6820 N.ar   28  TRP28      -0.2442
     10  CE2      116.7810  104.6390   44.4970 C.ar   28  TRP28       0.0810
     11  CE3      115.1420  106.0320   45.5710 C.ar   28  TRP28       0.0012
     12  CZ2      115.8710  104.2650   43.4950 C.ar   28  TRP28       0.0191
     13  CZ3      114.2400  105.6470   44.5820 C.ar   28  TRP28       0.0001
     14  CH2      114.6260  104.7880   43.5380 C.ar   28  TRP28       0.0015
     15  N        118.9940  108.0670   42.1680 N.3    33  HIS33      -0.1241
     16  CA       117.8280  107.8050   41.2900 C.3    33  HIS33       0.1621
     17  C        117.7390  108.7860   40.1290 C.2    33  HIS33       0.2264
     18  O        117.4570  108.3570   38.9750 O.2    33  HIS33      -0.2867
     19  CB       116.5600  107.8270   42.1600 C.3    33  HIS33       0.0745
     20  CG       115.2320  107.9260   41.4270 C.ar   33  HIS33       0.0817
     21  ND1      114.7450  106.9370   40.5990 N.ar   33  HIS33      -0.2268
     22  CD2      114.2490  108.8540   41.5070 C.ar   33  HIS33       0.1154
     23  CE1      113.5380  107.2590   40.1710 C.ar   33  HIS33       0.1986
     24  NE2      113.2160  108.4340   40.6930 N.ar   33  HIS33      -0.2212
     25  N        119.1450  100.3990   36.9170 N.3    91  GLU91      -0.1245
     26  CA       119.0470  101.3210   38.0450 C.3    91  GLU91       0.1567
     27  C        119.5710  100.7130   39.3310 C.2    91  GLU91       0.2260
     28  O        119.3320   99.5600   39.6290 O.2    91  GLU91      -0.2867
     29  CB       117.6030  101.8490   38.2450 C.3    91  GLU91       0.0388
     30  CG       116.7390  100.9630   39.1470 C.3    91  GLU91       0.1160
     31  CD       115.2240  101.2540   39.1140 C.2    91  GLU91       0.3649
     32  OE1      114.8150  102.2400   38.4390 O.co2  91  GLU91      -0.2457
     33  OE2      114.4470  100.4710   39.7550 O.co2  91  GLU91      -0.2457
     34  N        119.0630  100.1740   42.8980 N.3    93  PHE93      -0.1241
     35  CA       117.8340  100.1400   43.6370 C.3    93  PHE93       0.1605
     36  C        117.9810   99.3150   44.9230 C.2    93  PHE93       0.2264
     37  O        117.8350   98.1150   44.9250 O.2    93  PHE93      -0.2867
     38  CB       116.7190   99.6020   42.7500 C.3    93  PHE93       0.0534
     39  CG       115.3750   99.6830   43.3910 C.ar   93  PHE93      -0.0203
     40  CD1      114.6880  100.8670   43.4560 C.ar   93  PHE93      -0.0042
     41  CD2      114.8350   98.5980   44.0060 C.ar   93  PHE93      -0.0042
     42  CE1      113.4810  100.9420   44.0780 C.ar   93  PHE93      -0.0003
     43  CE2      113.6050   98.6580   44.6130 C.ar   93  PHE93      -0.0003
     44  CZ       112.9430   99.8590   44.6750 C.ar   93  PHE93      -0.0000
     45  N        114.2370  100.8140   49.7670 N.3    97  VAL97      -0.1231
     46  CA       113.3760  101.8820   49.2630 C.3    97  VAL97       0.1692
     47  C        111.9060  101.4910   49.4770 C.2    97  VAL97       0.2591
     48  O        111.0480  102.3310   49.7680 O.2    97  VAL97      -0.2718
     49  CB       113.6730  102.1640   47.7830 C.3    97  VAL97       0.0266
     50  CG1      112.6460  103.0600   47.1690 C.3    97  VAL97       0.0020
     51  CG2      115.0020  102.8700   47.6650 C.3    97  VAL97       0.0020
     52  N        111.6290  100.2140   49.2920 N.am   98  LEU98      -0.1980
     53  CA       110.2690   99.6850   49.3670 C.3    98  LEU98       0.1596
     54  C        109.7520   99.6990   50.8140 C.2    98  LEU98       0.2287
     55  O        108.5350   99.7670   51.0720 O.2    98  LEU98      -0.2864
     56  CB       110.2380   98.2460   48.7690 C.3    98  LEU98       0.0297
     57  CG       110.5500   98.0680   47.2880 C.3    98  LEU98       0.0022
     58  CD1      110.4060   96.5920   46.9100 C.3    98  LEU98       0.0001
     59  CD2      109.6450   98.8850   46.4210 C.3    98  LEU98       0.0001
     60  N        109.0560  103.5660   51.4940 N.3   101  GLN101     -0.1245
     61  CA       107.8290  104.0280   50.8330 C.3   101  GLN101      0.1566
     62  C        106.5750  103.2910   51.2700 C.2   101  GLN101      0.2260
     63  O        105.4570  103.7780   51.0500 O.2   101  GLN101     -0.2867
     64  CB       108.0310  103.8870   49.3080 C.3   101  GLN101      0.0367
     65  CG       109.0130  104.8900   48.7170 C.3   101  GLN101      0.0905
     66  CD       109.2590  104.6870   47.2550 C.2   101  GLN101      0.2608
     67  OE1      110.0550  105.4150   46.6550 O.2   101  GLN101     -0.2717
     68  NE2      108.5610  103.6960   46.6430 N.am  101  GLN101     -0.0878
     69  N        105.7760   99.9380   50.5430 N.3   103  GLN103     -0.1231
     70  CA       105.3880   98.7540   49.7740 C.3   103  GLN103      0.1698
     71  C        105.6340   97.4360   50.5690 C.2   103  GLN103      0.2592
     72  O        104.9190   96.5020   50.3780 O.2   103  GLN103     -0.2718
     73  CB       106.1410   98.6510   48.4570 C.3   103  GLN103      0.0381
     74  CG       105.5310   99.5130   47.3550 C.3   103  GLN103      0.0905
     75  CD       105.8050  101.0040   47.5370 C.2   103  GLN103      0.2608
     76  OE1      106.9670  101.4300   47.6870 O.2   103  GLN103     -0.2717
     77  NE2      104.7210  101.8100   47.5130 N.am  103  GLN103     -0.0878
     78  N        106.6750   97.4280   51.4060 N.am  104  ILE104     -0.1980
     79  CA       107.0350   96.3230   52.2840 C.3   104  ILE104      0.1595
     80  C        106.8650   96.8430   53.7150 C.2   104  ILE104      0.2287
     81  O        107.4840   97.8710   54.0730 O.2   104  ILE104     -0.2864
     82  CB       108.5440   95.9570   52.1580 C.3   104  ILE104      0.0276
     83  CG1      108.9120   95.3570   50.8150 C.3   104  ILE104      0.0022
     84  CG2      108.9720   94.9350   53.2010 C.3   104  ILE104      0.0022
     85  CD1      110.4270   95.1980   50.6250 C.3   104  ILE104      0.0001
     86  N        101.5460   95.4690   53.1690 N.3   109  GLY109     -0.1210
     87  CA       102.1900   96.4290   52.2720 C.3   109  GLY109      0.1956
     88  C        101.1410   97.2550   51.5370 C.2   109  GLY109      0.2612
     89  O         99.9250   96.9070   51.5540 O.2   109  GLY109     -0.2717
     90  N        101.5780   98.3790   51.0110 N.am  110  ASN110     -0.1960
     91  CA       100.7990   99.1650   50.0880 C.3   110  ASN110      0.1804
     92  C        101.3070   98.9780   48.6940 C.2   110  ASN110      0.2463
     93  O        102.4980   98.7650   48.4780 O.2   110  ASN110     -0.2730
     94  CB       100.9010  100.6090   50.4560 C.3   110  ASN110      0.1195
     95  CG       100.2870  100.8820   51.7860 C.2   110  ASN110      0.2630
     96  OD1       99.3840  100.1690   52.2180 O.2   110  ASN110     -0.2716
     97  ND2      100.7550  101.8870   52.4450 N.am  110  ASN110     -0.0877
     98  N        100.4300   99.0470   47.7090 N.am  111  PRO111     -0.2716
     99  CA       100.9890   98.8630   46.3650 C.3   111  PRO111      0.1536
    100  C        101.7900  100.1100   45.9080 C.2   111  PRO111      0.2598
    101  O        101.7610  101.1220   46.5650 O.2   111  PRO111     -0.2715
    102  CB        99.7230   98.6530   45.5220 C.3   111  PRO111      0.0310
    103  CG        98.6830   99.4620   46.2470 C.3   111  PRO111      0.0237
    104  CD        98.9740   99.1430   47.6970 C.3   111  PRO111      0.0939
    105  N        102.4380   99.9950   44.7740 N.am  112  PHE112     -0.1974
    106  CA       103.2000  101.0330   44.1170 C.3   112  PHE112      0.1639
    107  C        102.3000  101.5990   43.0190 C.2   112  PHE112      0.2290
    108  O        101.9810  100.9140   42.0470 O.2   112  PHE112     -0.2864
    109  CB       104.5000  100.4440   43.5140 C.3   112  PHE112      0.0560
    110  CG       105.3970  101.4700   42.8630 C.ar  112  PHE112     -0.0200
    111  CD1      106.0870  102.3660   43.6300 C.ar  112  PHE112     -0.0042
    112  CD2      105.5380  101.5340   41.4740 C.ar  112  PHE112     -0.0042
    113  CE1      106.9330  103.3330   43.0590 C.ar  112  PHE112     -0.0003
    114  CE2      106.3640  102.4730   40.8880 C.ar  112  PHE112     -0.0003
    115  CZ       107.0800  103.3800   41.6890 C.ar  112  PHE112     -0.0000
@<TRIPOS>BOND
     1    25    26    1
     2    26    29    1
     3    26    27    1
     4    29    30    1
     5    32    31   ar
     6    18    17    2
     7    31    30    1
     8    31    33   ar
     9    27    28    2
    10    17    16    1
    11    23    21   ar
    12    23    24   ar
    13    21    20   ar
    14    24    22   ar
    15   114   112   ar
    16   114   115   ar
    17    16    19    1
    18    16    15    1
    19    20    22   ar
    20    20    19    1
    21   112   110   ar
    22   115   113   ar
    23   108   107    2
    24    38    39    1
    25    38    35    1
    26   110   109    1
    27   110   111   ar
    28    34    35    1
    29   107   106    1
    30   113   111   ar
    31    39    40   ar
    32    39    41   ar
    33    40    42   ar
    34    12    14   ar
    35    12    10   ar
    36   109   106    1
    37    14    13   ar
    38    35    36    1
    39    41    43   ar
    40    42    44   ar
    41   106   105    1
    42    10     9   ar
    43    10     8   ar
    44    13    11   ar
    45    43    44   ar
    46     9     7   ar
    47   105   100   am
    48    36    37    2
    49     4     3    2
    50   102   103    1
    51   102    99    1
    52     8    11   ar
    53     8     6   ar
    54     7     6   ar
    55   100    99    1
    56   100   101    2
    57     3     2    1
    58   103   104    1
    59    99    98    1
    60     6     5    1
    61    59    57    1
    62    68    66   am
    63    67    66    2
    64    58    57    1
    65    50    49    1
    66    66    65    1
    67     2     5    1
    68     2     1    1
    69    57    56    1
    70    74    75    1
    71    74    73    1
    72    77    75   am
    73    75    76    2
    74    51    49    1
    75   104    98    1
    76    98    92   am
    77    49    46    1
    78    73    70    1
    79    93    92    2
    80    92    91    1
    81    65    64    1
    82    56    53    1
    83    46    47    1
    84    46    45    1
    85    52    53    1
    86    52    47   am
    87    64    61    1
    88    53    54    1
    89    47    48    2
    90    70    69    1
    91    70    71    1
    92    91    94    1
    93    91    90    1
    94    72    71    2
    95    94    95    1
    96    71    78   am
    97    85    83    1
    98    54    55    2
    99    83    82    1
   100    61    62    1
   101    61    60    1
   102    90    88   am
   103    63    62    2
   104    78    79    1
   105    88    89    2
   106    88    87    1
   107    95    96    2
   108    95    97   am
   109    82    79    1
   110    82    84    1
   111    87    86    1
   112    79    80    1
   113    80    81    2
