@<TRIPOS>MOLECULE
tmp/4d06D00.pdb
 211 203 0 0 0
SMALL
GASTEIGER

@<TRIPOS>ATOM
      1  N        104.8880  133.2410   14.3140 N.3    12  ILE12      -0.1245
      2  CA       103.9520  134.3250   14.6460 C.3    12  ILE12       0.1561
      3  C        104.6540  135.6740   14.4250 C.2    12  ILE12       0.2260
      4  O        105.8240  135.8770   14.8480 O.2    12  ILE12      -0.2867
      5  CB       103.5640  134.1960   16.1150 C.3    12  ILE12       0.0252
      6  CG1      102.7490  132.9370   16.3560 C.3    12  ILE12       0.0019
      7  CG2      102.7290  135.3520   16.5440 C.3    12  ILE12       0.0019
      8  CD1      102.6370  132.5290   17.8200 C.3    12  ILE12       0.0001
      9  N        104.8600  139.3720   15.2830 N.3    14  VAL14      -0.1245
     10  CA       104.4320  140.1930   16.4140 C.3    14  VAL14       0.1561
     11  C        104.7970  141.6350   16.1290 C.2    14  VAL14       0.2260
     12  O        106.0180  141.9870   16.0950 O.2    14  VAL14      -0.2867
     13  CB       105.1330  139.7430   17.7050 C.3    14  VAL14       0.0252
     14  CG1      104.6670  140.5500   18.8950 C.3    14  VAL14       0.0019
     15  CG2      104.9880  138.2400   17.9070 C.3    14  VAL14       0.0019
     16  N        105.6390  142.3130   28.9770 N.3    28  TRP28      -0.1227
     17  CA       104.7270  141.1960   29.0200 C.3    28  TRP28       0.1737
     18  C        105.3630  139.9030   28.3890 C.2    28  TRP28       0.2595
     19  O        105.3090  138.8430   28.9470 O.2    28  TRP28      -0.2718
     20  CB       103.3930  141.5610   28.3720 C.3    28  TRP28       0.0564
     21  CG       102.4580  140.3950   28.3280 C.ar   28  TRP28       0.0003
     22  CD1      101.7070  139.9120   29.3340 C.ar   28  TRP28       0.0946
     23  CD2      102.2920  139.5230   27.2320 C.ar   28  TRP28       0.0152
     24  NE1      101.0280  138.7900   28.9220 N.ar   28  TRP28      -0.2442
     25  CE2      101.3680  138.5350   27.6210 C.ar   28  TRP28       0.0810
     26  CE3      102.7850  139.5090   25.9360 C.ar   28  TRP28       0.0012
     27  CZ2      100.9800  137.5180   26.7710 C.ar   28  TRP28       0.0191
     28  CZ3      102.3820  138.5200   25.0650 C.ar   28  TRP28       0.0001
     29  CH2      101.4930  137.5160   25.4890 C.ar   28  TRP28       0.0015
     30  N        105.9630  140.0790   27.2290 N.am   29  ILE29      -0.1980
     31  CA       106.5670  138.9680   26.5010 C.3    29  ILE29       0.1595
     32  C        107.6020  138.2260   27.3750 C.2    29  ILE29       0.2287
     33  O        107.5130  137.0320   27.5430 O.2    29  ILE29      -0.2864
     34  CB       107.1950  139.4700   25.1810 C.3    29  ILE29       0.0276
     35  CG1      106.0810  139.8260   24.1750 C.3    29  ILE29       0.0022
     36  CG2      108.0200  138.3740   24.5720 C.3    29  ILE29       0.0022
     37  CD1      106.5980  140.5050   22.9170 C.3    29  ILE29       0.0001
     38  N        104.8430  136.1370   29.6340 N.3    33  HIS33      -0.1241
     39  CA       104.4710  135.1490   28.6530 C.3    33  HIS33       0.1621
     40  C        105.4570  133.9950   28.4940 C.2    33  HIS33       0.2264
     41  O        105.0400  132.8480   28.3150 O.2    33  HIS33      -0.2867
     42  CB       104.2240  135.7960   27.3260 C.3    33  HIS33       0.0745
     43  CG       103.4290  134.9450   26.4120 C.ar   33  HIS33       0.0817
     44  ND1      102.3150  134.2580   26.8360 N.ar   33  HIS33      -0.2268
     45  CD2      103.5710  134.6650   25.0950 C.ar   33  HIS33       0.1154
     46  CE1      101.7960  133.5990   25.8150 C.ar   33  HIS33       0.1986
     47  NE2      102.5390  133.8270   24.7470 N.ar   33  HIS33      -0.2212
     48  N        104.1280  130.0480   28.8610 N.3    37  SER37      -0.1217
     49  CA       104.1360  129.2700   27.6730 C.3    37  SER37       0.1889
     50  C        104.9990  128.0130   27.8760 C.2    37  SER37       0.2288
     51  O        104.5760  126.9260   27.5440 O.2    37  SER37      -0.2866
     52  CB       104.7450  130.0510   26.5390 C.3    37  SER37       0.2089
     53  OG       103.9570  131.1100   26.1130 O.3    37  SER37      -0.2183
     54  N        103.0970  125.4560   29.8540 N.3    40  GLN40      -0.1231
     55  CA       102.1630  124.6460   29.1000 C.3    40  GLN40       0.1698
     56  C        102.7670  123.5690   28.2400 C.2    40  GLN40       0.2592
     57  O        102.2250  122.4610   28.1580 O.2    40  GLN40      -0.2718
     58  CB       101.3120  125.5370   28.1910 C.3    40  GLN40       0.0381
     59  CG       100.5420  126.5070   29.0410 C.3    40  GLN40       0.0905
     60  CD        99.6490  127.4480   28.2270 C.2    40  GLN40       0.2608
     61  OE1       99.4680  127.3210   26.9700 O.2    40  GLN40      -0.2717
     62  NE2       99.0030  128.3440   28.9690 N.am   40  GLN40      -0.0878
     63  N        103.7770  123.9400   27.4560 N.am   41  PHE41      -0.1976
     64  CA       104.1860  123.0750   26.3440 C.3    41  PHE41       0.1639
     65  C        105.5800  122.4410   26.3870 C.2    41  PHE41       0.2290
     66  O        105.9830  121.7760   25.4320 O.2    41  PHE41      -0.2864
     67  CB       103.9190  123.7530   24.9880 C.3    41  PHE41       0.0560
     68  CG       104.6300  125.0530   24.7660 C.ar   41  PHE41      -0.0200
     69  CD1      105.9880  125.2160   25.0420 C.ar   41  PHE41      -0.0042
     70  CD2      103.9060  126.1370   24.2780 C.ar   41  PHE41      -0.0042
     71  CE1      106.6450  126.4280   24.8290 C.ar   41  PHE41      -0.0003
     72  CE2      104.5350  127.3390   24.0580 C.ar   41  PHE41      -0.0003
     73  CZ       105.8710  127.4990   24.3230 C.ar   41  PHE41      -0.0000
     74  N        111.5860  126.8900   21.4000 N.3    48  TYR48      -0.1241
     75  CA       110.7140  128.0690   21.5390 C.3    48  TYR48       0.1605
     76  C        111.6360  129.2860   21.5880 C.2    48  TYR48       0.2264
     77  O        112.4290  129.3890   22.5160 O.2    48  TYR48      -0.2867
     78  CB       109.9230  127.9270   22.8470 C.3    48  TYR48       0.0534
     79  CG       109.1040  129.1150   23.3240 C.ar   48  TYR48      -0.0201
     80  CD1      108.3360  129.8320   22.4650 C.ar   48  TYR48      -0.0009
     81  CD2      109.0280  129.4400   24.7010 C.ar   48  TYR48      -0.0009
     82  CE1      107.5680  130.8930   22.9320 C.ar   48  TYR48       0.0417
     83  CE2      108.2790  130.4880   25.1480 C.ar   48  TYR48       0.0417
     84  CZ       107.5240  131.1870   24.2710 C.ar   48  TYR48       0.1957
     85  OH       106.7200  132.2390   24.6660 O.3    48  TYR48      -0.2866
     86  N        112.4540  133.6290   20.2550 N.3    50  PHE50      -0.1241
     87  CA       112.0580  134.9150   19.7070 C.3    50  PHE50       0.1605
     88  C        113.2140  135.5310   18.9410 C.2    50  PHE50       0.2264
     89  O        114.3520  135.4990   19.4780 O.2    50  PHE50      -0.2867
     90  CB       111.7670  135.8830   20.8460 C.3    50  PHE50       0.0534
     91  CG       110.7440  135.4290   21.8700 C.ar   50  PHE50      -0.0203
     92  CD1      109.7080  134.5720   21.5620 C.ar   50  PHE50      -0.0042
     93  CD2      110.7780  135.9650   23.1640 C.ar   50  PHE50      -0.0042
     94  CE1      108.7070  134.2510   22.5190 C.ar   50  PHE50      -0.0003
     95  CE2      109.8090  135.6090   24.1090 C.ar   50  PHE50      -0.0003
     96  CZ       108.7980  134.7400   23.7800 C.ar   50  PHE50      -0.0000
     97  N        108.8970  141.3130   16.8700 N.3    69  GLN69      -0.1245
     98  CA       109.6400  140.0780   16.7050 C.3    69  GLN69       0.1566
     99  C        108.9210  139.0250   15.8630 C.2    69  GLN69       0.2260
    100  O        107.7190  139.1450   15.5680 O.2    69  GLN69      -0.2867
    101  CB       109.9480  139.4780   18.0900 C.3    69  GLN69       0.0367
    102  CG       108.7370  138.9330   18.8570 C.3    69  GLN69       0.0905
    103  CD       109.0040  138.6590   20.3050 C.2    69  GLN69       0.2608
    104  OE1      109.5880  139.4650   21.0260 O.2    69  GLN69      -0.2717
    105  NE2      108.4830  137.5120   20.7550 N.am   69  GLN69      -0.0878
    106  N        108.0440  135.1290   16.5790 N.3    71  THR71      -0.1218
    107  CA       108.0070  134.1120   17.6010 C.3    71  THR71       0.1862
    108  C        107.9550  132.7600   16.8990 C.2    71  THR71       0.2287
    109  O        107.1200  132.5710   16.0220 O.2    71  THR71      -0.2866
    110  CB       106.8070  134.2690   18.5240 C.3    71  THR71       0.1770
    111  OG1      106.9720  135.4370   19.3410 O.3    71  THR71      -0.2211
    112  CG2      106.7090  133.0690   19.4390 C.3    71  THR71       0.0375
    113  N        108.0080  128.4160   17.1990 N.3    73  HIS73      -0.1241
    114  CA       107.8780  127.2120   17.9790 C.3    73  HIS73       0.1621
    115  C        108.1820  126.0270   17.1050 C.2    73  HIS73       0.2264
    116  O        107.8330  126.0110   15.9260 O.2    73  HIS73      -0.2867
    117  CB       106.4270  127.0040   18.4610 C.3    73  HIS73       0.0745
    118  CG       105.9130  128.0430   19.3840 C.ar   73  HIS73       0.0817
    119  ND1      105.4810  129.2800   18.9570 N.ar   73  HIS73      -0.2268
    120  CD2      105.6650  128.0140   20.7020 C.ar   73  HIS73       0.1154
    121  CE1      105.0240  129.9880   19.9780 C.ar   73  HIS73       0.1986
    122  NE2      105.1290  129.2380   21.0500 N.ar   73  HIS73      -0.2212
    123  N        106.9540  122.1300   17.2530 N.3    75  TRP75      -0.1241
    124  CA       105.9220  121.2750   17.8640 C.3    75  TRP75       0.1605
    125  C        106.1220  119.8070   17.4710 C.2    75  TRP75       0.2264
    126  O        106.5380  119.4960   16.3470 O.2    75  TRP75      -0.2867
    127  CB       104.4960  121.6720   17.3690 C.3    75  TRP75       0.0550
    128  CG       104.1500  123.0680   17.5210 C.ar   75  TRP75       0.0003
    129  CD1      104.4100  124.0530   16.6210 C.ar   75  TRP75       0.0946
    130  CD2      103.4930  123.7050   18.6310 C.ar   75  TRP75       0.0152
    131  NE1      103.9720  125.2540   17.0800 N.ar   75  TRP75      -0.2442
    132  CE2      103.3900  125.0640   18.3140 C.ar   75  TRP75       0.0810
    133  CE3      102.9610  123.2490   19.8430 C.ar   75  TRP75       0.0012
    134  CZ2      102.8020  125.9950   19.1810 C.ar   75  TRP75       0.0191
    135  CZ3      102.3960  124.1510   20.7100 C.ar   75  TRP75       0.0001
    136  CH2      102.3010  125.5230   20.3800 C.ar   75  TRP75       0.0015
    137  N         98.9820  121.7790   18.0270 N.3    79  ASP79      -0.1239
    138  CA        98.3900  122.5870   19.1100 C.3    79  ASP79       0.1674
    139  C         96.8630  122.8840   18.8930 C.2    79  ASP79       0.2266
    140  O         96.1780  123.3150   19.7980 O.2    79  ASP79      -0.2867
    141  CB        99.1530  123.8960   19.2790 C.3    79  ASP79       0.1410
    142  CG        98.7400  124.6460   20.5670 C.2    79  ASP79       0.3668
    143  OD1       98.6610  124.0230   21.6600 O.co2  79  ASP79      -0.2456
    144  OD2       98.5560  125.8820   20.4640 O.co2  79  ASP79      -0.2456
    145  N         93.8890  123.3410   29.7870 N.3    87  LYS87      -0.1245
    146  CA        95.1540  123.6700   30.4790 C.3    87  LYS87       0.1561
    147  C         94.8620  123.9390   31.9310 C.2    87  LYS87       0.2260
    148  O         93.9580  124.7240   32.2180 O.2    87  LYS87      -0.2867
    149  CB        95.7430  124.9840   29.9590 C.3    87  LYS87       0.0271
    150  CG        96.0300  125.0560   28.4850 C.3    87  LYS87       0.0035
    151  CD        95.7320  126.4900   28.0580 C.3    87  LYS87       0.0206
    152  CE        95.6720  126.6040   26.5350 C.3    87  LYS87       0.1093
    153  NZ        97.0070  126.6400   25.8550 N.3    87  LYS87      -0.1314
    154  N         97.1030  131.1010   30.2860 N.3    91  GLU91      -0.1245
    155  CA        98.0830  132.1750   30.1690 C.3    91  GLU91       0.1567
    156  C         97.4520  133.5000   30.6570 C.2    91  GLU91       0.2260
    157  O         96.2600  133.7330   30.4500 O.2    91  GLU91      -0.2867
    158  CB        98.5860  132.2800   28.7260 C.3    91  GLU91       0.0388
    159  CG        97.5320  132.4750   27.6460 C.3    91  GLU91       0.1160
    160  CD        96.8470  131.1860   27.1570 C.2    91  GLU91       0.3649
    161  OE1       96.6530  130.1310   27.8680 O.co2  91  GLU91      -0.2457
    162  OE2       96.4600  131.2870   25.9750 O.co2  91  GLU91      -0.2457
    163  N         96.9040  137.0030   29.9600 N.3    93  PHE93      -0.1241
    164  CA        96.8400  137.6230   28.6540 C.3    93  PHE93       0.1605
    165  C         95.9100  138.8260   28.7080 C.2    93  PHE93       0.2264
    166  O         94.7220  138.7280   28.4570 O.2    93  PHE93      -0.2867
    167  CB        96.3670  136.6300   27.5860 C.3    93  PHE93       0.0534
    168  CG        96.4730  137.1620   26.1800 C.ar   93  PHE93      -0.0203
    169  CD1       97.6250  137.0750   25.4870 C.ar   93  PHE93      -0.0042
    170  CD2       95.3930  137.7030   25.5590 C.ar   93  PHE93      -0.0042
    171  CE1       97.7670  137.5650   24.2090 C.ar   93  PHE93      -0.0003
    172  CE2       95.5020  138.1800   24.2440 C.ar   93  PHE93      -0.0003
    173  CZ        96.7190  138.1440   23.6000 C.ar   93  PHE93      -0.0000
    174  N         97.4830  143.6040   25.2510 N.3    97  VAL97      -0.1245
    175  CA        98.4400  142.9820   24.3540 C.3    97  VAL97       0.1561
    176  C         97.9670  143.0950   22.9140 C.2    97  VAL97       0.2260
    177  O         98.7340  143.4120   22.0160 O.2    97  VAL97      -0.2867
    178  CB        98.7540  141.5380   24.7190 C.3    97  VAL97       0.0252
    179  CG1       99.5310  140.8500   23.6020 C.3    97  VAL97       0.0019
    180  CG2       99.5150  141.5090   26.0620 C.3    97  VAL97       0.0019
    181  N         99.9110  145.1220   19.8210 N.3   101  GLN101     -0.1245
    182  CA       100.2450  144.3700   18.6090 C.3   101  GLN101      0.1566
    183  C         99.4500  144.8060   17.4030 C.2   101  GLN101      0.2260
    184  O         99.8220  144.4530   16.2660 O.2   101  GLN101     -0.2867
    185  CB       100.1030  142.8660   18.7940 C.3   101  GLN101      0.0367
    186  CG       101.0240  142.2880   19.8550 C.3   101  GLN101      0.0905
    187  CD       100.8750  140.8050   20.1420 C.2   101  GLN101      0.2608
    188  OE1      101.6880  140.2060   20.8490 O.2   101  GLN101     -0.2717
    189  NE2       99.7660  140.2210   19.6800 N.am  101  GLN101     -0.0878
    190  N         95.8180  138.2350   13.6810 N.3   112  PHE112     -0.1241
    191  CA        96.9290  137.6470   14.4070 C.3   112  PHE112      0.1605
    192  C         97.4270  136.5240   13.5090 C.2   112  PHE112      0.2264
    193  O         96.7070  135.5600   13.3090 O.2   112  PHE112     -0.2867
    194  CB        96.4180  137.0450   15.7250 C.3   112  PHE112      0.0534
    195  CG        97.4970  136.4460   16.5810 C.ar  112  PHE112     -0.0203
    196  CD1       98.3950  137.2610   17.2080 C.ar  112  PHE112     -0.0042
    197  CD2       97.6260  135.0690   16.7330 C.ar  112  PHE112     -0.0042
    198  CE1       99.4800  136.7230   17.9690 C.ar  112  PHE112     -0.0003
    199  CE2       98.6720  134.5310   17.4820 C.ar  112  PHE112     -0.0003
    200  CZ        99.5770  135.3620   18.1250 C.ar  112  PHE112     -0.0000
    201  N         99.5560  133.3710   12.5320 N.3   114  PHE114     -0.1241
    202  CA       100.1750  132.2670   13.2460 C.3   114  PHE114      0.1605
    203  C        100.2160  131.1630   12.1910 C.2   114  PHE114      0.2264
    204  O         99.1650  130.5380   11.8470 O.2   114  PHE114     -0.2867
    205  CB        99.3320  131.9260   14.4590 C.3   114  PHE114      0.0534
    206  CG        99.8240  130.8400   15.3690 C.ar  114  PHE114     -0.0203
    207  CD1      101.0090  130.1730   15.2300 C.ar  114  PHE114     -0.0042
    208  CD2       99.0090  130.4460   16.4190 C.ar  114  PHE114     -0.0042
    209  CE1      101.4390  129.2110   16.1420 C.ar  114  PHE114     -0.0003
    210  CE2       99.4430  129.4600   17.3460 C.ar  114  PHE114     -0.0003
    211  CZ       100.6830  128.8420   17.1710 C.ar  114  PHE114     -0.0000
@<TRIPOS>BOND
     1   204   203    2
     2   203   202    1
     3   201   202    1
     4   202   205    1
     5   193   192    2
     6   192   191    1
     7   190   191    1
     8     1     2    1
     9   191   194    1
    10     3     2    1
    11     3     4    2
    12   205   206    1
    13     2     5    1
    14   207   206   ar
    15   207   209   ar
    16     9    10    1
    17   206   208   ar
    18   100    99    2
    19   194   195    1
    20    99    98    1
    21   116   115    2
    22   109   108    2
    23    12    11    2
    24     5     6    1
    25     5     7    1
    26    11    10    1
    27   209   211   ar
    28   184   183    2
    29   126   125    2
    30     6     8    1
    31    10    13    1
    32   208   210   ar
    33   106   107    1
    34   195   197   ar
    35   195   196   ar
    36   129   131   ar
    37   129   128   ar
    38    98    97    1
    39    98   101    1
    40   197   199   ar
    41   108   107    1
    42   131   132   ar
    43   115   114    1
    44   211   210   ar
    45   113   114    1
    46   196   198   ar
    47   123   124    1
    48   127   128    1
    49   127   124    1
    50   183   182    1
    51   125   124    1
    52   199   200   ar
    53   128   130   ar
    54   107   110    1
    55    13    15    1
    56    13    14    1
    57   198   200   ar
    58   114   117    1
    59   137   138    1
    60   101   102    1
    61   132   130   ar
    62   132   134   ar
    63   117   118    1
    64   110   111    1
    65   110   112    1
    66   182   185    1
    67   182   181    1
    68   130   133   ar
    69   185   186    1
    70   102   103    1
    71   139   138    1
    72   139   140    2
    73    88    89    2
    74    88    87    1
    75   119   118   ar
    76   119   121   ar
    77   138   141    1
    78   134   136   ar
    79   141   142    1
    80   118   120   ar
    81   189   187   am
    82    87    86    1
    83    87    90    1
    84   133   135   ar
    85   186   187    1
    86   121   122   ar
    87   187   188    2
    88   103   105   am
    89   103   104    2
    90   136   135   ar
    91   144   142   ar
    92   142   143   ar
    93   120   122   ar
    94    90    91    1
    95    74    75    1
    96    75    76    1
    97    75    78    1
    98    92    91   ar
    99    92    94   ar
   100    76    77    2
   101    91    93   ar
   102   177   176    2
   103    80    82   ar
   104    80    79   ar
   105    94    96   ar
   106    78    79    1
   107   176   175    1
   108    37    35    1
   109    82    84   ar
   110    93    95   ar
   111    79    81   ar
   112   173   171   ar
   113   173   172   ar
   114   179   178    1
   115    96    95   ar
   116    72    70   ar
   117    72    73   ar
   118    35    34    1
   119   171   169   ar
   120   172   170   ar
   121    84    85    1
   122    84    83   ar
   123    70    68   ar
   124    73    71   ar
   125   175   178    1
   126   175   174    1
   127    36    34    1
   128    81    83   ar
   129   178   180    1
   130    47    45   ar
   131    47    46   ar
   132    68    67    1
   133    68    69   ar
   134    71    69   ar
   135    67    64    1
   136    28    29   ar
   137    28    26   ar
   138    45    43   ar
   139    34    31    1
   140    66    65    2
   141   169   168   ar
   142    29    27   ar
   143   170   168   ar
   144    46    44   ar
   145   153   152    1
   146    26    23   ar
   147   162   160   ar
   148    53    52    1
   149   168   167    1
   150    64    65    1
   151    64    63    1
   152    43    44   ar
   153    43    42    1
   154    31    30    1
   155    31    32    1
   156   152   151    1
   157    52    49    1
   158    27    25   ar
   159    61    60    2
   160   160   159    1
   161   160   161   ar
   162    30    18   am
   163    23    25   ar
   164    23    21   ar
   165    42    39    1
   166    32    33    2
   167    63    56   am
   168    51    50    2
   169   167   164    1
   170    25    24   ar
   171   159   158    1
   172    49    50    1
   173    49    48    1
   174   151   150    1
   175    57    56    2
   176    58    59    1
   177    58    55    1
   178    60    62   am
   179    60    59    1
   180    56    55    1
   181    41    40    2
   182    21    20    1
   183    21    22   ar
   184    20    17    1
   185    18    19    2
   186    18    17    1
   187   166   165    2
   188   150   149    1
   189    40    39    1
   190    39    38    1
   191   164   165    1
   192   164   163    1
   193   158   155    1
   194    24    22   ar
   195    16    17    1
   196    55    54    1
   197   145   146    1
   198   149   146    1
   199   155   154    1
   200   155   156    1
   201   157   156    2
   202   146   147    1
   203   147   148    2
