@<TRIPOS>MOLECULE
tmp/4d06A00.pdb
 222 213 0 0 0
SMALL
GASTEIGER

@<TRIPOS>ATOM
      1  N        119.5490  133.0060   57.2950 N.3    12  ILE12      -0.1245
      2  CA       118.2790  133.5460   57.7170 C.3    12  ILE12       0.1561
      3  C        117.3260  132.4140   58.0290 C.2    12  ILE12       0.2260
      4  O        117.2070  131.4570   57.2620 O.2    12  ILE12      -0.2867
      5  CB       117.6930  134.3880   56.5860 C.3    12  ILE12       0.0252
      6  CG1      118.5320  135.6530   56.4010 C.3    12  ILE12       0.0019
      7  CG2      116.2430  134.7890   56.8810 C.3    12  ILE12       0.0019
      8  CD1      118.2490  136.3540   55.1150 C.3    12  ILE12       0.0001
      9  N        113.7470  131.1900   58.3440 N.3    14  VAL14      -0.1245
     10  CA       112.4530  131.5400   57.7500 C.3    14  VAL14       0.1561
     11  C        111.3380  130.6250   58.2530 C.2    14  VAL14       0.2260
     12  O        111.2570  129.4440   57.8580 O.2    14  VAL14      -0.2867
     13  CB       112.4790  131.4430   56.2410 C.3    14  VAL14       0.0252
     14  CG1      111.1900  131.9520   55.7020 C.3    14  VAL14       0.0019
     15  CG2      113.5910  132.2910   55.6730 C.3    14  VAL14       0.0019
     16  N        105.6220  133.6900   47.2190 N.3    28  TRP28      -0.1227
     17  CA       106.3710  134.9530   47.2190 C.3    28  TRP28       0.1737
     18  C        107.8950  134.6520   47.1050 C.2    28  TRP28       0.2595
     19  O        108.6070  135.2920   46.3100 O.2    28  TRP28      -0.2718
     20  CB       106.0590  135.7830   48.4560 C.3    28  TRP28       0.0564
     21  CG       106.8850  137.0310   48.5450 C.ar   28  TRP28       0.0003
     22  CD1      106.6870  138.2010   47.9030 C.ar   28  TRP28       0.0946
     23  CD2      108.0640  137.1820   49.2910 C.ar   28  TRP28       0.0152
     24  NE1      107.7060  139.1100   48.1980 N.ar   28  TRP28      -0.2442
     25  CE2      108.5730  138.4860   49.0430 C.ar   28  TRP28       0.0810
     26  CE3      108.7620  136.3420   50.1440 C.ar   28  TRP28       0.0012
     27  CZ2      109.7460  138.9620   49.6340 C.ar   28  TRP28       0.0191
     28  CZ3      109.9320  136.8300   50.7590 C.ar   28  TRP28       0.0001
     29  CH2      110.3860  138.1290   50.4930 C.ar   28  TRP28       0.0015
     30  N        108.3550  133.7210   47.9060 N.am   29  ILE29      -0.1980
     31  CA       109.7840  133.3580   47.9440 C.3    29  ILE29       0.1595
     32  C        110.2870  132.9860   46.5300 C.2    29  ILE29       0.2287
     33  O        111.2770  133.5980   46.0580 O.2    29  ILE29      -0.2864
     34  CB       110.0400  132.2410   48.9560 C.3    29  ILE29       0.0276
     35  CG1      109.9710  132.7990   50.3730 C.3    29  ILE29       0.0022
     36  CG2      111.4210  131.6450   48.7380 C.3    29  ILE29       0.0022
     37  CD1      109.9580  131.7470   51.4540 C.3    29  ILE29       0.0001
     38  N        110.5710  136.8350   45.0270 N.3    33  HIS33      -0.1241
     39  CA       111.7530  137.2520   45.7350 C.3    33  HIS33       0.1621
     40  C        113.0840  136.8160   45.1120 C.2    33  HIS33       0.2264
     41  O        114.0540  137.5760   45.1180 O.2    33  HIS33      -0.2867
     42  CB       111.6730  136.7750   47.1530 C.3    33  HIS33       0.0745
     43  CG       112.6390  137.4730   48.0360 C.ar   33  HIS33       0.0817
     44  ND1      112.7500  138.8550   48.0460 N.ar   33  HIS33      -0.2268
     45  CD2      113.5690  137.0070   48.8920 C.ar   33  HIS33       0.1154
     46  CE1      113.6590  139.2130   48.9280 C.ar   33  HIS33       0.1986
     47  NE2      114.1930  138.1070   49.4300 N.ar   33  HIS33      -0.2212
     48  N        116.1820  139.3940   44.2650 N.3    37  SER37      -0.1217
     49  CA       117.3960  139.2230   45.0390 C.3    37  SER37       0.1889
     50  C        118.5710  138.9730   44.1180 C.2    37  SER37       0.2288
     51  O        119.6480  139.5790   44.2680 O.2    37  SER37      -0.2866
     52  CB       117.2600  138.0480   45.9720 C.3    37  SER37       0.2089
     53  OG       116.2590  138.3190   46.9130 O.3    37  SER37      -0.2183
     54  N        119.6380  142.1580   42.4260 N.3    40  GLN40      -0.1231
     55  CA       120.4010  143.0770   43.2720 C.3    40  GLN40       0.1698
     56  C        121.8600  142.6710   43.4920 C.2    40  GLN40       0.2592
     57  O        122.8350  143.4860   43.3570 O.2    40  GLN40      -0.2718
     58  CB       119.7370  143.1990   44.6440 C.3    40  GLN40       0.0381
     59  CG       118.3630  143.8130   44.6510 C.3    40  GLN40       0.0905
     60  CD       117.8520  144.1630   46.0330 C.2    40  GLN40       0.2608
     61  OE1      118.5600  144.0710   47.0440 O.2    40  GLN40      -0.2717
     62  NE2      116.6560  144.6870   46.0690 N.am   40  GLN40      -0.0878
     63  N        122.0530  141.3970   43.8180 N.am   41  PHE41      -0.1976
     64  CA       123.4010  140.9780   44.2710 C.3    41  PHE41       0.1639
     65  C        124.1800  139.9640   43.4750 C.2    41  PHE41       0.2290
     66  O        125.2730  139.5130   43.8930 O.2    41  PHE41      -0.2864
     67  CB       123.3020  140.5600   45.7260 C.3    41  PHE41       0.0560
     68  CG       122.3500  139.4050   46.0140 C.ar   41  PHE41      -0.0200
     69  CD1      122.4450  138.2140   45.3550 C.ar   41  PHE41      -0.0042
     70  CD2      121.4820  139.5130   47.0730 C.ar   41  PHE41      -0.0042
     71  CE1      121.6060  137.1380   45.7030 C.ar   41  PHE41      -0.0003
     72  CE2      120.6380  138.4750   47.4440 C.ar   41  PHE41      -0.0003
     73  CZ       120.7180  137.2620   46.7530 C.ar   41  PHE41      -0.0000
     74  N        123.6230  131.5350   46.5300 N.3    48  TYR48      -0.1241
     75  CA       122.3990  131.9530   47.1440 C.3    48  TYR48       0.1605
     76  C        121.4920  130.7220   47.0840 C.2    48  TYR48       0.2264
     77  O        121.1590  130.2600   45.9800 O.2    48  TYR48      -0.2867
     78  CB       121.8110  133.0830   46.3090 C.3    48  TYR48       0.0534
     79  CG       120.4270  133.5250   46.6030 C.ar   48  TYR48      -0.0201
     80  CD1      119.9920  133.6890   47.8920 C.ar   48  TYR48      -0.0009
     81  CD2      119.5820  133.9080   45.5910 C.ar   48  TYR48      -0.0009
     82  CE1      118.7210  134.1700   48.1890 C.ar   48  TYR48       0.0417
     83  CE2      118.2920  134.3700   45.8620 C.ar   48  TYR48       0.0417
     84  CZ       117.8700  134.4940   47.1630 C.ar   48  TYR48       0.1957
     85  OH       116.5870  134.9760   47.4250 O.3    48  TYR48      -0.2866
     86  N        118.4230  128.0170   49.1710 N.3    50  PHE50      -0.1241
     87  CA       117.3950  127.7530   50.1820 C.3    50  PHE50       0.1605
     88  C        117.4070  126.2650   50.5400 C.2    50  PHE50       0.2264
     89  O        117.4750  125.4230   49.6350 O.2    50  PHE50      -0.2867
     90  CB       115.9670  128.0610   49.6460 C.3    50  PHE50       0.0534
     91  CG       115.7690  129.4300   49.0780 C.ar   50  PHE50      -0.0203
     92  CD1      116.3720  130.5340   49.5940 C.ar   50  PHE50      -0.0042
     93  CD2      114.8000  129.6140   48.0840 C.ar   50  PHE50      -0.0042
     94  CE1      116.0600  131.8100   49.1170 C.ar   50  PHE50      -0.0003
     95  CE2      114.5300  130.8810   47.5730 C.ar   50  PHE50      -0.0003
     96  CZ       115.1270  131.9810   48.0860 C.ar   50  PHE50      -0.0000
     97  N        112.1810  127.4410   55.8530 N.3    69  GLN69      -0.1245
     98  CA       113.5140  127.1240   55.2940 C.3    69  GLN69       0.1566
     99  C        114.6240  127.8660   55.9750 C.2    69  GLN69       0.2260
    100  O        114.3920  128.8370   56.7030 O.2    69  GLN69      -0.2867
    101  CB       113.5210  127.4540   53.7910 C.3    69  GLN69       0.0367
    102  CG       113.5510  128.9580   53.5260 C.3    69  GLN69       0.0905
    103  CD       113.1980  129.3240   52.1020 C.2    69  GLN69       0.2608
    104  OE1      112.2760  128.7640   51.5240 O.2    69  GLN69      -0.2717
    105  NE2      113.8770  130.3220   51.5510 N.am   69  GLN69      -0.0878
    106  N        117.6270  130.2790   54.6450 N.3    71  THR71      -0.1218
    107  CA       118.1400  130.9690   53.4730 C.3    71  THR71       0.1862
    108  C        119.6320  131.2870   53.6710 C.2    71  THR71       0.2287
    109  O        120.0210  131.8510   54.6900 O.2    71  THR71      -0.2866
    110  CB       117.3530  132.2510   53.2470 C.3    71  THR71       0.1770
    111  OG1      115.9890  131.9420   52.8270 O.3    71  THR71      -0.2211
    112  CG2      118.0360  133.1680   52.2400 C.3    71  THR71       0.0375
    113  N        123.2910  132.8650   52.0290 N.3    73  HIS73      -0.1241
    114  CA       124.0520  133.6490   51.0690 C.3    73  HIS73       0.1621
    115  C        125.5370  133.4730   51.3600 C.2    73  HIS73       0.2264
    116  O        125.9330  133.3810   52.5260 O.2    73  HIS73      -0.2867
    117  CB       123.7690  135.1470   51.2350 C.3    73  HIS73       0.0745
    118  CG       122.3540  135.5690   50.9330 C.ar   73  HIS73       0.0817
    119  ND1      121.3140  135.3060   51.7750 N.ar   73  HIS73      -0.2268
    120  CD2      121.8310  136.2590   49.8850 C.ar   73  HIS73       0.1154
    121  CE1      120.2040  135.8290   51.2770 C.ar   73  HIS73       0.1986
    122  NE2      120.4920  136.3920   50.1140 N.ar   73  HIS73      -0.2212
    123  N        128.6330  135.9610   50.6160 N.3    75  TRP75      -0.1241
    124  CA       128.8710  137.3510   50.2620 C.3    75  TRP75       0.1605
    125  C        130.3420  137.5830   50.0490 C.2    75  TRP75       0.2264
    126  O        131.1740  136.9920   50.7560 O.2    75  TRP75      -0.2867
    127  CB       128.4580  138.2950   51.4230 C.3    75  TRP75       0.0550
    128  CG       127.0450  138.1640   51.8630 C.ar   75  TRP75       0.0003
    129  CD1      126.5800  137.3700   52.8480 C.ar   75  TRP75       0.0946
    130  CD2      125.9410  138.9210   51.4000 C.ar   75  TRP75       0.0152
    131  NE1      125.2530  137.5540   52.9960 N.ar   75  TRP75      -0.2442
    132  CE2      124.8310  138.4790   52.0920 C.ar   75  TRP75       0.0810
    133  CE3      125.7900  139.9060   50.4240 C.ar   75  TRP75       0.0012
    134  CZ2      123.5390  138.9490   51.8230 C.ar   75  TRP75       0.0191
    135  CZ3      124.5310  140.3710   50.1230 C.ar   75  TRP75       0.0001
    136  CH2      123.3930  139.8930   50.8490 C.ar   75  TRP75       0.0015
    137  N        126.8390  143.3230   53.1660 N.3    79  ASP79      -0.1239
    138  CA       125.5480  143.8430   52.7170 C.3    79  ASP79       0.1674
    139  C        125.0930  145.0350   53.5440 C.2    79  ASP79       0.2266
    140  O        124.1240  145.7030   53.1800 O.2    79  ASP79      -0.2867
    141  CB       124.4670  142.7380   52.8100 C.3    79  ASP79       0.1410
    142  CG       123.1330  143.1220   52.0610 C.2    79  ASP79       0.3668
    143  OD1      123.1990  143.6730   50.9550 O.co2  79  ASP79      -0.2456
    144  OD2      122.0540  142.7630   52.5910 O.co2  79  ASP79      -0.2456
    145  N        119.6420  151.0890   45.6200 N.3    87  LYS87      -0.1245
    146  CA       119.2380  150.0060   44.6960 C.3    87  LYS87       0.1561
    147  C        118.3650  150.5600   43.5930 C.2    87  LYS87       0.2260
    148  O        117.3760  151.2410   43.9050 O.2    87  LYS87      -0.2867
    149  CB       118.4610  148.8830   45.4310 C.3    87  LYS87       0.0271
    150  CG       119.2840  148.2630   46.5750 C.3    87  LYS87       0.0035
    151  CD       118.4750  147.3810   47.5340 C.3    87  LYS87       0.0206
    152  CE       119.4080  146.8140   48.6170 C.3    87  LYS87       0.1093
    153  NZ       118.7990  145.6950   49.4510 N.3    87  LYS87      -0.1314
    154  N        113.1440  145.6310   46.3110 N.3    91  GLU91      -0.1245
    155  CA       112.4090  144.4060   46.4200 C.3    91  GLU91       0.1567
    156  C        110.8930  144.6340   46.5580 C.2    91  GLU91       0.2260
    157  O        110.4840  145.5060   47.2780 O.2    91  GLU91      -0.2867
    158  CB       112.8370  143.6600   47.6760 C.3    91  GLU91       0.0388
    159  CG       114.2240  143.1050   47.5860 C.3    91  GLU91       0.1160
    160  CD       114.9720  143.1070   48.9670 C.2    91  GLU91       0.3649
    161  OE1      114.4630  142.3520   49.8900 O.co2  91  GLU91      -0.2457
    162  OE2      115.9990  143.8830   49.1010 O.co2  91  GLU91      -0.2457
    163  N        108.0540  143.6410   48.4110 N.3    93  PHE93      -0.1241
    164  CA       108.0550  143.0550   49.7390 C.3    93  PHE93       0.1605
    165  C        106.8140  143.5530   50.4530 C.2    93  PHE93       0.2264
    166  O        106.8680  144.5670   51.1380 O.2    93  PHE93      -0.2867
    167  CB       109.2620  143.5130   50.5400 C.3    93  PHE93       0.0534
    168  CG       109.8490  142.4610   51.4880 C.ar   93  PHE93      -0.0203
    169  CD1      109.1260  141.9670   52.5340 C.ar   93  PHE93      -0.0042
    170  CD2      111.2270  142.0600   51.3640 C.ar   93  PHE93      -0.0042
    171  CE1      109.6640  141.0880   53.4450 C.ar   93  PHE93      -0.0003
    172  CE2      111.8080  141.1420   52.2800 C.ar   93  PHE93      -0.0003
    173  CZ       110.9910  140.6510   53.3290 C.ar   93  PHE93      -0.0000
    174  N        104.4130  139.3130   54.1210 N.3    97  VAL97      -0.1245
    175  CA       105.4710  138.3400   54.3090 C.3    97  VAL97       0.1561
    176  C        105.8780  138.2830   55.7760 C.2    97  VAL97       0.2260
    177  O        106.1390  137.1950   56.3400 O.2    97  VAL97      -0.2867
    178  CB       106.7060  138.7280   53.4760 C.3    97  VAL97       0.0252
    179  CG1      107.9090  137.8530   53.8560 C.3    97  VAL97       0.0019
    180  CG2      106.3980  138.5220   52.0150 C.3    97  VAL97       0.0019
    181  N        105.6670  134.9380   58.2010 N.3   101  GLN101     -0.1245
    182  CA       106.8560  134.4260   58.8560 C.3   101  GLN101      0.1566
    183  C        106.7890  134.6080   60.3840 C.2   101  GLN101      0.2260
    184  O        107.6680  134.1250   61.1140 O.2   101  GLN101     -0.2867
    185  CB       108.1160  135.1240   58.3290 C.3   101  GLN101      0.0367
    186  CG       108.4130  134.7900   56.8850 C.3   101  GLN101      0.0905
    187  CD       109.6260  135.5050   56.2880 C.2   101  GLN101      0.2608
    188  OE1      109.9780  135.2710   55.1280 O.2   101  GLN101     -0.2717
    189  NE2      110.2110  136.3960   57.0260 N.am  101  GLN101     -0.0878
    190  N        114.3370  142.9090   56.9360 N.3   125  ARG125     -0.1245
    191  CA       115.3830  142.0220   57.4960 C.3   125  ARG125      0.1563
    192  C        115.9180  142.4450   58.9130 C.2   125  ARG125      0.2260
    193  O        116.6520  141.6710   59.5670 O.2   125  ARG125     -0.2867
    194  CB       116.5530  141.8320   56.4670 C.3   125  ARG125      0.0307
    195  CG       116.1300  140.9830   55.2410 C.3   125  ARG125      0.0489
    196  CD       117.2710  140.6850   54.2750 C.3   125  ARG125      0.2205
    197  NE       117.5560  141.8530   53.4440 N.pl3 125  ARG125     -0.0865
    198  CZ       116.8360  142.2080   52.3690 C.cat 125  ARG125      0.5346
    199  NH1      115.7660  141.4320   51.9770 N.pl3 125  ARG125      0.1354
    200  NH2      117.1870  143.3460   51.6970 N.pl3 125  ARG125      0.1354
    201  N        113.3790  139.1810   63.0870 N.3   135  PHE135     -0.1241
    202  CA       113.9660  138.6310   61.9000 C.3   135  PHE135      0.1605
    203  C        115.4310  138.3000   62.2430 C.2   135  PHE135      0.2264
    204  O        116.1900  139.1960   62.5590 O.2   135  PHE135     -0.2867
    205  CB       113.9360  139.6650   60.7960 C.3   135  PHE135      0.0534
    206  CG       114.2460  139.1020   59.4620 C.ar  135  PHE135     -0.0203
    207  CD1      115.5260  139.0270   59.0180 C.ar  135  PHE135     -0.0042
    208  CD2      113.2430  138.6780   58.6370 C.ar  135  PHE135     -0.0042
    209  CE1      115.8300  138.5040   57.7790 C.ar  135  PHE135     -0.0003
    210  CE2      113.5320  138.1380   57.3740 C.ar  135  PHE135     -0.0003
    211  CZ       114.8440  138.0410   56.9590 C.ar  135  PHE135     -0.0000
    212  N        119.0260  137.1700   61.0960 N.3   137  PHE137     -0.1241
    213  CA       119.9010  137.1900   59.9290 C.3   137  PHE137      0.1605
    214  C        121.3170  137.2000   60.5090 C.2   137  PHE137      0.2264
    215  O        121.7810  138.2280   61.0010 O.2   137  PHE137     -0.2867
    216  CB       119.5690  138.4730   59.1910 C.3   137  PHE137      0.0534
    217  CG       120.2930  138.7240   57.8850 C.ar  137  PHE137     -0.0203
    218  CD1      121.0210  137.7790   57.2250 C.ar  137  PHE137     -0.0042
    219  CD2      120.1400  139.9720   57.2750 C.ar  137  PHE137     -0.0042
    220  CE1      121.6370  138.0700   56.0040 C.ar  137  PHE137     -0.0003
    221  CE2      120.7720  140.2800   56.0590 C.ar  137  PHE137     -0.0003
    222  CZ       121.5030  139.3020   55.4030 C.ar  137  PHE137     -0.0000
@<TRIPOS>BOND
     1    54    55    1
     2    55    56    1
     3    55    58    1
     4    57    56    2
     5    65    66    2
     6    65    64    1
     7    56    63   am
     8   147   148    2
     9   147   146    1
    10    63    64    1
    11    50    51    2
    12    50    49    1
    13    48    49    1
    14    64    67    1
    15    58    59    1
    16    59    60    1
    17   146   149    1
    18   146   145    1
    19    38    39    1
    20    49    52    1
    21    40    41    2
    22    40    39    1
    23    69    71   ar
    24    69    68   ar
    25   149   150    1
    26    81    83   ar
    27    81    79   ar
    28    71    73   ar
    29    67    68    1
    30    39    42    1
    31    83    84   ar
    32    52    53    1
    33    77    76    2
    34    68    70   ar
    35    60    62   am
    36    60    61    2
    37    33    32    2
    38    78    79    1
    39    78    75    1
    40    19    18    2
    41   154   155    1
    42   155   156    1
    43   155   158    1
    44    32    31    1
    45    74    75    1
    46   156   157    2
    47   150   151    1
    48    79    80   ar
    49    73    72   ar
    50    70    72   ar
    51    76    75    1
    52    18    17    1
    53    18    30   am
    54    42    43    1
    55    84    85    1
    56    84    82   ar
    57    16    17    1
    58    17    20    1
    59   151   152    1
    60    95    93   ar
    61    95    96   ar
    62   159   158    1
    63   159   160    1
    64    80    82   ar
    65    22    24   ar
    66    22    21   ar
    67    30    31    1
    68    31    34    1
    69    43    44   ar
    70    43    45   ar
    71    44    46   ar
    72    93    91   ar
    73    96    94   ar
    74    24    25   ar
    75   163   164    1
    76    20    21    1
    77    21    23   ar
    78   152   153    1
    79    36    34    1
    80    45    47   ar
    81    46    47   ar
    82    34    35    1
    83   160   162   ar
    84   160   161   ar
    85    25    23   ar
    86    25    27   ar
    87    91    92   ar
    88    91    90    1
    89    94    92   ar
    90    86    87    1
    91    23    26   ar
    92    27    29   ar
    93    89    88    2
    94    90    87    1
    95   164   165    1
    96   164   167    1
    97   120   122   ar
    98   120   118   ar
    99   125   124    1
   100   125   126    2
   101   122   121   ar
   102   135   133   ar
   103   135   136   ar
   104    26    28   ar
   105    87    88    1
   106   124   123    1
   107   124   127    1
   108    35    37    1
   109   133   130   ar
   110   165   166    2
   111    29    28   ar
   112   167   168    1
   113   136   134   ar
   114   118   117    1
   115   118   119   ar
   116   143   142   ar
   117   114   117    1
   118   114   115    1
   119   114   113    1
   120   121   119   ar
   121   115   116    2
   122   170   168   ar
   123   170   172   ar
   124   130   128   ar
   125   130   132   ar
   126   127   128    1
   127   168   169   ar
   128   104   103    2
   129   105   103   am
   130   200   198    1
   131   134   132   ar
   132   128   129   ar
   133   199   198    1
   134   180   178    1
   135   142   144   ar
   136   142   141    1
   137   132   131   ar
   138   103   102    1
   139   112   110    1
   140   172   173   ar
   141   198   197    2
   142   169   171   ar
   143   138   141    1
   144   138   137    1
   145   138   139    1
   146   111   110    1
   147   129   131   ar
   148   140   139    2
   149   110   107    1
   150   173   171   ar
   151   197   196    1
   152   107   108    1
   153   107   106    1
   154   178   179    1
   155   178   175    1
   156   102   101    1
   157   108   109    2
   158   101    98    1
   159   174   175    1
   160   196   195    1
   161   175   176    1
   162     8     6    1
   163   188   187    2
   164   195   194    1
   165    98    97    1
   166    98    99    1
   167   222   220   ar
   168   222   221   ar
   169    15    13    1
   170    14    13    1
   171   176   177    2
   172    99   100    2
   173   220   218   ar
   174   221   219   ar
   175    13    10    1
   176   187   186    1
   177   187   189   am
   178     6     5    1
   179   194   191    1
   180     5     7    1
   181     5     2    1
   182   186   185    1
   183   190   191    1
   184   211   210   ar
   185   211   209   ar
   186   218   217   ar
   187     4     3    2
   188   219   217   ar
   189     1     2    1
   190   210   208   ar
   191   191   192    1
   192     2     3    1
   193    10    11    1
   194    10     9    1
   195   209   207   ar
   196    12    11    2
   197   217   216    1
   198   181   182    1
   199   185   182    1
   200   208   206   ar
   201   182   183    1
   202   192   193    2
   203   207   206   ar
   204   216   213    1
   205   206   205    1
   206   213   214    1
   207   213   212    1
   208   183   184    2
   209   214   215    2
   210   205   202    1
   211   202   203    1
   212   202   201    1
   213   203   204    2
