@<TRIPOS>MOLECULE
tmp/4d06D01.pdb
 89 88 0 0 0
SMALL
GASTEIGER

@<TRIPOS>ATOM
      1  N         93.9640  142.2230   27.5990 N.3    95  MET95      -0.1245
      2  CA        93.4570  142.7590   26.3250 C.3    95  MET95       0.1570
      3  C         94.4320  143.7500   25.6940 C.2    95  MET95       0.2261
      4  O         94.5580  143.8610   24.4880 O.2    95  MET95      -0.2867
      5  CB        92.1050  143.4840   26.5170 C.3    95  MET95       0.0387
      6  CG        91.5330  143.9800   25.1750 C.3    95  MET95       0.0595
      7  SD        89.7240  144.0290   25.0010 S.3    95  MET95      -0.1393
      8  CE        89.4830  142.2570   24.8930 C.3    95  MET95       0.0692
      9  N         96.6560  142.8800   22.7260 N.3    98  LEU98      -0.1245
     10  CA        96.0530  142.9740   21.4020 C.3    98  LEU98       0.1561
     11  C         96.0740  144.4010   20.8990 C.2    98  LEU98       0.2260
     12  O         96.1410  144.6430   19.6720 O.2    98  LEU98      -0.2867
     13  CB        94.6340  142.4250   21.4350 C.3    98  LEU98       0.0270
     14  CG        94.5290  140.9450   21.7970 C.3    98  LEU98       0.0019
     15  CD1       93.0800  140.5090   21.9210 C.3    98  LEU98       0.0001
     16  CD2       95.1800  140.1160   20.7670 C.3    98  LEU98       0.0001
     17  N         96.0400  144.1350   16.8260 N.3   103  GLN103     -0.1231
     18  CA        94.8370  143.3620   16.5260 C.3   103  GLN103      0.1698
     19  C         93.5810  144.1730   16.8220 C.2   103  GLN103      0.2592
     20  O         92.5840  144.0470   16.0970 O.2   103  GLN103     -0.2718
     21  CB        94.7470  142.0340   17.2620 C.3   103  GLN103      0.0381
     22  CG        95.5240  140.8920   16.6350 C.3   103  GLN103      0.0905
     23  CD        97.0310  141.0560   16.8590 C.2   103  GLN103      0.2608
     24  OE1       97.4810  141.2620   17.9790 O.2   103  GLN103     -0.2717
     25  NE2       97.7920  140.9580   15.7960 N.am  103  GLN103     -0.0878
     26  N         93.6100  144.9480   17.8820 N.am  104  ILE104     -0.1966
     27  CA        92.5350  145.8630   18.1980 C.3   104  ILE104      0.1712
     28  C         93.0280  147.2710   17.9400 C.2   104  ILE104      0.2458
     29  O         94.0280  147.7080   18.5180 O.2   104  ILE104     -0.2730
     30  CB        92.1590  145.7540   19.7020 C.3   104  ILE104      0.0289
     31  CG1       91.5730  144.3700   20.0150 C.3   104  ILE104      0.0022
     32  CG2       91.1900  146.8550   20.0890 C.3   104  ILE104      0.0023
     33  CD1       91.3570  144.1480   21.5030 C.3   104  ILE104      0.0001
     34  N         92.2710  148.0450   17.1570 N.am  105  PRO105     -0.2727
     35  CA        92.6330  149.5130   17.0600 C.3   105  PRO105      0.1402
     36  C         92.4560  150.1900   18.3940 C.2   105  PRO105      0.2269
     37  O         91.6770  149.6900   19.1910 O.2   105  PRO105     -0.2865
     38  CB        91.6430  150.0460   16.0560 C.3   105  PRO105      0.0296
     39  CG        90.6090  148.9650   15.8580 C.3   105  PRO105      0.0237
     40  CD        90.9270  147.7420   16.6490 C.3   105  PRO105      0.0939
     41  N         92.0080  150.4680   11.1450 N.3   108  GLU108     -0.1231
     42  CA        91.4110  149.1230   11.0560 C.3   108  GLU108      0.1699
     43  C         92.3230  148.1580   11.9170 C.2   108  GLU108      0.2593
     44  O         93.5470  148.3460   11.9210 O.2   108  GLU108     -0.2718
     45  CB        91.4800  148.7430    9.5920 C.3   108  GLU108      0.0402
     46  CG        90.9150  147.4140    9.1730 C.3   108  GLU108      0.1161
     47  CD        91.2480  147.1760    7.7270 C.2   108  GLU108      0.3649
     48  OE1       92.0090  147.9880    7.0710 O.co2 108  GLU108     -0.2457
     49  OE2       90.7290  146.1740    7.2510 O.co2 108  GLU108     -0.2457
     50  N         91.7370  147.1720   12.6050 N.am  109  GLY109     -0.1942
     51  CA        92.5130  146.1490   13.2470 C.3   109  GLY109      0.2014
     52  C         93.1770  145.1820   12.2700 C.2   109  GLY109      0.2639
     53  O         92.8400  145.1470   11.1240 O.2   109  GLY109     -0.2714
     54  N         94.1860  144.4560   12.7550 N.am  110  ASN110     -0.1958
     55  CA        94.8860  143.4940   11.9340 C.3   110  ASN110      0.1804
     56  C         94.6790  142.0890   12.5250 C.2   110  ASN110      0.2463
     57  O         94.6130  141.9510   13.7020 O.2   110  ASN110     -0.2730
     58  CB        96.3350  143.8200   11.9030 C.3   110  ASN110      0.1195
     59  CG        96.6300  145.1430   11.2660 C.2   110  ASN110      0.2630
     60  OD1       95.9830  145.6030   10.3310 O.2   110  ASN110     -0.2716
     61  ND2       97.6960  145.7330   11.7170 N.am  110  ASN110     -0.0877
     62  N         94.6330  141.0500   11.7030 N.am  111  PRO111     -0.2716
     63  CA        94.5560  139.7220   12.2340 C.3   111  PRO111      0.1536
     64  C         95.8760  139.3260   12.9550 C.2   111  PRO111      0.2598
     65  O         96.8930  140.0360   12.8550 O.2   111  PRO111     -0.2715
     66  CB        94.3400  138.8560   10.9870 C.3   111  PRO111      0.0310
     67  CG        94.9450  139.6380    9.8670 C.3   111  PRO111      0.0237
     68  CD        94.8290  141.0910   10.2500 C.3   111  PRO111      0.0939
     69  N         95.8180  138.2350   13.6810 N.am  112  PHE112     -0.1974
     70  CA        96.9290  137.6470   14.4070 C.3   112  PHE112      0.1639
     71  C         97.4270  136.5240   13.5090 C.2   112  PHE112      0.2290
     72  O         96.7070  135.5600   13.3090 O.2   112  PHE112     -0.2864
     73  CB        96.4180  137.0450   15.7250 C.3   112  PHE112      0.0560
     74  CG        97.4970  136.4460   16.5810 C.ar  112  PHE112     -0.0200
     75  CD1       98.3950  137.2610   17.2080 C.ar  112  PHE112     -0.0042
     76  CD2       97.6260  135.0690   16.7330 C.ar  112  PHE112     -0.0042
     77  CE1       99.4800  136.7230   17.9690 C.ar  112  PHE112     -0.0003
     78  CE2       98.6720  134.5310   17.4820 C.ar  112  PHE112     -0.0003
     79  CZ        99.5770  135.3620   18.1250 C.ar  112  PHE112     -0.0000
     80  N         97.4960  142.0210    6.6810 N.3   233  HIS233     -0.1241
     81  CA        96.3940  141.1460    6.4380 C.3   233  HIS233      0.1621
     82  C         96.6930  140.0030    5.5030 C.2   233  HIS233      0.2264
     83  O         96.3700  138.8780    5.8150 O.2   233  HIS233     -0.2867
     84  CB        95.1890  141.9880    5.9070 C.3   233  HIS233      0.0745
     85  CG        94.5990  142.8800    6.9360 C.ar  233  HIS233      0.0817
     86  ND1       93.2540  142.9090    7.2320 N.ar  233  HIS233     -0.2268
     87  CD2       95.1670  143.8090    7.7320 C.ar  233  HIS233      0.1154
     88  CE1       93.0150  143.8030    8.1700 C.ar  233  HIS233      0.1986
     89  NE2       94.1570  144.3740    8.4860 N.ar  233  HIS233     -0.2212
@<TRIPOS>BOND
     1    82    83    2
     2    82    81    1
     3    84    81    1
     4    84    85    1
     5    81    80    1
     6    85    86   ar
     7    85    87   ar
     8    48    47   ar
     9    86    88   ar
    10    49    47   ar
    11    47    46    1
    12    87    89   ar
    13    88    89   ar
    14    46    45    1
    15    45    42    1
    16    67    68    1
    17    67    66    1
    18    68    62    1
    19    60    59    2
    20    66    63    1
    21    42    41    1
    22    42    43    1
    23    53    52    2
    24    59    61   am
    25    59    58    1
    26    62    63    1
    27    62    56   am
    28    58    55    1
    29    43    44    2
    30    43    50   am
    31    55    56    1
    32    55    54    1
    33    63    64    1
    34    52    54   am
    35    52    51    1
    36    56    57    2
    37    50    51    1
    38    65    64    2
    39    64    69   am
    40    72    71    2
    41    71    70    1
    42    69    70    1
    43    70    73    1
    44    73    74    1
    45    25    23   am
    46    39    38    1
    47    39    40    1
    48    38    35    1
    49    20    19    2
    50    18    19    1
    51    18    17    1
    52    18    21    1
    53    74    76   ar
    54    74    75   ar
    55    22    23    1
    56    22    21    1
    57    40    34    1
    58    76    78   ar
    59    19    26   am
    60    23    24    2
    61    35    34    1
    62    35    36    1
    63    34    28   am
    64    75    77   ar
    65    78    79   ar
    66    26    27    1
    67    28    27    1
    68    28    29    2
    69    77    79   ar
    70    27    30    1
    71    36    37    2
    72    12    11    2
    73    30    31    1
    74    30    32    1
    75    31    33    1
    76    16    14    1
    77    11    10    1
    78    10    13    1
    79    10     9    1
    80    13    14    1
    81    14    15    1
    82     4     3    2
    83     8     7    1
    84     7     6    1
    85     6     5    1
    86     3     2    1
    87     2     5    1
    88     2     1    1
