@<TRIPOS>MOLECULE
tmp/4d08D00.pdb
 219 208 0 0 0
SMALL
GASTEIGER

@<TRIPOS>ATOM
      1  N         27.9660  -22.0520   25.9210 N.3    69  TYR69      -0.1227
      2  CA        26.8250  -21.1390   25.8100 C.3    69  TYR69       0.1736
      3  C         26.0090  -21.3380   24.5320 C.2    69  TYR69       0.2595
      4  O         24.7950  -21.5170   24.6040 O.2    69  TYR69      -0.2718
      5  CB        27.2800  -19.6810   25.9150 C.3    69  TYR69       0.0548
      6  CG        26.1210  -18.7080   25.8470 C.ar   69  TYR69      -0.0200
      7  CD1       25.3070  -18.4930   26.9570 C.ar   69  TYR69      -0.0009
      8  CD2       25.8240  -18.0250   24.6710 C.ar   69  TYR69      -0.0009
      9  CE1       24.2350  -17.6240   26.9020 C.ar   69  TYR69       0.0417
     10  CE2       24.7520  -17.1440   24.6060 C.ar   69  TYR69       0.0417
     11  CZ        23.9620  -16.9480   25.7270 C.ar   69  TYR69       0.1957
     12  OH        22.8980  -16.0780   25.6870 O.3    69  TYR69      -0.2866
     13  N         26.6640  -21.3060   23.3730 N.am   70  HIS70      -0.1975
     14  CA        25.9500  -21.3290   22.0830 C.3    70  HIS70       0.1656
     15  C         25.5440  -22.7330   21.6530 C.2    70  HIS70       0.2291
     16  O         26.0520  -23.2740   20.6740 O.2    70  HIS70      -0.2864
     17  CB        26.7720  -20.6410   20.9930 C.3    70  HIS70       0.0771
     18  CG        26.8250  -19.1530   21.1400 C.ar   70  HIS70       0.0820
     19  ND1       27.9680  -18.4780   21.5090 N.ar   70  HIS70      -0.2267
     20  CD2       25.8660  -18.2110   20.9840 C.ar   70  HIS70       0.1154
     21  CE1       27.7130  -17.1820   21.5670 C.ar   70  HIS70       0.1986
     22  NE2       26.4450  -16.9940   21.2480 N.ar   70  HIS70      -0.2212
     23  N         20.4060  -22.4740   24.5360 N.3    74  HIS74      -0.1241
     24  CA        20.4020  -21.0470   24.1940 C.3    74  HIS74       0.1621
     25  C         19.2830  -20.7620   23.1910 C.2    74  HIS74       0.2264
     26  O         18.4560  -19.8940   23.4320 O.2    74  HIS74      -0.2867
     27  CB        21.7550  -20.5850   23.6360 C.3    74  HIS74       0.0745
     28  CG        21.7290  -19.2270   22.9900 C.ar   74  HIS74       0.0817
     29  ND1       21.3230  -18.0900   23.6530 N.ar   74  HIS74      -0.2268
     30  CD2       22.0930  -18.8220   21.7470 C.ar   74  HIS74       0.1154
     31  CE1       21.4230  -17.0460   22.8440 C.ar   74  HIS74       0.1986
     32  NE2       21.8870  -17.4620   21.6800 N.ar   74  HIS74      -0.2212
     33  N         26.9890  -23.3430   15.7830 N.3   114  HIS114     -0.1241
     34  CA        27.9650  -22.4450   16.4120 C.3   114  HIS114      0.1621
     35  C         29.1110  -23.2950   16.9750 C.2   114  HIS114      0.2264
     36  O         28.8650  -24.3660   17.5280 O.2   114  HIS114     -0.2867
     37  CB        27.3100  -21.6140   17.5280 C.3   114  HIS114      0.0745
     38  CG        27.9440  -20.2710   17.7400 C.ar  114  HIS114      0.0817
     39  ND1       29.1020  -20.0980   18.4640 N.ar  114  HIS114     -0.2268
     40  CD2       27.5690  -19.0340   17.3340 C.ar  114  HIS114      0.1154
     41  CE1       29.4240  -18.8170   18.4850 C.ar  114  HIS114      0.1986
     42  NE2       28.5090  -18.1490   17.8080 N.ar  114  HIS114     -0.2212
     43  N         33.8450  -16.4840   17.9270 N.3   118  ASN118     -0.1240
     44  CA        33.2180  -15.3390   17.2640 C.3   118  ASN118      0.1653
     45  C         33.6750  -15.1730   15.8000 C.2   118  ASN118      0.2266
     46  O         34.4240  -15.9980   15.2720 O.2   118  ASN118     -0.2867
     47  CB        33.4280  -14.0600   18.0900 C.3   118  ASN118      0.1155
     48  CG        34.8540  -13.5360   18.0450 C.2   118  ASN118      0.2627
     49  OD1       35.7560  -14.1800   17.5260 O.2   118  ASN118     -0.2716
     50  ND2       35.0560  -12.3430   18.6010 N.am  118  ASN118     -0.0877
     51  N         21.3280  -10.7750   14.2030 N.3   182  THR182     -0.1218
     52  CA        21.8850  -11.2690   15.4630 C.3   182  THR182      0.1862
     53  C         23.3880  -11.0120   15.6130 C.2   182  THR182      0.2287
     54  O         23.9460  -11.2400   16.6860 O.2   182  THR182     -0.2866
     55  CB        21.6230  -12.7810   15.6550 C.3   182  THR182      0.1770
     56  OG1       22.1870  -13.5150   14.5680 O.3   182  THR182     -0.2211
     57  CG2       20.1460  -13.0600   15.7410 C.3   182  THR182      0.0375
     58  N         26.1840   -8.6870   16.4700 N.3   184  LEU184     -0.1245
     59  CA        26.3160   -7.4550   17.2440 C.3   184  LEU184      0.1561
     60  C         26.7730   -6.2770   16.3840 C.2   184  LEU184      0.2260
     61  O         26.3270   -5.1420   16.5900 O.2   184  LEU184     -0.2867
     62  CB        27.2950   -7.6500   18.4030 C.3   184  LEU184      0.0270
     63  CG        27.5410   -6.4200   19.2810 C.3   184  LEU184      0.0019
     64  CD1       26.2390   -5.9110   19.8770 C.3   184  LEU184      0.0001
     65  CD2       28.5450   -6.7390   20.3750 C.3   184  LEU184      0.0001
     66  N         23.7840   -4.8750   14.6520 N.3   187  HIS187     -0.1241
     67  CA        23.0010   -4.1050   15.6030 C.3   187  HIS187      0.1621
     68  C         23.6210   -2.7400   15.8880 C.2   187  HIS187      0.2264
     69  O         22.9180   -1.7320   15.9290 O.2   187  HIS187     -0.2867
     70  CB        22.8370   -4.8750   16.9070 C.3   187  HIS187      0.0745
     71  CG        22.2790   -4.0480   18.0160 C.ar  187  HIS187      0.0817
     72  ND1       20.9610   -3.6540   18.0560 N.ar  187  HIS187     -0.2268
     73  CD2       22.8630   -3.5270   19.1190 C.ar  187  HIS187      0.1154
     74  CE1       20.7550   -2.9310   19.1410 C.ar  187  HIS187      0.1986
     75  NE2       21.8950   -2.8300   19.7980 N.ar  187  HIS187     -0.2212
     76  N         17.2070   -9.1450   18.7540 N.3   219  THR219     -0.1218
     77  CA        18.3010   -8.8780   19.6850 C.3   219  THR219      0.1862
     78  C         17.8100   -8.9520   21.1330 C.2   219  THR219      0.2287
     79  O         18.5510   -9.4020   22.0180 O.2   219  THR219     -0.2866
     80  CB        19.0240   -7.5440   19.3950 C.3   219  THR219      0.1770
     81  OG1       18.0940   -6.4550   19.4120 O.3   219  THR219     -0.2211
     82  CG2       19.7110   -7.6000   18.0410 C.3   219  THR219      0.0375
     83  N         17.7820  -12.6260   21.8610 N.3   222  ASP222     -0.1225
     84  CA        19.1410  -13.1750   21.9680 C.3   222  ASP222      0.1805
     85  C         19.7470  -12.8970   23.3560 C.2   222  ASP222      0.2597
     86  O         20.4450  -13.7490   23.8950 O.2   222  ASP222     -0.2718
     87  CB        20.0600  -12.6240   20.8560 C.3   222  ASP222      0.1424
     88  CG        20.9980  -13.6930   20.2260 C.2   222  ASP222      0.3668
     89  OD1       21.3570  -14.7450   20.8260 O.co2 222  ASP222     -0.2456
     90  OD2       21.4020  -13.4450   19.0780 O.co2 222  ASP222     -0.2456
     91  N         19.4590  -11.7280   23.9350 N.am  223  LEU223     -0.1979
     92  CA        20.0150  -11.3420   25.2360 C.3   223  LEU223      0.1596
     93  C         19.0510  -11.5530   26.4220 C.2   223  LEU223      0.2287
     94  O         19.3220  -11.0850   27.5360 O.2   223  LEU223     -0.2864
     95  CB        20.4540   -9.8740   25.2010 C.3   223  LEU223      0.0297
     96  CG        21.4560   -9.4940   24.1080 C.3   223  LEU223      0.0022
     97  CD1       21.8480   -8.0330   24.2440 C.3   223  LEU223      0.0001
     98  CD2       22.6880  -10.3850   24.1610 C.3   223  LEU223      0.0001
     99  N         19.3450  -12.0140   30.4060 N.3   226  GLN226     -0.1245
    100  CA        19.5630  -10.8800   31.3070 C.3   226  GLN226      0.1566
    101  C         18.2940  -10.2990   31.9360 C.2   226  GLN226      0.2260
    102  O         18.3960   -9.4310   32.8060 O.2   226  GLN226     -0.2867
    103  CB        20.3120   -9.7650   30.5690 C.3   226  GLN226      0.0367
    104  CG        21.6200  -10.2120   29.9460 C.3   226  GLN226      0.0905
    105  CD        22.5360  -10.8940   30.9500 C.2   226  GLN226      0.2608
    106  OE1       22.7410  -10.3910   32.0510 O.2   226  GLN226     -0.2717
    107  NE2       23.0780  -12.0470   30.5790 N.am  226  GLN226     -0.0878
    108  N         24.7730  -17.6410   33.3130 N.3   236  ILE236     -0.1231
    109  CA        25.0900  -17.3380   31.9150 C.3   236  ILE236      0.1692
    110  C         26.4610  -16.6650   31.7960 C.2   236  ILE236      0.2591
    111  O         27.2050  -16.9480   30.8620 O.2   236  ILE236     -0.2718
    112  CB        23.9550  -16.5380   31.2300 C.3   236  ILE236      0.0266
    113  CG1       22.9080  -17.4990   30.6560 C.3   236  ILE236      0.0019
    114  CG2       24.4740  -15.6890   30.0800 C.3   236  ILE236      0.0020
    115  CD1       22.3130  -18.4820   31.6370 C.3   236  ILE236      0.0001
    116  N         26.8020  -15.7940   32.7430 N.am  237  ALA237     -0.1980
    117  CA        28.1520  -15.2210   32.8020 C.3   237  ALA237      0.1597
    118  C         29.2000  -16.3270   32.8840 C.2   237  ALA237      0.2287
    119  O         30.1950  -16.3100   32.1710 O.2   237  ALA237     -0.2864
    120  CB        28.2810  -14.2840   33.9900 C.3   237  ALA237      0.0319
    121  N         29.2860  -17.9800   29.3680 N.3   240  ILE240     -0.1231
    122  CA        29.8660  -17.0600   28.3850 C.3   240  ILE240      0.1692
    123  C         31.3880  -16.9920   28.5210 C.2   240  ILE240      0.2592
    124  O         32.1120  -17.1790   27.5450 O.2   240  ILE240     -0.2718
    125  CB        29.2690  -15.6370   28.5250 C.3   240  ILE240      0.0266
    126  CG1       27.8500  -15.5900   27.9470 C.3   240  ILE240      0.0019
    127  CG2       30.1520  -14.5890   27.8490 C.3   240  ILE240      0.0020
    128  CD1       27.7710  -15.5980   26.4330 C.3   240  ILE240      0.0001
    129  N         31.8720  -16.7410   29.7320 N.am  241  TYR241     -0.1976
    130  CA        33.3090  -16.5930   29.9310 C.3   241  TYR241      0.1639
    131  C         34.0840  -17.8960   29.7480 C.2   241  TYR241      0.2290
    132  O         35.1810  -17.8650   29.2080 O.2   241  TYR241     -0.2864
    133  CB        33.6120  -15.8730   31.2460 C.3   241  TYR241      0.0560
    134  CG        33.2140  -14.4330   31.1170 C.ar  241  TYR241     -0.0198
    135  CD1       33.9480  -13.5710   30.3060 C.ar  241  TYR241     -0.0009
    136  CD2       32.0680  -13.9420   31.7350 C.ar  241  TYR241     -0.0009
    137  CE1       33.5740  -12.2510   30.1450 C.ar  241  TYR241      0.0417
    138  CE2       31.6860  -12.6220   31.5810 C.ar  241  TYR241      0.0417
    139  CZ        32.4380  -11.7830   30.7820 C.ar  241  TYR241      0.1957
    140  OH        32.0590  -10.4780   30.6250 O.3   241  TYR241     -0.2866
    141  N         34.3570  -17.8340   26.0670 N.3   244  PHE244     -0.1241
    142  CA        35.3030  -16.7910   25.6470 C.3   244  PHE244      0.1605
    143  C         36.7540  -17.1560   25.9640 C.2   244  PHE244      0.2264
    144  O         37.6480  -16.9470   25.1410 O.2   244  PHE244     -0.2867
    145  CB        34.9970  -15.4530   26.3350 C.3   244  PHE244      0.0534
    146  CG        33.7900  -14.7210   25.7990 C.ar  244  PHE244     -0.0203
    147  CD1       33.0750  -15.1710   24.6910 C.ar  244  PHE244     -0.0042
    148  CD2       33.3920  -13.5340   26.4020 C.ar  244  PHE244     -0.0042
    149  CE1       31.9760  -14.4650   24.2250 C.ar  244  PHE244     -0.0003
    150  CE2       32.3000  -12.8230   25.9310 C.ar  244  PHE244     -0.0003
    151  CZ        31.5920  -13.2900   24.8460 C.ar  244  PHE244     -0.0000
    152  N         41.5330  -10.4830   22.8910 N.3   259  MET259     -0.1245
    153  CA        40.9460   -9.3100   23.5230 C.3   259  MET259      0.1570
    154  C         40.8540   -9.5640   25.0320 C.2   259  MET259      0.2261
    155  O         40.8190  -10.7180   25.4640 O.2   259  MET259     -0.2867
    156  CB        39.5660   -9.0080   22.9210 C.3   259  MET259      0.0387
    157  CG        38.4840  -10.0330   23.2390 C.3   259  MET259      0.0595
    158  SD        37.0110   -9.8790   22.2000 S.3   259  MET259     -0.1393
    159  CE        36.7320   -8.1060   22.2730 C.3   259  MET259      0.0692
    160  N         38.5580   -9.4830   27.2980 N.3   261  MET261     -0.1230
    161  CA        37.4460  -10.2780   27.8200 C.3   261  MET261      0.1702
    162  C         37.5550  -11.7740   27.5210 C.2   261  MET261      0.2592
    163  O         36.8270  -12.5740   28.1160 O.2   261  MET261     -0.2718
    164  CB        36.0990   -9.7350   27.3230 C.3   261  MET261      0.0401
    165  CG        35.7850   -9.9920   25.8560 C.3   261  MET261      0.0596
    166  SD        34.1120   -9.4800   25.4280 S.3   261  MET261     -0.1393
    167  CE        34.3020   -7.6990   25.4100 C.3   261  MET261      0.0692
    168  N         38.4480  -12.1470   26.6040 N.am  262  MET262     -0.1979
    169  CA        38.7060  -13.5540   26.2980 C.3   262  MET262      0.1605
    170  C         40.0200  -14.0730   26.8940 C.2   262  MET262      0.2287
    171  O         40.3720  -15.2320   26.6850 O.2   262  MET262     -0.2864
    172  CB        38.7080  -13.7570   24.7840 C.3   262  MET262      0.0413
    173  CG        37.3940  -13.3680   24.1320 C.3   262  MET262      0.0598
    174  SD        37.2390  -14.0540   22.4800 S.3   262  MET262     -0.1393
    175  CE        35.5900  -13.4900   22.0690 C.3   262  MET262      0.0692
    176  N         33.4610   -6.2090   33.2360 N.3   272  LEU272     -0.1231
    177  CA        33.0780   -6.6120   31.8810 C.3   272  LEU272      0.1693
    178  C         31.5670   -6.8250   31.7580 C.2   272  LEU272      0.2591
    179  O         30.9660   -6.4710   30.7420 O.2   272  LEU272     -0.2718
    180  CB        33.8190   -7.8810   31.4620 C.3   272  LEU272      0.0284
    181  CG        35.3500   -7.7710   31.4010 C.3   272  LEU272      0.0019
    182  CD1       35.9840   -9.1440   31.2430 C.3   272  LEU272      0.0001
    183  CD2       35.7860   -6.8270   30.2890 C.3   272  LEU272      0.0001
    184  N         30.9570   -7.3930   32.7960 N.am  273  GLN273     -0.1979
    185  CA        29.5230   -7.6610   32.7810 C.3   273  GLN273      0.1601
    186  C         28.7000   -6.4020   32.9930 C.2   273  GLN273      0.2287
    187  O         27.6620   -6.2300   32.3560 O.2   273  GLN273     -0.2864
    188  CB        29.1540   -8.7350   33.8030 C.3   273  GLN273      0.0394
    189  CG        29.4180  -10.1320   33.2820 C.3   273  GLN273      0.0908
    190  CD        28.4880  -10.4770   32.1380 C.2   273  GLN273      0.2608
    191  OE1       27.3160  -10.7410   32.3610 O.2   273  GLN273     -0.2717
    192  NE2       29.0000  -10.4440   30.9030 N.am  273  GLN273     -0.0878
    193  N         28.8550   -4.6160   29.5500 N.3   276  PHE276     -0.1241
    194  CA        27.9570   -5.2860   28.6040 C.3   276  PHE276      0.1605
    195  C         26.4900   -4.9650   28.8880 C.2   276  PHE276      0.2264
    196  O         25.7200   -4.6820   27.9710 O.2   276  PHE276     -0.2867
    197  CB        28.1760   -6.8020   28.6230 C.3   276  PHE276      0.0534
    198  CG        27.0370   -7.5900   28.0330 C.ar  276  PHE276     -0.0203
    199  CD1       26.8730   -7.6780   26.6600 C.ar  276  PHE276     -0.0042
    200  CD2       26.1260   -8.2410   28.8540 C.ar  276  PHE276     -0.0042
    201  CE1       25.8230   -8.4070   26.1160 C.ar  276  PHE276     -0.0003
    202  CE2       25.0750   -8.9710   28.3170 C.ar  276  PHE276     -0.0003
    203  CZ        24.9270   -9.0540   26.9470 C.ar  276  PHE276     -0.0000
    204  N         25.3130   -2.5280   26.0310 N.3   280  ILE280     -0.1245
    205  CA        24.7430   -3.3750   24.9840 C.3   280  ILE280      0.1561
    206  C         23.3090   -3.7620   25.3370 C.2   280  ILE280      0.2260
    207  O         22.3720   -3.4560   24.5900 O.2   280  ILE280     -0.2867
    208  CB        25.5600   -4.6720   24.7740 C.3   280  ILE280      0.0252
    209  CG1       27.0630   -4.3770   24.6560 C.3   280  ILE280      0.0019
    210  CG2       25.0460   -5.4370   23.5620 C.3   280  ILE280      0.0019
    211  CD1       27.4660   -3.5380   23.4680 C.3   280  ILE280      0.0001
    212  N         19.0730   -1.8540   24.4110 N.3   284  ILE284     -0.1245
    213  CA        18.0950   -2.6440   23.6630 C.3   284  ILE284      0.1561
    214  C         16.7450   -2.6910   24.3800 C.2   284  ILE284      0.2260
    215  O         15.7050   -2.4810   23.7510 O.2   284  ILE284     -0.2867
    216  CB        18.6120   -4.0760   23.3690 C.3   284  ILE284      0.0252
    217  CG1       19.6500   -4.0270   22.2470 C.3   284  ILE284      0.0019
    218  CG2       17.4690   -5.0010   22.9650 C.3   284  ILE284      0.0019
    219  CD1       20.4950   -5.2790   22.1150 C.3   284  ILE284      0.0001
@<TRIPOS>BOND
     1    51    52    1
     2    56    55    1
     3    66    67    1
     4    46    45    2
     5    52    53    1
     6    52    55    1
     7    67    68    1
     8    67    70    1
     9    53    54    2
    10    55    57    1
    11    33    34    1
    12    45    44    1
    13    68    69    2
    14    60    61    2
    15    60    59    1
    16    34    35    1
    17    34    37    1
    18    58    59    1
    19    70    71    1
    20    35    36    2
    21    59    62    1
    22    44    43    1
    23    44    47    1
    24    40    38   ar
    25    40    42   ar
    26    49    48    2
    27    37    38    1
    28    38    39   ar
    29    42    41   ar
    30    71    72   ar
    31    71    73   ar
    32    82    80    1
    33    48    47    1
    34    48    50   am
    35    72    74   ar
    36    62    63    1
    37    39    41   ar
    38    76    77    1
    39    90    88   ar
    40    73    75   ar
    41    74    75   ar
    42    63    64    1
    43    63    65    1
    44    80    81    1
    45    80    77    1
    46    77    78    1
    47    88    89   ar
    48    88    87    1
    49    16    15    2
    50    87    84    1
    51    20    18   ar
    52    20    22   ar
    53    17    18    1
    54    17    14    1
    55    78    79    2
    56    18    19   ar
    57    22    21   ar
    58    19    21   ar
    59    15    14    1
    60    32    30   ar
    61    32    31   ar
    62    30    28   ar
    63    83    84    1
    64    84    85    1
    65   175   174    1
    66    14    13    1
    67   219   217    1
    68   158   159    1
    69   158   157    1
    70   217   216    1
    71   174   173    1
    72    31    29   ar
    73   152   153    1
    74   156   157    1
    75   156   153    1
    76   218   216    1
    77    28    27    1
    78    28    29   ar
    79    25    26    2
    80    25    24    1
    81    85    86    2
    82    85    91   am
    83   216   213    1
    84    13     3   am
    85   211   209    1
    86   153   154    1
    87   210   208    1
    88    27    24    1
    89   213   214    1
    90   213   212    1
    91   215   214    2
    92    91    92    1
    93    96    98    1
    94    96    97    1
    95    96    95    1
    96   173   172    1
    97    24    23    1
    98   149   147   ar
    99   149   151   ar
   100     3     4    2
   101     3     2    1
   102   207   206    2
   103    10     8   ar
   104    10    11   ar
   105   209   208    1
   106     8     6   ar
   107   147   146   ar
   108   208   205    1
   109   172   169    1
   110   151   150   ar
   111   205   206    1
   112   205   204    1
   113   154   155    2
   114   144   143    2
   115    95    92    1
   116    92    93    1
   117   167   166    1
   118   166   165    1
   119   142   143    1
   120   142   141    1
   121   142   145    1
   122    12    11    1
   123    11     9   ar
   124   146   145    1
   125   146   148   ar
   126     2     5    1
   127     2     1    1
   128     6     5    1
   129     6     7   ar
   130   165   164    1
   131   150   148   ar
   132   201   199   ar
   133   201   203   ar
   134   169   168    1
   135   169   170    1
   136    93    94    2
   137   128   126    1
   138   168   162   am
   139   199   198   ar
   140   171   170    2
   141     9     7   ar
   142   203   202   ar
   143   160   161    1
   144   164   161    1
   145   162   161    1
   146   162   163    2
   147   124   123    2
   148   127   125    1
   149   126   125    1
   150   196   195    2
   151   198   197    1
   152   198   200   ar
   153   202   200   ar
   154   122   123    1
   155   122   125    1
   156   122   121    1
   157   123   129   am
   158   194   197    1
   159   194   195    1
   160   194   193    1
   161   132   131    2
   162   129   130    1
   163   131   130    1
   164   130   133    1
   165   104   103    1
   166   104   105    1
   167   114   112    1
   168   137   135   ar
   169   137   139   ar
   170   183   181    1
   171   135   134   ar
   172    99   100    1
   173   103   100    1
   174   107   105   am
   175   140   139    1
   176   113   112    1
   177   113   115    1
   178   179   178    2
   179   139   138   ar
   180   111   110    2
   181   192   190   am
   182   105   106    2
   183   134   133    1
   184   134   136   ar
   185   112   109    1
   186   182   181    1
   187   100   101    1
   188   181   180    1
   189   180   177    1
   190   138   136   ar
   191   178   177    1
   192   178   184   am
   193   110   109    1
   194   110   116   am
   195   177   176    1
   196   109   108    1
   197   101   102    2
   198   190   191    2
   199   190   189    1
   200   119   118    2
   201   187   186    2
   202   116   117    1
   203   185   184    1
   204   185   186    1
   205   185   188    1
   206   117   118    1
   207   117   120    1
   208   189   188    1
