@<TRIPOS>MOLECULE
tmp/4d09D00.pdb
 185 175 0 0 0
SMALL
GASTEIGER

@<TRIPOS>ATOM
      1  N         63.8760  -72.4740   30.0650 N.3    66  TYR66      -0.1227
      2  CA        62.7400  -71.5610   29.9610 C.3    66  TYR66       0.1736
      3  C         61.9180  -71.7230   28.6790 C.2    66  TYR66       0.2595
      4  O         60.7040  -71.8440   28.7650 O.2    66  TYR66      -0.2718
      5  CB        63.1960  -70.1070   30.1140 C.3    66  TYR66       0.0548
      6  CG        62.0610  -69.1090   30.0000 C.ar   66  TYR66      -0.0200
      7  CD1       61.1670  -68.9140   31.0530 C.ar   66  TYR66      -0.0009
      8  CD2       61.8700  -68.3700   28.8360 C.ar   66  TYR66      -0.0009
      9  CE1       60.1210  -68.0030   30.9520 C.ar   66  TYR66       0.0417
     10  CE2       60.8290  -67.4620   28.7280 C.ar   66  TYR66       0.0417
     11  CZ        59.9540  -67.2790   29.7880 C.ar   66  TYR66       0.1957
     12  OH        58.9200  -66.3710   29.6790 O.3    66  TYR66      -0.2866
     13  N         62.5610  -71.7000   27.5090 N.am   67  HIS67      -0.1975
     14  CA        61.8320  -71.7090   26.2210 C.3    67  HIS67       0.1656
     15  C         61.4190  -73.1220   25.8170 C.2    67  HIS67       0.2291
     16  O         61.9980  -73.7340   24.9210 O.2    67  HIS67      -0.2864
     17  CB        62.6390  -71.0220   25.1060 C.3    67  HIS67       0.0771
     18  CG        62.7270  -69.5360   25.2640 C.ar   67  HIS67       0.0820
     19  ND1       63.9170  -68.8770   25.4690 N.ar   67  HIS67      -0.2267
     20  CD2       61.7650  -68.5820   25.2730 C.ar   67  HIS67       0.1154
     21  CE1       63.6890  -67.5820   25.5910 C.ar   67  HIS67       0.1986
     22  NE2       62.3910  -67.3760   25.4760 N.ar   67  HIS67      -0.2212
     23  N         57.5850  -69.8120   19.8940 N.3   108  ASP108     -0.1239
     24  CA        58.9680  -70.1280   20.2590 C.3   108  ASP108      0.1674
     25  C         59.3460  -71.5250   19.7890 C.2   108  ASP108      0.2266
     26  O         60.2820  -72.1200   20.3170 O.2   108  ASP108     -0.2867
     27  CB        59.1900  -69.9700   21.7760 C.3   108  ASP108      0.1410
     28  CG        59.5270  -68.5380   22.1820 C.2   108  ASP108      0.3668
     29  OD1       60.2120  -67.8470   21.4040 O.co2 108  ASP108     -0.2456
     30  OD2       59.1230  -68.1050   23.2870 O.co2 108  ASP108     -0.2456
     31  N         63.0600  -73.5750   20.0440 N.3   111  HIS111     -0.1241
     32  CA        64.0800  -72.7140   20.6720 C.3   111  HIS111      0.1621
     33  C         65.2010  -73.6110   21.2170 C.2   111  HIS111      0.2264
     34  O         64.9360  -74.6550   21.8330 O.2   111  HIS111     -0.2867
     35  CB        63.4600  -71.9020   21.8240 C.3   111  HIS111      0.0745
     36  CG        63.9430  -70.4800   21.9290 C.ar  111  HIS111      0.0817
     37  ND1       65.1490  -70.1330   22.4990 N.ar  111  HIS111     -0.2268
     38  CD2       63.3440  -69.3130   21.5870 C.ar  111  HIS111      0.1154
     39  CE1       65.2790  -68.8190   22.4880 C.ar  111  HIS111      0.1986
     40  NE2       64.1990  -68.2970   21.9390 N.ar  111  HIS111     -0.2212
     41  N         62.8840  -66.0600   15.2870 N.3   138  GLU138     -0.1245
     42  CA        61.4740  -65.8270   15.0440 C.3   138  GLU138      0.1567
     43  C         61.1070  -66.3240   13.6530 C.2   138  GLU138      0.2260
     44  O         60.1470  -67.0830   13.4940 O.2   138  GLU138     -0.2867
     45  CB        61.1430  -64.3480   15.2420 C.3   138  GLU138      0.0388
     46  CG        61.1710  -63.9140   16.7090 C.3   138  GLU138      0.1160
     47  CD        62.5620  -63.8480   17.3200 C.2   138  GLU138      0.3649
     48  OE1       63.5460  -63.6280   16.5880 O.co2 138  GLU138     -0.2457
     49  OE2       62.6730  -64.0010   18.5510 O.co2 138  GLU138     -0.2457
     50  N         57.4210  -61.0410   18.2280 N.3   179  THR179     -0.1218
     51  CA        57.9560  -61.5580   19.4850 C.3   179  THR179      0.1862
     52  C         59.4270  -61.2140   19.6930 C.2   179  THR179      0.2287
     53  O         59.9250  -61.2980   20.8170 O.2   179  THR179     -0.2866
     54  CB        57.8230  -63.0890   19.5760 C.3   179  THR179      0.1770
     55  OG1       58.5180  -63.7020   18.4830 O.3   179  THR179     -0.2211
     56  CG2       56.3640  -63.5000   19.5540 C.3   179  THR179      0.0375
     57  N         62.1550  -58.9300   20.6170 N.3   181  LEU181     -0.1231
     58  CA        62.1340  -57.7100   21.4360 C.3   181  LEU181      0.1693
     59  C         62.8470  -56.5290   20.7820 C.2   181  LEU181      0.2591
     60  O         62.7060  -55.3960   21.2400 O.2   181  LEU181     -0.2718
     61  CB        62.7210  -57.9570   22.8300 C.3   181  LEU181      0.0284
     62  CG        61.9420  -58.8500   23.8080 C.3   181  LEU181      0.0019
     63  CD1       62.6690  -58.9430   25.1390 C.3   181  LEU181      0.0001
     64  CD2       60.5260  -58.3470   24.0300 C.3   181  LEU181      0.0001
     65  N         63.6190  -56.7860   19.7280 N.am  182  ALA182     -0.1980
     66  CA        64.1600  -55.7090   18.8910 C.3   182  ALA182      0.1597
     67  C         63.0450  -55.0420   18.0890 C.2   182  ALA182      0.2287
     68  O         63.0390  -53.8280   17.9290 O.2   182  ALA182     -0.2864
     69  CB        65.2300  -56.2450   17.9580 C.3   182  ALA182      0.0319
     70  N         60.7500  -52.8440   20.4310 N.3   185  LEU185     -0.1245
     71  CA        61.3670  -51.5720   20.8230 C.3   185  LEU185      0.1561
     72  C         61.5050  -50.5800   19.6710 C.2   185  LEU185      0.2260
     73  O         61.4150  -49.3700   19.8890 O.2   185  LEU185     -0.2867
     74  CB        62.7100  -51.8190   21.4960 C.3   185  LEU185      0.0270
     75  CG        62.5180  -52.5550   22.8220 C.3   185  LEU185      0.0019
     76  CD1       63.8520  -53.0340   23.3540 C.3   185  LEU185      0.0001
     77  CD2       61.8130  -51.6840   23.8540 C.3   185  LEU185      0.0001
     78  N         53.7210  -62.9800   26.0290 N.3   219  ASP219     -0.1225
     79  CA        55.0900  -63.5180   26.1310 C.3   219  ASP219      0.1805
     80  C         55.6560  -63.2780   27.5410 C.2   219  ASP219      0.2597
     81  O         56.3060  -64.1560   28.1130 O.2   219  ASP219     -0.2718
     82  CB        56.0170  -62.8850   25.0630 C.3   219  ASP219      0.1424
     83  CG        57.1360  -63.8390   24.5760 C.2   219  ASP219      0.3668
     84  OD1       57.3500  -64.9190   25.1850 O.co2 219  ASP219     -0.2456
     85  OD2       57.8030  -63.5120   23.5580 O.co2 219  ASP219     -0.2456
     86  N         55.3690  -62.0980   28.0930 N.am  220  LEU220     -0.1979
     87  CA        55.9020  -61.6510   29.3770 C.3   220  LEU220      0.1596
     88  C         54.9000  -61.8110   30.5430 C.2   220  LEU220      0.2287
     89  O         55.0670  -61.2100   31.6100 O.2   220  LEU220     -0.2864
     90  CB        56.3150  -60.1800   29.2550 C.3   220  LEU220      0.0297
     91  CG        57.6900  -59.8190   28.6920 C.3   220  LEU220      0.0022
     92  CD1       58.0960  -60.6950   27.5260 C.3   220  LEU220      0.0001
     93  CD2       57.6960  -58.3610   28.2590 C.3   220  LEU220      0.0001
     94  N         55.2110  -62.3680   34.4810 N.3   223  GLN223     -0.1245
     95  CA        55.4480  -61.2200   35.3420 C.3   223  GLN223      0.1566
     96  C         54.1990  -60.6780   36.0210 C.2   223  GLN223      0.2260
     97  O         54.3120  -59.9020   36.9530 O.2   223  GLN223     -0.2867
     98  CB        56.1150  -60.0930   34.5490 C.3   223  GLN223      0.0367
     99  CG        57.4360  -60.4750   33.8930 C.3   223  GLN223      0.0905
    100  CD        58.4100  -61.0970   34.8680 C.2   223  GLN223      0.2608
    101  OE1       58.9460  -60.4170   35.7450 O.2   223  GLN223     -0.2717
    102  NE2       58.6380  -62.4020   34.7290 N.am  223  GLN223     -0.0878
    103  N         60.6130  -67.9300   37.4520 N.3   233  ILE233     -0.1245
    104  CA        60.9910  -67.5930   36.0720 C.3   233  ILE233      0.1561
    105  C         62.3810  -66.9590   36.0110 C.2   233  ILE233      0.2260
    106  O         63.1710  -67.3020   35.1360 O.2   233  ILE233     -0.2867
    107  CB        59.9090  -66.7380   35.3540 C.3   233  ILE233      0.0252
    108  CG1       58.9470  -67.6470   34.5900 C.3   233  ILE233      0.0019
    109  CG2       60.5180  -65.7780   34.3450 C.3   233  ILE233      0.0019
    110  CD1       58.3180  -68.7490   35.4230 C.3   233  ILE233      0.0001
    111  N         65.1070  -68.3780   33.4040 N.3   237  ILE237     -0.1231
    112  CA        65.6760  -67.5070   32.3690 C.3   237  ILE237      0.1692
    113  C         67.1900  -67.4260   32.4690 C.2   237  ILE237      0.2592
    114  O         67.9040  -67.7050   31.5110 O.2   237  ILE237     -0.2718
    115  CB        65.1190  -66.0660   32.4730 C.3   237  ILE237      0.0266
    116  CG1       63.7470  -65.9750   31.8050 C.3   237  ILE237      0.0019
    117  CG2       66.0640  -65.0400   31.8380 C.3   237  ILE237      0.0020
    118  CD1       63.7810  -66.0080   30.2920 C.3   237  ILE237      0.0001
    119  N         67.6800  -67.0130   33.6270 N.am  238  TYR238     -0.1976
    120  CA        69.1070  -66.7950   33.7840 C.3   238  TYR238      0.1639
    121  C         69.8950  -68.0970   33.6980 C.2   238  TYR238      0.2290
    122  O         71.0160  -68.0970   33.1960 O.2   238  TYR238     -0.2864
    123  CB        69.4080  -66.0000   35.0570 C.3   238  TYR238      0.0560
    124  CG        68.9430  -64.5700   34.9270 C.ar  238  TYR238     -0.0198
    125  CD1       69.5590  -63.6970   34.0310 C.ar  238  TYR238     -0.0009
    126  CD2       67.8610  -64.0960   35.6610 C.ar  238  TYR238     -0.0009
    127  CE1       69.1270  -62.3850   33.8930 C.ar  238  TYR238      0.0417
    128  CE2       67.4260  -62.7880   35.5320 C.ar  238  TYR238      0.0417
    129  CZ        68.0560  -61.9400   34.6430 C.ar  238  TYR238      0.1957
    130  OH        67.6060  -60.6520   34.5130 O.3   238  TYR238     -0.2866
    131  N         70.1150  -68.2760   29.9880 N.3   241  PHE241     -0.1241
    132  CA        71.0740  -67.2360   29.6000 C.3   241  PHE241      0.1605
    133  C         72.5090  -67.6470   29.9260 C.2   241  PHE241      0.2264
    134  O         73.3920  -67.5820   29.0640 O.2   241  PHE241     -0.2867
    135  CB        70.7700  -65.9240   30.3340 C.3   241  PHE241      0.0534
    136  CG        69.5940  -65.1490   29.7870 C.ar  241  PHE241     -0.0203
    137  CD1       68.7760  -65.6530   28.7780 C.ar  241  PHE241     -0.0042
    138  CD2       69.2960  -63.8930   30.3120 C.ar  241  PHE241     -0.0042
    139  CE1       67.7060  -64.9140   28.2960 C.ar  241  PHE241     -0.0003
    140  CE2       68.2210  -63.1540   29.8390 C.ar  241  PHE241     -0.0003
    141  CZ        67.4240  -63.6650   28.8260 C.ar  241  PHE241     -0.0000
    142  N         74.2860  -59.8270   31.1370 N.3   258  MET258     -0.1245
    143  CA        73.1950  -60.6870   31.5990 C.3   258  MET258      0.1570
    144  C         73.3490  -62.1730   31.2370 C.2   258  MET258      0.2261
    145  O         72.6850  -63.0270   31.8260 O.2   258  MET258     -0.2867
    146  CB        71.8660  -60.1620   31.0630 C.3   258  MET258      0.0387
    147  CG        71.6810  -60.3080   29.5570 C.3   258  MET258      0.0595
    148  SD        69.9810  -59.9790   29.0660 S.3   258  MET258     -0.1393
    149  CE        69.7800  -58.2970   29.6590 C.3   258  MET258      0.0692
    150  N         68.9560  -56.6730   37.1450 N.3   269  LEU269     -0.1231
    151  CA        68.5260  -57.0430   35.8030 C.3   269  LEU269      0.1693
    152  C         67.0390  -57.3860   35.7670 C.2   269  LEU269      0.2591
    153  O         66.3380  -56.9810   34.8390 O.2   269  LEU269     -0.2718
    154  CB        69.3690  -58.2010   35.2660 C.3   269  LEU269      0.0284
    155  CG        70.8770  -57.9130   35.1610 C.3   269  LEU269      0.0019
    156  CD1       71.6750  -59.2110   35.1150 C.3   269  LEU269      0.0001
    157  CD2       71.1820  -57.0280   33.9610 C.3   269  LEU269      0.0001
    158  N         66.5570  -58.1270   36.7630 N.am  270  GLN270     -0.1979
    159  CA        65.1170  -58.3450   36.9130 C.3   270  GLN270      0.1601
    160  C         64.3820  -57.0250   37.0040 C.2   270  GLN270      0.2287
    161  O         63.4250  -56.7880   36.2720 O.2   270  GLN270     -0.2864
    162  CB        64.7870  -59.1620   38.1630 C.3   270  GLN270      0.0394
    163  CG        64.3680  -60.5940   37.8930 C.3   270  GLN270      0.0908
    164  CD        63.0380  -60.7140   37.1650 C.2   270  GLN270      0.2608
    165  OE1       62.1230  -59.9110   37.3510 O.2   270  GLN270     -0.2717
    166  NE2       62.9260  -61.7370   36.3380 N.am  270  GLN270     -0.0878
    167  N         64.5210  -54.9770   33.7170 N.3   273  PHE273     -0.1241
    168  CA        63.6210  -55.5780   32.7520 C.3   273  PHE273      0.1605
    169  C         62.1520  -55.2550   33.0620 C.2   273  PHE273      0.2264
    170  O         61.3570  -55.0400   32.1550 O.2   273  PHE273     -0.2867
    171  CB        63.8280  -57.0890   32.7060 C.3   273  PHE273      0.0534
    172  CG        62.9670  -57.7810   31.6850 C.ar  273  PHE273     -0.0203
    173  CD1       63.2360  -57.6420   30.3330 C.ar  273  PHE273     -0.0042
    174  CD2       61.8840  -58.5590   32.0780 C.ar  273  PHE273     -0.0042
    175  CE1       62.4430  -58.2710   29.3920 C.ar  273  PHE273     -0.0003
    176  CE2       61.0910  -59.1950   31.1430 C.ar  273  PHE273     -0.0003
    177  CZ        61.3670  -59.0530   29.7980 C.ar  273  PHE273     -0.0000
    178  N         60.9750  -52.5730   30.3670 N.3   277  ILE277     -0.1245
    179  CA        60.3600  -53.3360   29.2880 C.3   277  ILE277      0.1561
    180  C         58.9420  -53.7470   29.6720 C.2   277  ILE277      0.2260
    181  O         57.9890  -53.3400   29.0160 O.2   277  ILE277     -0.2867
    182  CB        61.1810  -54.5860   28.9080 C.3   277  ILE277      0.0252
    183  CG1       62.6630  -54.2270   28.6650 C.3   277  ILE277      0.0019
    184  CG2       60.5770  -55.2720   27.6880 C.3   277  ILE277      0.0019
    185  CD1       62.9300  -53.3360   27.4690 C.3   277  ILE277      0.0001
@<TRIPOS>BOND
     1    44    43    2
     2    43    42    1
     3    42    45    1
     4    42    41    1
     5    45    46    1
     6    48    47   ar
     7    46    47    1
     8    47    49   ar
     9    68    67    2
    10    69    66    1
    11    67    66    1
    12    50    51    1
    13    55    54    1
    14    66    65    1
    15    51    54    1
    16    51    52    1
    17    56    54    1
    18    72    73    2
    19    72    71    1
    20    52    53    2
    21    65    59   am
    22    25    24    1
    23    25    26    2
    24    23    24    1
    25    31    32    1
    26    24    27    1
    27    70    71    1
    28    57    58    1
    29    32    33    1
    30    32    35    1
    31    59    60    2
    32    59    58    1
    33    71    74    1
    34    33    34    2
    35    29    28   ar
    36    58    61    1
    37    74    75    1
    38    38    36   ar
    39    38    40   ar
    40    27    28    1
    41    35    36    1
    42    36    37   ar
    43    40    39   ar
    44    28    30   ar
    45    39    37   ar
    46    75    76    1
    47    75    77    1
    48    61    62    1
    49    85    83   ar
    50    62    64    1
    51    62    63    1
    52    83    82    1
    53    83    84   ar
    54    16    15    2
    55    82    79    1
    56    17    18    1
    57    17    14    1
    58    18    20   ar
    59    18    19   ar
    60    20    22   ar
    61    19    21   ar
    62    22    21   ar
    63    15    14    1
    64    78    79    1
    65    79    80    1
    66    14    13    1
    67   185   183    1
    68    13     3   am
    69    92    91    1
    70    80    86   am
    71    80    81    2
    72   184   182    1
    73    86    87    1
    74    93    91    1
    75   139   137   ar
    76   139   141   ar
    77   183   182    1
    78     3     4    2
    79     3     2    1
    80    91    90    1
    81    10     8   ar
    82    10    11   ar
    83   137   136   ar
    84   141   140   ar
    85     8     6   ar
    86   182   179    1
    87   181   180    2
    88   134   133    2
    89   148   147    1
    90   148   149    1
    91    90    87    1
    92   179   180    1
    93   179   178    1
    94    87    88    1
    95   175   177   ar
    96   175   173   ar
    97   147   146    1
    98   132   133    1
    99   132   131    1
   100   132   135    1
   101    12    11    1
   102   136   138   ar
   103   136   135    1
   104    11     9   ar
   105   177   176   ar
   106   140   138   ar
   107     2     1    1
   108     2     5    1
   109     6     5    1
   110     6     7   ar
   111   118   116    1
   112   173   172   ar
   113    88    89    2
   114     9     7   ar
   115   146   143    1
   116   142   143    1
   117   176   174   ar
   118   144   143    1
   119   144   145    2
   120   114   113    2
   121   172   174   ar
   122   172   171    1
   123   116   115    1
   124   117   115    1
   125   170   169    2
   126   112   113    1
   127   112   115    1
   128   112   111    1
   129   113   119   am
   130   171   168    1
   131   168   169    1
   132   168   167    1
   133   122   121    2
   134   119   120    1
   135   121   120    1
   136   120   123    1
   137    99    98    1
   138    99   100    1
   139   127   125   ar
   140   127   129   ar
   141   157   155    1
   142   125   124   ar
   143   109   107    1
   144    94    95    1
   145   130   129    1
   146    98    95    1
   147   108   107    1
   148   108   110    1
   149   129   128   ar
   150   102   100   am
   151   153   152    2
   152   100   101    2
   153   124   123    1
   154   124   126   ar
   155   156   155    1
   156   106   105    2
   157   155   154    1
   158   154   151    1
   159    95    96    1
   160   107   104    1
   161   128   126   ar
   162   152   151    1
   163   152   158   am
   164   151   150    1
   165   105   104    1
   166    96    97    2
   167   104   103    1
   168   161   160    2
   169   166   164   am
   170   158   159    1
   171   159   160    1
   172   159   162    1
   173   164   165    2
   174   164   163    1
   175   163   162    1
