@<TRIPOS>MOLECULE
tmp/4d0gA00.pdb
 168 163 0 0 0
SMALL
GASTEIGER

@<TRIPOS>ATOM
      1  N        -32.9110  -29.3260    0.9410 N.3    13  MET13      -0.1230
      2  CA       -34.2500  -29.4210    1.4510 C.3    13  MET13       0.1702
      3  C        -34.2140  -29.8820    2.9100 C.2    13  MET13       0.2593
      4  O        -33.4630  -30.7760    3.2800 O.2    13  MET13      -0.2718
      5  CB       -35.0980  -30.3270    0.5450 C.3    13  MET13       0.0401
      6  CG       -35.6030  -29.5860   -0.7010 C.3    13  MET13       0.0596
      7  SD       -35.7190  -30.5130   -2.2570 S.3    13  MET13      -0.1393
      8  CE       -36.3760  -29.2430   -3.3390 C.3    13  MET13       0.0692
      9  N        -35.0000  -29.2230    3.7450 N.am   14  GLY14      -0.1942
     10  CA       -35.2290  -29.6940    5.1000 C.3    14  GLY14       0.2014
     11  C        -34.1590  -29.3240    6.1140 C.2    14  GLY14       0.2639
     12  O        -34.1790  -29.8200    7.2220 O.2    14  GLY14      -0.2714
     13  N        -33.2320  -28.4450    5.7570 N.am   15  VAL15      -0.1963
     14  CA       -32.2190  -27.9850    6.7210 C.3    15  VAL15       0.1727
     15  C        -32.7540  -26.9630    7.7230 C.2    15  VAL15       0.2617
     16  O        -32.1610  -26.7560    8.7930 O.2    15  VAL15      -0.2715
     17  CB       -30.9770  -27.3970    6.0250 C.3    15  VAL15       0.0290
     18  CG1      -30.3000  -28.4630    5.1700 C.3    15  VAL15       0.0023
     19  CG2      -31.3420  -26.1890    5.1800 C.3    15  VAL15       0.0023
     20  N        -33.8710  -26.3320    7.3710 N.am   16  GLY16      -0.1940
     21  CA       -34.5200  -25.3640    8.2380 C.3    16  GLY16       0.2014
     22  C        -34.5400  -23.9460    7.7120 C.2    16  GLY16       0.2639
     23  O        -34.6800  -23.0130    8.5120 O.2    16  GLY16      -0.2714
     24  N        -34.4100  -23.7750    6.3860 N.am   17  LYS17      -0.1963
     25  CA       -34.2260  -22.4420    5.7710 C.3    17  LYS17       0.1728
     26  C        -35.4470  -21.5940    6.0530 C.2    17  LYS17       0.2617
     27  O        -35.3400  -20.4730    6.5110 O.2    17  LYS17      -0.2715
     28  CB       -34.0050  -22.5330    4.2560 C.3    17  LYS17       0.0311
     29  CG       -32.7290  -23.2590    3.8460 C.3    17  LYS17       0.0038
     30  CD       -32.3570  -23.0990    2.3650 C.3    17  LYS17       0.0206
     31  CE       -33.2690  -23.8540    1.4000 C.3    17  LYS17       0.1093
     32  NZ       -33.5580  -25.2710    1.8010 N.3    17  LYS17      -0.1314
     33  N        -36.6160  -22.1500    5.8020 N.am   18  SER18      -0.1936
     34  CA       -37.8350  -21.4260    6.0380 C.3    18  SER18       0.2055
     35  C        -38.0120  -21.1340    7.5200 C.2    18  SER18       0.2643
     36  O        -38.4530  -20.0620    7.8890 O.2    18  SER18      -0.2714
     37  CB       -39.0090  -22.2300    5.4960 C.3    18  SER18       0.2130
     38  OG       -38.7460  -22.6010    4.1560 O.3    18  SER18      -0.2179
     39  N        -37.6610  -22.0940    8.3690 N.am   19  CYS19      -0.1967
     40  CA       -37.8370  -21.9550    9.8080 C.3    19  CYS19       0.1712
     41  C        -36.8950  -20.9020   10.3840 C.2    19  CYS19       0.2296
     42  O        -37.2850  -20.1560   11.2930 O.2    19  CYS19      -0.2864
     43  CB       -37.6240  -23.2960   10.5170 C.3    19  CYS19       0.0983
     44  SG       -39.0820  -24.3590   10.7180 S.3    19  CYS19      -0.0798
     45  N        -41.2470  -20.3220   16.2540 N.3    29  PHE29      -0.1241
     46  CA       -41.0950  -21.5650   15.5040 C.3    29  PHE29       0.1605
     47  C        -42.4750  -22.1980   15.4000 C.2    29  PHE29       0.2264
     48  O        -42.7730  -23.1890   16.0560 O.2    29  PHE29      -0.2867
     49  CB       -40.1030  -22.4680   16.2430 C.3    29  PHE29       0.0534
     50  CG       -39.9520  -23.8460   15.6650 C.ar   29  PHE29      -0.0203
     51  CD1      -39.1860  -24.0590   14.5310 C.ar   29  PHE29      -0.0042
     52  CD2      -40.5260  -24.9420   16.2970 C.ar   29  PHE29      -0.0042
     53  CE1      -39.0190  -25.3340   14.0230 C.ar   29  PHE29      -0.0003
     54  CE2      -40.3720  -26.2170   15.7860 C.ar   29  PHE29      -0.0003
     55  CZ       -39.6140  -26.4140   14.6500 C.ar   29  PHE29      -0.0000
     56  N        -44.1590  -24.1230   12.6230 N.3    31  ALA31      -0.1231
     57  CA       -43.3720  -24.9470   13.5400 C.3    31  ALA31       0.1694
     58  C        -42.7630  -26.0870   12.7600 C.2    31  ALA31       0.2592
     59  O        -41.6120  -26.0050   12.3480 O.2    31  ALA31      -0.2718
     60  CB       -44.2380  -25.4810   14.6810 C.3    31  ALA31       0.0304
     61  N        -43.5500  -27.1340   12.5270 N.am   32  ASP32      -0.1960
     62  CA       -43.2560  -28.0940   11.4720 C.3    32  ASP32       0.1840
     63  C        -43.3360  -27.4390   10.0680 C.2    32  ASP32       0.2622
     64  O        -44.3200  -27.6060    9.3440 O.2    32  ASP32      -0.2715
     65  CB       -44.1850  -29.3100   11.5880 C.3    32  ASP32       0.1450
     66  CG       -43.5000  -30.5950   11.2000 C.2    32  ASP32       0.3671
     67  OD1      -42.7080  -30.5620   10.2370 O.co2  32  ASP32      -0.2456
     68  OD2      -43.7410  -31.6330   11.8580 O.co2  32  ASP32      -0.2456
     69  N        -42.2830  -26.6960    9.7090 N.am   33  CYS33      -0.1968
     70  CA       -42.1850  -25.9770    8.4280 C.3    33  CYS33       0.1712
     71  C        -42.4520  -26.9150    7.2190 C.2    33  CYS33       0.2296
     72  O        -41.7320  -27.8990    7.0300 O.2    33  CYS33      -0.2864
     73  CB       -40.7880  -25.3420    8.2980 C.3    33  CYS33       0.0983
     74  SG       -40.4670  -23.8430    9.2880 S.3    33  CYS33      -0.0798
     75  N        -42.2330  -27.1510    3.7430 N.3    35  HIS35      -0.1226
     76  CA       -41.5930  -27.2680    2.4140 C.3    35  HIS35       0.1752
     77  C        -42.0810  -26.2520    1.3820 C.2    35  HIS35       0.2596
     78  O        -43.2680  -26.1440    1.0800 O.2    35  HIS35      -0.2718
     79  CB       -41.7080  -28.6560    1.7650 C.3    35  HIS35       0.0759
     80  CG       -41.2950  -28.6500    0.3160 C.ar   35  HIS35       0.0818
     81  ND1      -40.0050  -28.3690   -0.0880 N.ar   35  HIS35      -0.2268
     82  CD2      -42.0120  -28.8170   -0.8230 C.ar   35  HIS35       0.1154
     83  CE1      -39.9350  -28.3990   -1.4080 C.ar   35  HIS35       0.1986
     84  NE2      -41.1390  -28.6670   -1.8790 N.ar   35  HIS35      -0.2212
     85  N        -41.1340  -25.5470    0.7980 N.am   36  THR36      -0.1953
     86  CA       -41.4490  -24.2940    0.2000 C.3    36  THR36       0.1897
     87  C        -41.8020  -24.5560   -1.2650 C.2    36  THR36       0.2313
     88  O        -41.0950  -25.2600   -1.9940 O.2    36  THR36      -0.2863
     89  CB       -40.2970  -23.3120    0.4070 C.3    36  THR36       0.1794
     90  OG1      -40.0820  -23.1500    1.8230 O.3    36  THR36      -0.2208
     91  CG2      -40.6130  -21.9610   -0.2560 C.3    36  THR36       0.0378
     92  N        -36.7420  -16.6190    0.3500 N.3    59  ASP59      -0.1225
     93  CA       -36.7550  -18.0340    0.5740 C.3    59  ASP59       0.1805
     94  C        -37.3730  -18.7590   -0.6370 C.2    59  ASP59       0.2598
     95  O        -38.3330  -18.2730   -1.2280 O.2    59  ASP59      -0.2718
     96  CB       -37.5530  -18.3250    1.8410 C.3    59  ASP59       0.1424
     97  CG       -37.2750  -19.6950    2.3940 C.2    59  ASP59       0.3668
     98  OD1      -36.1940  -20.2520    2.0770 O.co2  59  ASP59      -0.2456
     99  OD2      -38.1470  -20.2190    3.1310 O.co2  59  ASP59      -0.2456
    100  N        -36.8050  -19.9100   -0.9870 N.am   60  THR60      -0.1939
    101  CA       -37.4060  -20.8540   -1.9350 C.3    60  THR60       0.2028
    102  C        -36.9020  -22.2660   -1.6460 C.2    60  THR60       0.2642
    103  O        -36.0140  -22.4470   -0.8210 O.2    60  THR60      -0.2714
    104  CB       -37.0520  -20.4470   -3.3800 C.3    60  THR60       0.1808
    105  OG1      -37.8380  -21.1940   -4.3100 O.3    60  THR60      -0.2208
    106  CG2      -35.5710  -20.6510   -3.6670 C.3    60  THR60       0.0379
    107  N        -37.4490  -23.2640   -2.3220 N.am   61  ALA61      -0.1963
    108  CA       -37.0020  -24.6560   -2.1070 C.3    61  ALA61       0.1728
    109  C        -35.5850  -24.8950   -2.6500 C.2    61  ALA61       0.2616
    110  O        -35.1600  -24.2240   -3.6010 O.2    61  ALA61      -0.2715
    111  CB       -37.9750  -25.6350   -2.7320 C.3    61  ALA61       0.0334
    112  N        -34.8610  -25.8500   -2.0550 N.am   62  GLY62      -0.1955
    113  CA       -33.4980  -26.1820   -2.4970 C.3    62  GLY62       0.1869
    114  C        -33.4210  -26.8600   -3.8710 C.2    62  GLY62       0.2309
    115  O        -32.8020  -27.9220   -4.0010 O.2    62  GLY62      -0.2863
    116  N        -27.6570  -25.5730   11.2480 N.3   117  ASN117     -0.1225
    117  CA       -28.9050  -25.4120   11.9810 C.3   117  ASN117      0.1785
    118  C        -29.3080  -26.7190   12.6960 C.2   117  ASN117      0.2597
    119  O        -28.7710  -27.7910   12.4040 O.2   117  ASN117     -0.2718
    120  CB       -30.0090  -24.8930   11.0350 C.3   117  ASN117      0.1169
    121  CG       -31.3390  -24.6910   11.7410 C.2   117  ASN117      0.2627
    122  OD1      -31.3900  -24.1350   12.8370 O.2   117  ASN117     -0.2716
    123  ND2      -32.4140  -25.1730   11.1350 N.am  117  ASN117     -0.0877
    124  N        -30.2540  -26.5870   13.6270 N.am  118  LYS118     -0.1980
    125  CA       -30.8250  -27.6760   14.4230 C.3   118  LYS118      0.1596
    126  C        -29.9000  -28.0490   15.5650 C.2   118  LYS118      0.2287
    127  O        -29.8760  -29.1920   16.0130 O.2   118  LYS118     -0.2864
    128  CB       -31.1900  -28.8910   13.5720 C.3   118  LYS118      0.0298
    129  CG       -31.9870  -28.5320   12.3360 C.3   118  LYS118      0.0038
    130  CD       -32.8570  -29.6690   11.8380 C.3   118  LYS118      0.0206
    131  CE       -33.3770  -29.3390   10.4470 C.3   118  LYS118      0.1093
    132  NZ       -34.4860  -30.2250    9.9950 N.3   118  LYS118     -0.1314
    133  N        -30.1980  -27.5040   18.6190 N.3   120  ASP120     -0.1225
    134  CA       -30.9870  -28.1770   19.6580 C.3   120  ASP120      0.1805
    135  C        -30.9560  -29.7200   19.5790 C.2   120  ASP120      0.2597
    136  O        -31.1190  -30.3870   20.5970 O.2   120  ASP120     -0.2718
    137  CB       -32.4290  -27.6990   19.6300 C.3   120  ASP120      0.1424
    138  CG       -33.0870  -27.9350   18.2870 C.2   120  ASP120      0.3668
    139  OD1      -32.5490  -27.4630   17.2520 O.co2 120  ASP120     -0.2456
    140  OD2      -34.1430  -28.6000   18.2760 O.co2 120  ASP120     -0.2456
    141  N        -30.7370  -30.2840   18.3940 N.am  121  LEU121     -0.1979
    142  CA       -30.7440  -31.7290   18.2390 C.3   121  LEU121      0.1596
    143  C        -29.3480  -32.3020   18.4700 C.2   121  LEU121      0.2287
    144  O        -28.7700  -32.9520   17.5900 O.2   121  LEU121     -0.2864
    145  CB       -31.2930  -32.1250   16.8650 C.3   121  LEU121      0.0297
    146  CG       -32.7410  -31.6670   16.6430 C.3   121  LEU121      0.0022
    147  CD1      -33.2280  -32.0480   15.2450 C.3   121  LEU121      0.0001
    148  CD2      -33.6570  -32.2280   17.7310 C.3   121  LEU121      0.0001
    149  N        -30.3590  -22.6730   16.0340 N.3   147  SER147     -0.1202
    150  CA       -31.5940  -23.4410   16.1040 C.3   147  SER147      0.2020
    151  C        -32.7040  -22.4810   15.8150 C.2   147  SER147      0.2619
    152  O        -32.9190  -21.5310   16.5730 O.2   147  SER147     -0.2717
    153  CB       -31.8010  -24.0550   17.4930 C.3   147  SER147      0.2103
    154  OG       -33.0300  -24.7770   17.5880 O.3   147  SER147     -0.2182
    155  N        -33.3900  -22.7240   14.7040 N.am  148  ALA148     -0.1965
    156  CA       -34.6230  -22.0260   14.3690 C.3   148  ALA148      0.1728
    157  C        -35.6830  -22.2760   15.4250 C.2   148  ALA148      0.2616
    158  O        -36.5220  -21.4050   15.7040 O.2   148  ALA148     -0.2715
    159  CB       -35.1330  -22.4880   13.0080 C.3   148  ALA148      0.0334
    160  N        -35.6410  -23.4690   16.0140 N.am  149  LYS149     -0.1977
    161  CA       -36.6180  -23.8430   17.0140 C.3   149  LYS149      0.1596
    162  C        -36.5230  -23.0110   18.2950 C.2   149  LYS149      0.2287
    163  O        -37.5110  -22.4210   18.7170 O.2   149  LYS149     -0.2864
    164  CB       -36.4810  -25.3240   17.3310 C.3   149  LYS149      0.0298
    165  CG       -37.4810  -25.8110   18.3500 C.3   149  LYS149      0.0038
    166  CD       -37.3670  -27.3070   18.5430 C.3   149  LYS149      0.0206
    167  CE       -38.7040  -27.8740   18.9670 C.3   149  LYS149      0.1093
    168  NZ       -38.5050  -29.2560   19.4590 N.3   149  LYS149     -0.1314
@<TRIPOS>BOND
     1   105   104    1
     2   115   114    2
     3   114   113    1
     4   106   104    1
     5   110   109    2
     6   104   101    1
     7     8     7    1
     8   111   108    1
     9   109   108    1
    10   109   112   am
    11   113   112    1
    12   107   108    1
    13   107   102   am
    14     7     6    1
    15    88    87    2
    16   101   102    1
    17   101   100    1
    18    84    83   ar
    19    84    82   ar
    20   102   103    2
    21    83    81   ar
    22    87    86    1
    23    95    94    2
    24   100    94   am
    25    82    80   ar
    26     6     5    1
    27    94    93    1
    28    91    89    1
    29    81    80   ar
    30    86    89    1
    31    86    85    1
    32    80    79    1
    33    92    93    1
    34    89    90    1
    35     5     2    1
    36    93    96    1
    37    85    77   am
    38     1     2    1
    39    78    77    2
    40    77    76    1
    41    31    32    1
    42    31    30    1
    43     2     3    1
    44    79    76    1
    45    96    97    1
    46    98    97   ar
    47    30    29    1
    48    97    99   ar
    49    76    75    1
    50     3     4    2
    51     3     9   am
    52     9    10    1
    53    29    28    1
    54    38    37    1
    55    28    25    1
    56    10    11    1
    57    18    17    1
    58    19    17    1
    59    37    34    1
    60    13    11   am
    61    13    14    1
    62    25    26    1
    63    25    24    1
    64    33    34    1
    65    33    26   am
    66    17    14    1
    67    34    35    1
    68    26    27    2
    69    11    12    2
    70    24    22   am
    71    14    15    1
    72    72    71    2
    73    71    70    1
    74    20    15   am
    75    20    21    1
    76    35    36    2
    77    35    39   am
    78    22    21    1
    79    22    23    2
    80    15    16    2
    81    73    70    1
    82    73    74    1
    83    39    40    1
    84    70    69    1
    85    74    44    1
    86    64    63    2
    87    69    63   am
    88    40    41    1
    89    40    43    1
    90   132   131    1
    91    63    62    1
    92    67    66   ar
    93    41    42    2
    94   131   130    1
    95    43    44    1
    96   120   121    1
    97   120   117    1
    98   123   121   am
    99    66    65    1
   100    66    68   ar
   101   116   117    1
   102    62    65    1
   103    62    61    1
   104   121   122    2
   105   130   129    1
   106   117   118    1
   107   129   128    1
   108    59    58    2
   109   119   118    2
   110    61    58   am
   111    56    57    1
   112   118   124   am
   113    58    57    1
   114   159   156    1
   115    57    60    1
   116   128   125    1
   117   124   125    1
   118    53    51   ar
   119    53    55   ar
   120   156   155    1
   121   156   157    1
   122   125   126    1
   123    51    50   ar
   124    55    54   ar
   125   155   151   am
   126   147   146    1
   127    47    46    1
   128    47    48    2
   129   157   158    2
   130   157   160   am
   131    46    49    1
   132    46    45    1
   133   126   127    2
   134    50    49    1
   135    50    52   ar
   136    54    52   ar
   137   151   150    1
   138   151   152    2
   139   160   161    1
   140   149   150    1
   141   150   153    1
   142   146   145    1
   143   146   148    1
   144   145   142    1
   145   161   164    1
   146   161   162    1
   147   139   138   ar
   148   164   165    1
   149   153   154    1
   150   144   143    2
   151   142   141    1
   152   142   143    1
   153   140   138   ar
   154   138   137    1
   155   162   163    2
   156   165   166    1
   157   141   135   am
   158   166   167    1
   159   133   134    1
   160   167   168    1
   161   135   134    1
   162   135   136    2
   163   137   134    1
