@<TRIPOS>MOLECULE
tmp/4d0lE00.pdb
 163 153 0 0 0
SMALL
GASTEIGER

@<TRIPOS>ATOM
      1  N        -23.0080  359.9980   90.0410 N.3   175  LEU175     -0.1231
      2  CA       -21.5590  360.1240   90.1250 C.3   175  LEU175      0.1693
      3  C        -21.0280  361.3500   90.8480 C.2   175  LEU175      0.2592
      4  O        -19.8900  361.3310   91.3060 O.2   175  LEU175     -0.2718
      5  CB       -20.9650  360.0580   88.7270 C.3   175  LEU175      0.0284
      6  CG       -21.2060  358.7240   88.0160 C.3   175  LEU175      0.0019
      7  CD1      -20.7060  358.8000   86.5860 C.3   175  LEU175      0.0001
      8  CD2      -20.5130  357.5840   88.7310 C.3   175  LEU175      0.0001
      9  N        -21.8130  362.4130   90.9250 N.am  176  ASN176     -0.1974
     10  CA       -21.4250  363.5770   91.7150 C.3   176  ASN176      0.1688
     11  C        -22.6320  364.3320   92.2310 C.2   176  ASN176      0.2292
     12  O        -23.7850  363.9690   91.9440 O.2   176  ASN176     -0.2864
     13  CB       -20.4690  364.5140   90.9460 C.3   176  ASN176      0.1181
     14  CG       -21.0450  365.0300   89.6410 C.2   176  ASN176      0.2629
     15  OD1      -22.2410  365.3010   89.5100 O.2   176  ASN176     -0.2716
     16  ND2      -20.1790  365.2170   88.6720 N.am  176  ASN176     -0.0877
     17  N        -23.2980  367.4260   91.5970 N.3   178  LYS178     -0.1245
     18  CA       -23.5510  368.5880   90.7590 C.3   178  LYS178      0.1561
     19  C        -25.0150  368.7140   90.2710 C.2   178  LYS178      0.2260
     20  O        -25.8120  367.7810   90.3090 O.2   178  LYS178     -0.2867
     21  CB       -22.6110  368.5920   89.5520 C.3   178  LYS178      0.0271
     22  CG       -21.1100  368.5180   89.8630 C.3   178  LYS178      0.0035
     23  CD       -20.2830  369.0400   88.6680 C.3   178  LYS178      0.0206
     24  CE       -18.9330  368.3390   88.3830 C.3   178  LYS178      0.1093
     25  NZ       -18.0950  368.2380   89.6060 N.3   178  LYS178     -0.1314
     26  N        -24.0750  363.6020   86.1440 N.3   182  PRO182     -0.2116
     27  CA       -24.2130  362.4330   85.3130 C.3   182  PRO182      0.1372
     28  C        -24.4670  361.2020   86.1760 C.2   182  PRO182      0.2244
     29  O        -24.1330  361.1940   87.3580 O.2   182  PRO182     -0.2868
     30  CB       -22.8470  362.3420   84.6550 C.3   182  PRO182      0.0268
     31  CG       -21.9110  362.8650   85.7060 C.3   182  PRO182      0.0207
     32  CD       -22.6620  363.9410   86.4110 C.3   182  PRO182      0.0892
     33  N        -24.5510  356.7240   86.2090 N.3   184  LEU184     -0.1245
     34  CA       -24.1010  355.5030   85.5600 C.3   184  LEU184      0.1561
     35  C        -25.1860  354.4680   85.7140 C.2   184  LEU184      0.2260
     36  O        -25.7380  354.3260   86.7970 O.2   184  LEU184     -0.2867
     37  CB       -22.8130  354.9980   86.2160 C.3   184  LEU184      0.0270
     38  CG       -22.2050  353.7710   85.5250 C.3   184  LEU184      0.0019
     39  CD1      -20.6820  353.8200   85.5180 C.3   184  LEU184      0.0001
     40  CD2      -22.6770  352.4760   86.1540 C.3   184  LEU184      0.0001
     41  N        -22.9170  355.9840   80.8580 N.3   242  ILE242     -0.1245
     42  CA       -23.0710  357.1560   81.6880 C.3   242  ILE242      0.1561
     43  C        -24.0220  358.0680   80.9580 C.2   242  ILE242      0.2260
     44  O        -23.9000  358.2630   79.7600 O.2   242  ILE242     -0.2867
     45  CB       -21.7260  357.8460   81.9200 C.3   242  ILE242      0.0252
     46  CG1      -20.8220  356.8610   82.6570 C.3   242  ILE242      0.0019
     47  CG2      -21.9230  359.1440   82.6840 C.3   242  ILE242      0.0019
     48  CD1      -19.5840  357.4630   83.2650 C.3   242  ILE242      0.0001
     49  N        -25.4160  361.7470   80.4450 N.3   244  LYS244     -0.1245
     50  CA       -25.1780  363.1700   80.7160 C.3   244  LYS244      0.1561
     51  C        -26.3360  363.9480   80.1270 C.2   244  LYS244      0.2260
     52  O        -26.4610  364.0590   78.9190 O.2   244  LYS244     -0.2867
     53  CB       -23.8140  363.6040   80.1810 C.3   244  LYS244      0.0271
     54  CG       -22.7720  362.6230   80.7020 C.3   244  LYS244      0.0035
     55  CD       -21.4320  363.1660   81.1600 C.3   244  LYS244      0.0206
     56  CE       -20.8490  364.1950   80.2340 C.3   244  LYS244      0.1093
     57  NZ       -20.0220  365.2570   80.8800 N.3   244  LYS244     -0.1314
     58  N        -16.0190  365.9930   73.3100 N.3   252  GLU252     -0.1245
     59  CA       -15.6820  364.6780   73.8260 C.3   252  GLU252      0.1567
     60  C        -15.6310  363.7100   72.6310 C.2   252  GLU252      0.2260
     61  O        -14.7050  362.8930   72.5050 O.2   252  GLU252     -0.2867
     62  CB       -16.7090  364.2650   74.8840 C.3   252  GLU252      0.0388
     63  CG       -16.2290  363.2170   75.8680 C.3   252  GLU252      0.1160
     64  CD       -15.1850  363.6720   76.8720 C.2   252  GLU252      0.3649
     65  OE1      -15.0700  364.8710   77.1990 O.co2 252  GLU252     -0.2457
     66  OE2      -14.4580  362.7880   77.3700 O.co2 252  GLU252     -0.2457
     67  N        -12.7490  355.9810   74.7470 N.3   278  TYR278     -0.1241
     68  CA       -14.0570  355.4890   75.1970 C.3   278  TYR278      0.1605
     69  C        -15.1790  356.0920   74.3710 C.2   278  TYR278      0.2264
     70  O        -15.1890  357.3070   74.1040 O.2   278  TYR278     -0.2867
     71  CB       -14.3090  355.7970   76.6750 C.3   278  TYR278      0.0534
     72  CG       -13.9770  357.2030   77.0840 C.ar  278  TYR278     -0.0201
     73  CD1      -14.9340  358.2440   76.9700 C.ar  278  TYR278     -0.0009
     74  CD2      -12.7110  357.4960   77.6190 C.ar  278  TYR278     -0.0009
     75  CE1      -14.6230  359.5440   77.3620 C.ar  278  TYR278      0.0417
     76  CE2      -12.3950  358.7750   78.0030 C.ar  278  TYR278      0.0417
     77  CZ       -13.3480  359.7730   77.8770 C.ar  278  TYR278      0.1957
     78  OH       -12.9570  360.9880   78.2690 O.3   278  TYR278     -0.2866
     79  N        -21.8130  358.3330   77.5100 N.3   290  ILE290     -0.1245
     80  CA       -20.4610  357.8210   77.4420 C.3   290  ILE290      0.1561
     81  C        -20.4370  356.3650   77.8890 C.2   290  ILE290      0.2260
     82  O        -21.0160  356.0470   78.9320 O.2   290  ILE290     -0.2867
     83  CB       -19.5790  358.6100   78.3970 C.3   290  ILE290      0.0252
     84  CG1      -19.3090  359.9810   77.8050 C.3   290  ILE290      0.0019
     85  CG2      -18.2730  357.8710   78.6710 C.3   290  ILE290      0.0019
     86  CD1      -18.7980  360.9640   78.8210 C.3   290  ILE290      0.0001
     87  N        -18.4890  353.7670   79.8090 N.3   292  PRO292     -0.2102
     88  CA       -17.3880  353.9030   80.7570 C.3   292  PRO292      0.1504
     89  C        -16.4510  352.7550   80.6320 C.2   292  PRO292      0.2576
     90  O        -16.8840  351.6650   80.2780 O.2   292  PRO292     -0.2718
     91  CB       -18.0850  353.8470   82.1130 C.3   292  PRO292      0.0282
     92  CG       -19.3020  352.9890   81.8740 C.3   292  PRO292      0.0208
     93  CD       -19.6940  353.1580   80.4280 C.3   292  PRO292      0.0893
     94  N        -15.1870  352.9750   80.9450 N.am  293  VAL293     -0.1966
     95  CA       -14.3040  351.8520   81.0810 C.3   293  VAL293      0.1727
     96  C        -14.4680  351.3540   82.5060 C.2   293  VAL293      0.2616
     97  O        -14.4180  352.1120   83.4680 O.2   293  VAL293     -0.2715
     98  CB       -12.8380  352.0700   80.6910 C.3   293  VAL293      0.0290
     99  CG1      -12.5250  353.4830   80.2600 C.3   293  VAL293      0.0023
    100  CG2      -11.9080  351.6390   81.8020 C.3   293  VAL293      0.0023
    101  N        -14.6860  350.0590   82.6380 N.am  294  VAL294     -0.1963
    102  CA       -14.8150  349.4200   83.9510 C.3   294  VAL294      0.1727
    103  C        -13.4570  348.9380   84.5400 C.2   294  VAL294      0.2616
    104  O        -12.4550  348.8360   83.8360 O.2   294  VAL294     -0.2715
    105  CB       -15.7920  348.2530   83.8220 C.3   294  VAL294      0.0290
    106  CG1      -17.1640  348.7670   83.3950 C.3   294  VAL294      0.0023
    107  CG2      -15.2600  347.2260   82.8260 C.3   294  VAL294      0.0023
    108  N        -13.4460  348.6020   85.8250 N.am  295  ASN295     -0.1958
    109  CA       -12.2170  348.1370   86.5250 C.3   295  ASN295      0.1819
    110  C        -11.0920  349.1510   86.4490 C.2   295  ASN295      0.2621
    111  O         -9.9250  348.8360   86.1650 O.2   295  ASN295     -0.2715
    112  CB       -11.7260  346.7880   86.0190 C.3   295  ASN295      0.1195
    113  CG       -12.6690  345.6490   86.3580 C.2   295  ASN295      0.2630
    114  OD1      -13.4920  345.7160   87.2780 O.2   295  ASN295     -0.2716
    115  ND2      -12.5390  344.5730   85.6140 N.am  295  ASN295     -0.0877
    116  N        -11.4850  350.3810   86.7240 N.am  296  ALA296     -0.1963
    117  CA       -10.5770  351.4990   86.7910 C.3   296  ALA296      0.1728
    118  C        -11.1620  352.4980   87.7680 C.2   296  ALA296      0.2616
    119  O        -12.3730  352.6410   87.8670 O.2   296  ALA296     -0.2715
    120  CB       -10.4320  352.1310   85.4230 C.3   296  ALA296      0.0334
    121  N        -10.3030  353.1760   88.5100 N.am  297  VAL297     -0.1977
    122  CA       -10.7840  354.1710   89.4590 C.3   297  VAL297      0.1596
    123  C         -9.8140  355.3190   89.4520 C.2   297  VAL297      0.2287
    124  O         -8.6370  355.1550   89.1000 O.2   297  VAL297     -0.2864
    125  CB       -10.9860  353.6250   90.8960 C.3   297  VAL297      0.0276
    126  CG1      -12.1400  352.6290   90.9370 C.3   297  VAL297      0.0022
    127  CG2       -9.7120  353.0070   91.4400 C.3   297  VAL297      0.0022
    128  N         -8.5240  363.6680   89.6370 N.3   355  GLY355     -0.1210
    129  CA        -9.9270  363.3730   89.3390 C.3   355  GLY355      0.1956
    130  C        -10.1990  362.9740   87.8840 C.2   355  GLY355      0.2611
    131  O        -11.2000  362.3110   87.5930 O.2   355  GLY355     -0.2717
    132  N         -9.3130  363.4030   86.9790 N.am  356  ASN356     -0.1974
    133  CA        -9.4450  363.1740   85.5370 C.3   356  ASN356      0.1688
    134  C         -8.5620  362.0680   85.0030 C.2   356  ASN356      0.2292
    135  O         -8.4970  361.8670   83.7760 O.2   356  ASN356     -0.2864
    136  CB        -9.0710  364.4470   84.7810 C.3   356  ASN356      0.1181
    137  CG       -10.1160  365.5150   84.8980 C.2   356  ASN356      0.2629
    138  OD1      -11.3010  365.2250   85.0490 O.2   356  ASN356     -0.2716
    139  ND2       -9.6880  366.7690   84.8380 N.am  356  ASN356     -0.0877
    140  N         -7.7080  358.0390   85.4170 N.3   358  LEU358     -0.1245
    141  CA        -8.1140  356.7500   85.9460 C.3   358  LEU358      0.1561
    142  C         -6.9190  355.8120   85.9720 C.2   358  LEU358      0.2260
    143  O         -5.9970  355.9770   85.1760 O.2   358  LEU358     -0.2867
    144  CB        -9.2240  356.1520   85.0870 C.3   358  LEU358      0.0270
    145  CG       -10.6310  356.6110   85.4550 C.3   358  LEU358      0.0019
    146  CD1      -10.6600  358.0880   85.8170 C.3   358  LEU358      0.0001
    147  CD2      -11.5980  356.3210   84.3130 C.3   358  LEU358      0.0001
    148  N         -9.5590  361.4220   81.2170 N.3   368  ILE368     -0.1231
    149  CA       -11.0100  361.4780   80.9160 C.3   368  ILE368      0.1692
    150  C        -11.7820  362.7910   80.6780 C.2   368  ILE368      0.2592
    151  O        -12.7100  362.7940   79.8610 O.2   368  ILE368     -0.2718
    152  CB       -11.8270  360.6480   81.9040 C.3   368  ILE368      0.0266
    153  CG1      -11.7330  361.2240   83.3170 C.3   368  ILE368      0.0019
    154  CG2      -11.3730  359.1990   81.8610 C.3   368  ILE368      0.0020
    155  CD1      -12.7080  360.5820   84.2860 C.3   368  ILE368      0.0001
    156  N        -11.4900  363.9160   81.2900 N.am  369  ASP369     -0.1974
    157  CA       -12.4300  364.9950   81.0010 C.3   369  ASP369      0.1709
    158  C        -11.9520  365.9560   79.8920 C.2   369  ASP369      0.2293
    159  O        -11.2230  366.9140   80.1610 O.2   369  ASP369     -0.2864
    160  CB       -12.8360  365.7170   82.2850 C.3   369  ASP369      0.1436
    161  CG       -14.2500  366.2630   82.2230 C.2   369  ASP369      0.3671
    162  OD1      -14.6360  366.7810   81.1550 O.co2 369  ASP369     -0.2456
    163  OD2      -14.9700  366.1820   83.2380 O.co2 369  ASP369     -0.2456
@<TRIPOS>BOND
     1    61    60    2
     2    60    59    1
     3    58    59    1
     4    59    62    1
     5    70    69    2
     6    69    68    1
     7    67    68    1
     8    62    63    1
     9    68    71    1
    10    63    64    1
    11    71    72    1
    12    64    65   ar
    13    64    66   ar
    14    73    72   ar
    15    73    75   ar
    16    72    74   ar
    17    75    77   ar
    18    80    79    1
    19    80    81    1
    20    80    83    1
    21    74    76   ar
    22    84    83    1
    23    84    86    1
    24    77    76   ar
    25    77    78    1
    26    81    82    2
    27    83    85    1
    28    52    51    2
    29    44    43    2
    30    87    93    1
    31    87    88    1
    32   151   150    2
    33   158   159    2
    34   158   157    1
    35    51    50    1
    36    53    54    1
    37    53    50    1
    38    56    57    1
    39    56    55    1
    40    99    98    1
    41    90    89    2
    42    93    92    1
    43    49    50    1
    44    89    88    1
    45    89    94   am
    46   150   149    1
    47   150   156   am
    48    98    95    1
    49    98   100    1
    50    54    55    1
    51    88    91    1
    52    41    42    1
    53   149   148    1
    54   149   152    1
    55    94    95    1
    56    43    42    1
    57   157   156    1
    58   157   160    1
    59    95    96    1
    60   162   161   ar
    61    42    45    1
    62   154   152    1
    63    92    91    1
    64   152   153    1
    65    45    46    1
    66    45    47    1
    67   161   160    1
    68   161   163   ar
    69    96   101   am
    70    96    97    2
    71   101   102    1
    72    46    48    1
    73   107   105    1
    74   153   155    1
    75   106   105    1
    76   135   134    2
    77   105   102    1
    78   104   103    2
    79   102   103    1
    80   147   145    1
    81   103   108   am
    82    30    27    1
    83    30    31    1
    84   136   137    1
    85   136   133    1
    86   139   137   am
    87   137   138    2
    88   134   133    1
    89   144   145    1
    90   144   141    1
    91   143   142    2
    92    27    26    1
    93    27    28    1
    94   140   141    1
    95   120   117    1
    96   145   146    1
    97    39    38    1
    98    38    40    1
    99    38    37    1
   100   133   132    1
   101    34    35    1
   102    34    33    1
   103    34    37    1
   104   115   113   am
   105    31    32    1
   106    35    36    2
   107   108   109    1
   108   141   142    1
   109   112   113    1
   110   112   109    1
   111    26    32    1
   112   111   110    2
   113    28    29    2
   114   113   114    2
   115   110   109    1
   116   110   116   am
   117     7     6    1
   118   116   117    1
   119   117   118    1
   120   132   130   am
   121   131   130    2
   122   118   119    2
   123   118   121   am
   124   130   129    1
   125     6     5    1
   126     6     8    1
   127    24    23    1
   128    24    25    1
   129   121   122    1
   130    23    22    1
   131    16    14   am
   132     5     2    1
   133   124   123    2
   134   129   128    1
   135   123   122    1
   136   122   125    1
   137    15    14    2
   138    21    22    1
   139    21    18    1
   140    14    13    1
   141     1     2    1
   142     2     3    1
   143    19    20    2
   144    19    18    1
   145    18    17    1
   146     3     9   am
   147     3     4    2
   148   125   126    1
   149   125   127    1
   150     9    10    1
   151    13    10    1
   152    10    11    1
   153    12    11    2
