@<TRIPOS>MOLECULE
tmp/4d0rA01.pdb
 169 161 0 0 0
SMALL
GASTEIGER

@<TRIPOS>ATOM
      1  N         48.2780   45.6040   11.6750 N.3    20  ILE20      -0.1245
      2  CA        48.6800   44.4030   12.4160 C.3    20  ILE20       0.1561
      3  C         47.6210   44.0680   13.4820 C.2    20  ILE20       0.2260
      4  O         47.2360   42.9010   13.6090 O.2    20  ILE20      -0.2867
      5  CB        50.1350   44.5010   12.9610 C.3    20  ILE20       0.0252
      6  CG1       51.1480   44.5410   11.7830 C.3    20  ILE20       0.0019
      7  CG2       50.4600   43.3360   13.9190 C.3    20  ILE20       0.0019
      8  CD1       52.4910   45.1490   12.0830 C.3    20  ILE20       0.0001
      9  N         51.7330   53.5750   16.7490 N.3    95  GLY95      -0.1210
     10  CA        53.0060   54.0970   16.2640 C.3    95  GLY95       0.1956
     11  C         52.8240   55.1620   15.2060 C.2    95  GLY95       0.2612
     12  O         51.9470   55.0500   14.3480 O.2    95  GLY95      -0.2717
     13  N         53.6430   56.2130   15.2780 N.am   96  PHE96      -0.1962
     14  CA        53.6350   57.3360   14.3390 C.3    96  PHE96       0.1771
     15  C         54.9510   58.0980   14.4070 C.2    96  PHE96       0.2619
     16  O         55.5620   58.1790   15.4760 O.2    96  PHE96      -0.2715
     17  CB        52.4530   58.2930   14.6230 C.3    96  PHE96       0.0574
     18  CG        52.4370   59.5520   13.7850 C.ar   96  PHE96      -0.0200
     19  CD1       52.0800   59.5100   12.4410 C.ar   96  PHE96      -0.0042
     20  CD2       52.7940   60.7780   14.3360 C.ar   96  PHE96      -0.0042
     21  CE1       52.0790   60.6700   11.6670 C.ar   96  PHE96      -0.0003
     22  CE2       52.7830   61.9400   13.5610 C.ar   96  PHE96      -0.0003
     23  CZ        52.4330   61.8760   12.2310 C.ar   96  PHE96      -0.0000
     24  N         55.3680   58.6740   13.2710 N.am   97  MET97      -0.1977
     25  CA        56.5650   59.5090   13.1600 C.3    97  MET97       0.1605
     26  C         56.3900   60.4180   11.9490 C.2    97  MET97       0.2287
     27  O         56.3000   59.9130   10.8270 O.2    97  MET97      -0.2864
     28  CB        57.8700   58.6740   13.0850 C.3    97  MET97       0.0413
     29  CG        59.1640   59.4980   13.2060 C.3    97  MET97       0.0598
     30  SD        59.4090   60.4860   14.7160 S.3    97  MET97      -0.1393
     31  CE        59.6660   59.2210   15.9020 C.3    97  MET97       0.0692
     32  N         61.0940   60.1100    9.3670 N.3   102  MET102     -0.1245
     33  CA        61.3310   58.8630    8.6260 C.3   102  MET102      0.1570
     34  C         61.8940   59.0890    7.2200 C.2   102  MET102      0.2261
     35  O         61.4580   59.9830    6.5000 O.2   102  MET102     -0.2867
     36  CB        60.0690   57.9900    8.5830 C.3   102  MET102      0.0387
     37  CG        59.7330   57.3700    9.9150 C.3   102  MET102      0.0595
     38  SD        58.1230   56.5450    9.9470 S.3   102  MET102     -0.1393
     39  CE        58.5780   54.9190    9.3620 C.3   102  MET102      0.0692
     40  N         59.7630   46.6930   16.4640 N.3   146  PHE146     -0.1227
     41  CA        60.6770   46.2400   15.4230 C.3   146  PHE146      0.1736
     42  C         62.0800   46.4040   16.0010 C.2   146  PHE146      0.2595
     43  O         62.3320   47.3560   16.7520 O.2   146  PHE146     -0.2718
     44  CB        60.4800   46.9350   14.0510 C.3   146  PHE146      0.0547
     45  CG        60.9630   48.3580   13.8600 C.ar  146  PHE146     -0.0202
     46  CD1       62.3240   48.6520   13.8080 C.ar  146  PHE146     -0.0042
     47  CD2       60.0630   49.3860   13.6250 C.ar  146  PHE146     -0.0042
     48  CE1       62.7680   49.9670   13.6060 C.ar  146  PHE146     -0.0003
     49  CE2       60.5080   50.6990   13.4060 C.ar  146  PHE146     -0.0003
     50  CZ        61.8560   50.9790   13.4030 C.ar  146  PHE146     -0.0000
     51  N         62.9630   45.4440   15.7040 N.am  147  ASP147     -0.1974
     52  CA        64.3350   45.4210   16.1940 C.3   147  ASP147      0.1709
     53  C         65.1290   46.7160   15.8700 C.2   147  ASP147      0.2293
     54  O         65.5250   46.9310   14.7200 O.2   147  ASP147     -0.2864
     55  CB        65.0690   44.1690   15.6930 C.3   147  ASP147      0.1436
     56  CG        66.3930   43.8810   16.3740 C.2   147  ASP147      0.3671
     57  OD1       66.8740   44.7490   17.1390 O.co2 147  ASP147     -0.2456
     58  OD2       66.9390   42.7790   16.1590 O.co2 147  ASP147     -0.2456
     59  N         69.3800   51.4130   10.5540 N.3   152  MET152     -0.1245
     60  CA        68.9880   51.0450    9.1920 C.3   152  MET152      0.1570
     61  C         68.6180   52.2890    8.3870 C.2   152  MET152      0.2261
     62  O         68.2780   53.3050    8.9910 O.2   152  MET152     -0.2867
     63  CB        67.7940   50.0750    9.2460 C.3   152  MET152      0.0387
     64  CG        66.6070   50.6180   10.0140 C.3   152  MET152      0.0595
     65  SD        65.6710   49.2840   10.7560 S.3   152  MET152     -0.1393
     66  CE        66.3170   49.2800   12.3510 C.3   152  MET152      0.0692
     67  N         64.2550   54.4880    8.2190 N.3   155  TYR155     -0.1241
     68  CA        63.3910   54.4720    9.4180 C.3   155  TYR155      0.1605
     69  C         63.7730   55.5120   10.4740 C.2   155  TYR155      0.2264
     70  O         62.8970   55.9900   11.2010 O.2   155  TYR155     -0.2867
     71  CB        63.2560   53.0700   10.0050 C.3   155  TYR155      0.0534
     72  CG        62.4760   52.1870    9.0560 C.ar  155  TYR155     -0.0201
     73  CD1       61.0840   52.2430    9.0070 C.ar  155  TYR155     -0.0009
     74  CD2       63.1290   51.3990    8.1100 C.ar  155  TYR155     -0.0009
     75  CE1       60.3610   51.4960    8.0800 C.ar  155  TYR155      0.0417
     76  CE2       62.4170   50.6530    7.1720 C.ar  155  TYR155      0.0417
     77  CZ        61.0320   50.6980    7.1650 C.ar  155  TYR155      0.1957
     78  OH        60.3280   49.9340    6.2610 O.3   155  TYR155     -0.2866
     79  N         62.0200   56.7360   13.7640 N.3   158  MET158     -0.1245
     80  CA        61.0860   55.6900   14.1710 C.3   158  MET158      0.1570
     81  C         61.8680   54.5720   14.8720 C.2   158  MET158      0.2261
     82  O         61.3830   54.0300   15.8650 O.2   158  MET158     -0.2867
     83  CB        60.2360   55.1750   13.0060 C.3   158  MET158      0.0387
     84  CG        59.0590   54.3070   13.4470 C.3   158  MET158      0.0595
     85  SD        57.8530   55.1680   14.5000 S.3   158  MET158     -0.1393
     86  CE        57.1770   53.8300   15.3470 C.3   158  MET158      0.0692
     87  N         61.5580   53.2000   18.7330 N.3   162  LYS162     -0.1245
     88  CA        61.5040   51.7840   19.1080 C.3   162  LYS162      0.1561
     89  C         62.4890   51.4430   20.2050 C.2   162  LYS162      0.2260
     90  O         62.1180   50.7500   21.1610 O.2   162  LYS162     -0.2867
     91  CB        61.6660   50.8590   17.9000 C.3   162  LYS162      0.0271
     92  CG        60.4850   50.9080   16.9470 C.3   162  LYS162      0.0035
     93  CD        59.1750   50.4460   17.5810 C.3   162  LYS162      0.0206
     94  CE        58.0820   50.3950   16.5590 C.3   162  LYS162      0.1093
     95  NZ        56.7820   50.0420   17.1530 N.3   162  LYS162     -0.1314
     96  N         58.3360   42.4010   15.2200 N.3   188  ALA188     -0.1231
     97  CA        57.9500   41.8140   13.9400 C.3   188  ALA188      0.1694
     98  C         58.8640   42.2480   12.8090 C.2   188  ALA188      0.2593
     99  O         59.4760   43.3120   12.8780 O.2   188  ALA188     -0.2718
    100  CB        56.4930   42.1740   13.6100 C.3   188  ALA188      0.0304
    101  N         58.9230   41.4240   11.7680 N.am  189  GLY189     -0.1943
    102  CA        59.6370   41.7530   10.5440 C.3   189  GLY189      0.1998
    103  C         58.8160   42.7420    9.7270 C.2   189  GLY189      0.2481
    104  O         57.7430   43.1710   10.1690 O.2   189  GLY189     -0.2729
    105  N         59.2410   43.1430    8.5140 N.am  190  PRO190     -0.2715
    106  CA        58.4090   44.0950    7.7600 C.3   190  PRO190      0.1536
    107  C         57.0760   43.4810    7.3270 C.2   190  PRO190      0.2598
    108  O         57.0230   42.3300    6.9070 O.2   190  PRO190     -0.2715
    109  CB        59.3110   44.5130    6.5860 C.3   190  PRO190      0.0310
    110  CG        60.2780   43.4160    6.4340 C.3   190  PRO190      0.0237
    111  CD        60.4560   42.7660    7.7660 C.3   190  PRO190      0.0939
    112  N         55.9960   44.2210    7.5230 N.am  191  ILE191     -0.1978
    113  CA        54.6410   43.8080    7.1520 C.3   191  ILE191      0.1596
    114  C         54.0760   44.8950    6.2700 C.2   191  ILE191      0.2287
    115  O         53.9890   46.0530    6.6940 O.2   191  ILE191     -0.2864
    116  CB        53.7100   43.4740    8.3680 C.3   191  ILE191      0.0276
    117  CG1       54.1780   42.2110    9.1510 C.3   191  ILE191      0.0022
    118  CG2       52.2340   43.3620    7.9480 C.3   191  ILE191      0.0022
    119  CD1       54.0800   40.8300    8.4020 C.3   191  ILE191      0.0001
    120  N         51.6980   46.9910    5.1790 N.3   193  THR193     -0.1218
    121  CA        50.4890   47.7060    5.6050 C.3   193  THR193      0.1862
    122  C         50.2710   48.8080    4.5580 C.2   193  THR193      0.2287
    123  O         51.0690   48.9020    3.6110 O.2   193  THR193     -0.2866
    124  CB        50.6380   48.3020    7.0330 C.3   193  THR193      0.1770
    125  OG1       51.7550   49.1970    7.0980 O.3   193  THR193     -0.2211
    126  CG2       50.7360   47.2400    8.1180 C.3   193  THR193      0.0375
    127  N         50.5910   52.1350    5.0160 N.3   195  ALA195     -0.1231
    128  CA        51.7330   53.0370    5.2260 C.3   195  ALA195      0.1694
    129  C         53.0410   52.4480    4.6680 C.2   195  ALA195      0.2591
    130  O         53.8390   53.1790    4.0790 O.2   195  ALA195     -0.2718
    131  CB        51.8880   53.3460    6.7090 C.3   195  ALA195      0.0304
    132  N         53.2360   51.1230    4.8400 N.am  196  MET196     -0.1979
    133  CA        54.4060   50.3740    4.3850 C.3   196  MET196      0.1605
    134  C         54.4750   50.2770    2.8740 C.2   196  MET196      0.2287
    135  O         55.5610   50.4180    2.3120 O.2   196  MET196     -0.2864
    136  CB        54.4070   48.9690    4.9880 C.3   196  MET196      0.0413
    137  CG        55.7150   48.2020    4.7760 C.3   196  MET196      0.0598
    138  SD        57.1480   49.0080    5.5460 S.3   196  MET196     -0.1393
    139  CE        56.9260   48.5560    7.2530 C.3   196  MET196      0.0692
    140  N         55.0490   54.0480    1.2670 N.3   199  ILE199     -0.1245
    141  CA        56.4580   54.4300    1.4490 C.3   199  ILE199      0.1561
    142  C         57.3980   53.6730    0.4870 C.2   199  ILE199      0.2260
    143  O         58.3560   54.2640   -0.0210 O.2   199  ILE199     -0.2867
    144  CB        56.8780   54.2570    2.9280 C.3   199  ILE199      0.0252
    145  CG1       57.9250   55.1400    3.4890 C.3   199  ILE199      0.0019
    146  CG2       56.9300   52.8280    3.3640 C.3   199  ILE199      0.0019
    147  CD1       58.1960   55.1290    4.9620 C.3   199  ILE199      0.0001
    148  N         65.4990   46.0530    2.4480 N.3   215  LEU215     -0.1245
    149  CA        65.2850   45.5970    3.8170 C.3   215  LEU215      0.1561
    150  C         64.3730   44.3730    3.7910 C.2   215  LEU215      0.2260
    151  O         64.7260   43.3390    4.3600 O.2   215  LEU215     -0.2867
    152  CB        64.6340   46.7400    4.6330 C.3   215  LEU215      0.0270
    153  CG        64.7400   46.7700    6.1820 C.3   215  LEU215      0.0019
    154  CD1       63.6310   45.9830    6.8610 C.3   215  LEU215      0.0001
    155  CD2       66.1280   46.4120    6.6870 C.3   215  LEU215      0.0001
    156  N         65.3540   40.4000    4.4890 N.3   219  TRP219     -0.1241
    157  CA        64.6530   39.7340    5.5730 C.3   219  TRP219      0.1605
    158  C         64.2920   38.3070    5.2140 C.2   219  TRP219      0.2264
    159  O         64.5330   37.4030    6.0070 O.2   219  TRP219     -0.2867
    160  CB        63.4000   40.5060    5.9470 C.3   219  TRP219      0.0550
    161  CG        63.1330   40.4480    7.4080 C.ar  219  TRP219      0.0003
    162  CD1       62.5470   39.4270    8.0960 C.ar  219  TRP219      0.0946
    163  CD2       63.4880   41.4370    8.3780 C.ar  219  TRP219      0.0152
    164  NE1       62.5000   39.7280    9.4370 N.ar  219  TRP219     -0.2442
    165  CE2       63.0580   40.9630    9.6370 C.ar  219  TRP219      0.0810
    166  CE3       64.0880   42.7090    8.3010 C.ar  219  TRP219      0.0012
    167  CZ2       63.2250   41.7010   10.8110 C.ar  219  TRP219      0.0191
    168  CZ3       64.2310   43.4510    9.4650 C.ar  219  TRP219      0.0001
    169  CH2       63.7970   42.9490   10.7000 C.ar  219  TRP219      0.0015
@<TRIPOS>BOND
     1   143   142    2
     2   142   141    1
     3   140   141    1
     4   141   144    1
     5   135   134    2
     6   148   149    1
     7   134   133    1
     8   144   146    1
     9   144   145    1
    10   145   147    1
    11   123   122    2
    12   150   149    1
    13   150   151    2
    14   149   152    1
    15   130   129    2
    16   133   132    1
    17   133   136    1
    18   156   157    1
    19   122   121    1
    20   152   153    1
    21   129   132   am
    22   129   128    1
    23   137   136    1
    24   137   138    1
    25   127   128    1
    26   120   121    1
    27   158   157    1
    28   158   159    2
    29   128   131    1
    30   138   139    1
    31   157   160    1
    32   121   124    1
    33   160   161    1
    34   153   155    1
    35   153   154    1
    36    78    77    1
    37   114   115    2
    38   114   113    1
    39   110   109    1
    40   110   111    1
    41    35    34    2
    42   109   106    1
    43   108   107    2
    44   124   125    1
    45   124   126    1
    46   113   112    1
    47   113   116    1
    48    77    76   ar
    49    77    75   ar
    50    76    74   ar
    51    34    33    1
    52   107   112   am
    53   107   106    1
    54   161   162   ar
    55   161   163   ar
    56   106   105    1
    57   111   105    1
    58   118   116    1
    59    75    73   ar
    60   162   164   ar
    61    74    72   ar
    62    67    68    1
    63   166   163   ar
    64   166   168   ar
    65   116   117    1
    66   163   165   ar
    67    61    62    2
    68    61    60    1
    69   119   117    1
    70   105   103   am
    71    36    33    1
    72    36    37    1
    73    33    32    1
    74    73    72   ar
    75    72    71    1
    76    60    63    1
    77    60    59    1
    78    63    64    1
    79    39    38    1
    80    68    71    1
    81    68    69    1
    82   164   165   ar
    83   168   169   ar
    84   165   167   ar
    85   103   104    2
    86   103   102    1
    87    37    38    1
    88    64    65    1
    89    69    70    2
    90   102   101    1
    91   169   167   ar
    92    65    66    1
    93    27    26    2
    94    21    23   ar
    95    21    19   ar
    96     1     2    1
    97   101    98   am
    98     6     8    1
    99     6     5    1
   100    26    25    1
   101    23    22   ar
   102     2     5    1
   103     2     3    1
   104    19    18   ar
   105    98    99    2
   106    98    97    1
   107     5     7    1
   108    83    84    1
   109    83    80    1
   110    28    25    1
   111    28    29    1
   112    25    24    1
   113    29    30    1
   114    24    15   am
   115    50    49   ar
   116    50    48   ar
   117    49    47   ar
   118    84    85    1
   119     3     4    2
   120    22    20   ar
   121    48    46   ar
   122   100    97    1
   123    47    45   ar
   124    79    80    1
   125    18    20   ar
   126    18    17    1
   127    46    45   ar
   128    45    44    1
   129    97    96    1
   130    44    41    1
   131    80    81    1
   132    14    15    1
   133    14    17    1
   134    14    13    1
   135    12    11    2
   136    15    16    2
   137    85    86    1
   138    30    31    1
   139    54    53    2
   140    81    82    2
   141    11    13   am
   142    11    10    1
   143    41    42    1
   144    41    40    1
   145    55    52    1
   146    55    56    1
   147    51    42   am
   148    51    52    1
   149    53    52    1
   150    42    43    2
   151    58    56   ar
   152    10     9    1
   153    56    57   ar
   154    94    95    1
   155    94    93    1
   156    92    93    1
   157    92    91    1
   158    91    88    1
   159    87    88    1
   160    88    89    1
   161    89    90    2
