@<TRIPOS>MOLECULE
tmp/4d0sC01.pdb
 184 177 0 0 0
SMALL
GASTEIGER

@<TRIPOS>ATOM
      1  N          1.6020  -22.0320   15.9400 N.3    95  GLY95      -0.1210
      2  CA         1.9520  -21.4850   14.6440 C.3    95  GLY95       0.1956
      3  C          1.6850  -22.4900   13.5620 C.2    95  GLY95       0.2612
      4  O          1.8540  -23.6970   13.7830 O.2    95  GLY95      -0.2717
      5  N          1.3040  -21.9960   12.3810 N.am   96  PHE96      -0.1962
      6  CA         1.0790  -22.8600   11.2340 C.3    96  PHE96       0.1771
      7  C          1.0700  -22.0440    9.9890 C.2    96  PHE96       0.2619
      8  O          0.4270  -21.0010    9.9440 O.2    96  PHE96      -0.2715
      9  CB        -0.2430  -23.6610   11.3470 C.3    96  PHE96       0.0574
     10  CG        -0.6060  -24.4620   10.1140 C.ar   96  PHE96      -0.0200
     11  CD1        0.0420  -25.6540    9.8270 C.ar   96  PHE96      -0.0042
     12  CD2       -1.5520  -23.9840    9.2080 C.ar   96  PHE96      -0.0042
     13  CE1       -0.2730  -26.3770    8.6680 C.ar   96  PHE96      -0.0003
     14  CE2       -1.8780  -24.7130    8.0700 C.ar   96  PHE96      -0.0003
     15  CZ        -1.2360  -25.9020    7.8050 C.ar   96  PHE96      -0.0000
     16  N          1.7450  -22.5440    8.9600 N.am   97  MET97      -0.1977
     17  CA         1.6660  -21.9490    7.6380 C.3    97  MET97       0.1605
     18  C          1.7590  -23.1170    6.6380 C.2    97  MET97       0.2287
     19  O          2.7290  -23.8680    6.7010 O.2    97  MET97      -0.2864
     20  CB         2.7870  -20.9330    7.4150 C.3    97  MET97       0.0413
     21  CG         2.6710  -20.1900    6.0510 C.3    97  MET97       0.0598
     22  SD         1.1400  -19.2350    5.7520 S.3    97  MET97      -0.1393
     23  CE         1.3260  -17.9370    6.9940 C.3    97  MET97       0.0692
     24  N          2.7000  -25.4440    3.4220 N.3    99  GLN99      -0.1245
     25  CA         3.9500  -25.5210    2.6500 C.3    99  GLN99       0.1566
     26  C          3.9820  -24.5800    1.4390 C.2    99  GLN99       0.2260
     27  O          5.0630  -24.1530    1.0450 O.2    99  GLN99      -0.2867
     28  CB         4.2660  -26.9730    2.2620 C.3    99  GLN99       0.0367
     29  CG         4.7540  -27.8310    3.4380 C.3    99  GLN99       0.0905
     30  CD         5.9850  -27.2840    4.1440 C.2    99  GLN99       0.2608
     31  OE1        5.8900  -26.5990    5.1700 O.2    99  GLN99      -0.2717
     32  NE2        7.1620  -27.5760    3.6200 N.am   99  GLN99      -0.0878
     33  N          5.4380  -21.3930    2.9050 N.3   102  MET102     -0.1245
     34  CA         6.7470  -21.5610    3.5480 C.3   102  MET102      0.1570
     35  C          7.6660  -22.3680    2.6160 C.2   102  MET102      0.2261
     36  O          7.3770  -22.4730    1.4140 O.2   102  MET102     -0.2867
     37  CB         6.5910  -22.2490    4.9250 C.3   102  MET102      0.0387
     38  CG         6.5100  -21.2910    6.0800 C.3   102  MET102      0.0595
     39  SD         6.5160  -22.1100    7.7100 S.3   102  MET102     -0.1393
     40  CE         7.9390  -21.4230    8.4050 C.3   102  MET102      0.0692
     41  N          9.2200  -14.6750   16.0720 N.3   147  PHE147     -0.1227
     42  CA        10.5740  -14.5720   15.5760 C.3   147  PHE147      0.1736
     43  C         10.6600  -13.2120   14.9130 C.2   147  PHE147      0.2595
     44  O          9.6410  -12.6830   14.4700 O.2   147  PHE147     -0.2718
     45  CB        11.0600  -15.7210   14.6850 C.3   147  PHE147      0.0547
     46  CG        10.3610  -15.8830   13.3610 C.ar  147  PHE147     -0.0202
     47  CD1       10.6280  -15.0110   12.3000 C.ar  147  PHE147     -0.0042
     48  CD2        9.5090  -16.9520   13.1390 C.ar  147  PHE147     -0.0042
     49  CE1       10.0150  -15.1930   11.0500 C.ar  147  PHE147     -0.0003
     50  CE2        8.9000  -17.1410   11.8950 C.ar  147  PHE147     -0.0003
     51  CZ         9.1750  -16.2820   10.8460 C.ar  147  PHE147     -0.0000
     52  N         11.8330  -12.6210   14.9120 N.am  148  ASP148     -0.1974
     53  CA        12.0060  -11.2740   14.3850 C.3   148  ASP148      0.1709
     54  C         11.6630  -11.2080   12.8650 C.2   148  ASP148      0.2293
     55  O         12.4070  -11.7380   12.0510 O.2   148  ASP148     -0.2864
     56  CB        13.4380  -10.7900   14.6530 C.3   148  ASP148      0.1436
     57  CG        13.7180   -9.3850   14.1480 C.2   148  ASP148      0.3671
     58  OD1       12.7520   -8.6530   13.8650 O.co2 148  ASP148     -0.2456
     59  OD2       14.8970   -9.0160   14.0580 O.co2 148  ASP148     -0.2456
     60  N         13.6780  -12.6610    4.5720 N.3   153  MET153     -0.1245
     61  CA        14.6440  -13.7620    4.6290 C.3   153  MET153      0.1570
     62  C         14.2000  -14.8280    3.6410 C.2   153  MET153      0.2261
     63  O         13.0200  -14.8850    3.2820 O.2   153  MET153     -0.2867
     64  CB        14.5600  -14.3700    6.0420 C.3   153  MET153      0.0387
     65  CG        13.1210  -14.5680    6.4640 C.3   153  MET153      0.0595
     66  SD        12.8350  -15.0060    8.1570 S.3   153  MET153     -0.1393
     67  CE        13.0920  -13.4060    8.9680 C.3   153  MET153      0.0692
     68  N         11.0580  -18.5280    4.8230 N.3   156  TYR156     -0.1241
     69  CA         9.9840  -18.3370    5.8140 C.3   156  TYR156      0.1605
     70  C          8.8040  -17.5290    5.2820 C.2   156  TYR156      0.2264
     71  O          7.7050  -17.6530    5.8190 O.2   156  TYR156     -0.2867
     72  CB        10.5370  -17.7860    7.1260 C.3   156  TYR156      0.0534
     73  CG        11.4980  -18.7790    7.7460 C.ar  156  TYR156     -0.0201
     74  CD1       11.0290  -19.8660    8.4770 C.ar  156  TYR156     -0.0009
     75  CD2       12.8620  -18.7160    7.4760 C.ar  156  TYR156     -0.0009
     76  CE1       11.9060  -20.8310    8.9810 C.ar  156  TYR156      0.0417
     77  CE2       13.7430  -19.6700    7.9730 C.ar  156  TYR156      0.0417
     78  CZ        13.2600  -20.7270    8.7200 C.ar  156  TYR156      0.1957
     79  OH        14.1640  -21.6240    9.2260 O.3   156  TYR156     -0.2866
     80  N          5.1140  -17.0370    6.5590 N.3   159  MET159     -0.1245
     81  CA         5.1510  -17.1680    8.0210 C.3   159  MET159      0.1570
     82  C          5.7970  -15.8940    8.6160 C.2   159  MET159      0.2261
     83  O          5.3370  -15.4120    9.6440 O.2   159  MET159     -0.2867
     84  CB         5.8930  -18.4340    8.4800 C.3   159  MET159      0.0387
     85  CG         5.9750  -18.5610   10.0000 C.3   159  MET159      0.0595
     86  SD         4.3370  -18.5180   10.8100 S.3   159  MET159     -0.1393
     87  CE         4.0980  -20.2760   11.0560 C.3   159  MET159      0.0692
     88  N          4.1500  -13.3880   11.3400 N.3   163  LYS163     -0.1245
     89  CA         4.7710  -12.8760   12.5710 C.3   163  LYS163      0.1561
     90  C          4.7210  -11.3410   12.6650 C.2   163  LYS163      0.2260
     91  O          4.5300  -10.8150   13.7620 O.2   163  LYS163     -0.2867
     92  CB         6.1990  -13.3800   12.7610 C.3   163  LYS163      0.0271
     93  CG         6.2960  -14.8990   12.9700 C.3   163  LYS163      0.0035
     94  CD         5.5290  -15.3980   14.2000 C.3   163  LYS163      0.0206
     95  CE         5.8900  -16.8400   14.4780 C.3   163  LYS163      0.1093
     96  NZ         5.0780  -17.4030   15.5960 N.3   163  LYS163     -0.1314
     97  N         12.3030  -15.7850   19.4250 N.3   189  ALA189     -0.1231
     98  CA        13.3800  -16.7550   19.5990 C.3   189  ALA189      0.1694
     99  C         14.2390  -16.9160   18.3580 C.2   189  ALA189      0.2593
    100  O         13.7850  -16.7000   17.2140 O.2   189  ALA189     -0.2718
    101  CB        12.7940  -18.1190   20.0090 C.3   189  ALA189      0.0304
    102  N         15.4680  -17.4020   18.6030 N.am  190  GLY190     -0.1943
    103  CA        16.3450  -17.8550   17.5450 C.3   190  GLY190      0.1998
    104  C         15.8050  -19.1990   17.0200 C.2   190  GLY190      0.2481
    105  O         14.8770  -19.7870   17.6100 O.2   190  GLY190     -0.2729
    106  N         16.4200  -19.7430   15.9530 N.am  191  PRO191     -0.2715
    107  CA        15.9500  -21.0260   15.3750 C.3   191  PRO191      0.1536
    108  C         16.2460  -22.2180   16.3000 C.2   191  PRO191      0.2598
    109  O         17.3630  -22.3810   16.8000 O.2   191  PRO191     -0.2715
    110  CB        16.7020  -21.0960   14.0390 C.3   191  PRO191      0.0310
    111  CG        17.9950  -20.3630   14.3140 C.3   191  PRO191      0.0237
    112  CD        17.5420  -19.1890   15.1690 C.3   191  PRO191      0.0939
    113  N         15.2150  -23.0430   16.5400 N.am  192  ILE192     -0.1964
    114  CA        15.2750  -24.2260   17.3810 C.3   192  ILE192      0.1727
    115  C         14.8100  -25.4130   16.5260 C.2   192  ILE192      0.2616
    116  O         13.7750  -25.3270   15.8560 O.2   192  ILE192     -0.2715
    117  CB        14.4020  -24.1030   18.6730 C.3   192  ILE192      0.0290
    118  CG1       14.8000  -22.8630   19.5920 C.3   192  ILE192      0.0022
    119  CG2       14.4410  -25.4320   19.5090 C.3   192  ILE192      0.0023
    120  CD1       16.1680  -23.0420   20.3950 C.3   192  ILE192      0.0001
    121  N         15.5700  -26.5070   16.5610 N.am  193  ARG193     -0.1963
    122  CA        15.2110  -27.7320   15.8430 C.3   193  ARG193      0.1729
    123  C         14.0440  -28.4350   16.5740 C.2   193  ARG193      0.2617
    124  O         14.2870  -29.1990   17.5200 O.2   193  ARG193     -0.2715
    125  CB        16.4430  -28.6530   15.7410 C.3   193  ARG193      0.0348
    126  CG        17.4970  -28.1370   14.7680 C.3   193  ARG193      0.0492
    127  CD        17.4920  -28.8560   13.4380 C.3   193  ARG193      0.2205
    128  NE        18.4070  -28.2180   12.4870 N.pl3 193  ARG193     -0.0865
    129  CZ        19.6500  -28.6220   12.2430 C.cat 193  ARG193      0.5346
    130  NH1       20.1410  -29.6950   12.8520 N.pl3 193  ARG193      0.1354
    131  NH2       20.4100  -27.9610   11.3790 N.pl3 193  ARG193      0.1354
    132  N         12.7810  -28.1230   16.1750 N.am  194  THR194     -0.1937
    133  CA        11.5600  -28.6760   16.8010 C.3   194  THR194      0.2028
    134  C         10.8270  -29.6910   15.9180 C.2   194  THR194      0.2642
    135  O          9.8830  -30.3300   16.3940 O.2   194  THR194     -0.2714
    136  CB        10.5890  -27.5530   17.2330 C.3   194  THR194      0.1808
    137  OG1       10.1290  -26.8360   16.0830 O.3   194  THR194     -0.2208
    138  CG2       11.1920  -26.6070   18.2600 C.3   194  THR194      0.0379
    139  N         11.2430  -29.8010   14.6310 N.am  195  LEU195     -0.1977
    140  CA        10.7310  -30.6740   13.5550 C.3   195  LEU195      0.1596
    141  C          9.5400  -30.0640   12.8340 C.2   195  LEU195      0.2287
    142  O          9.6770  -29.5970   11.7060 O.2   195  LEU195     -0.2864
    143  CB        10.4080  -32.1150   14.0140 C.3   195  LEU195      0.0297
    144  CG        11.1660  -33.2530   13.3330 C.3   195  LEU195      0.0022
    145  CD1       11.0510  -34.5340   14.1410 C.3   195  LEU195      0.0001
    146  CD2       10.6740  -33.4850   11.9060 C.3   195  LEU195      0.0001
    147  N         17.5250  -22.5910    5.3470 N.3   201  ILE201     -0.1245
    148  CA        17.4480  -22.8350    6.7880 C.3   201  ILE201      0.1561
    149  C         18.8450  -23.0730    7.3600 C.2   201  ILE201      0.2260
    150  O         19.1730  -22.4670    8.3820 O.2   201  ILE201     -0.2867
    151  CB        16.4170  -23.9500    7.1210 C.3   201  ILE201      0.0252
    152  CG1       14.9840  -23.3970    6.9570 C.3   201  ILE201      0.0019
    153  CG2       16.6110  -24.5330    8.5370 C.3   201  ILE201      0.0019
    154  CD1       14.0240  -24.2840    6.2930 C.3   201  ILE201      0.0001
    155  N         20.6520  -19.7920    7.4530 N.3   204  LEU204     -0.1245
    156  CA        20.0350  -18.9610    8.4950 C.3   204  LEU204      0.1561
    157  C         20.6080  -19.3200    9.8670 C.2   204  LEU204      0.2260
    158  O         21.1160  -18.4410   10.5690 O.2   204  LEU204     -0.2867
    159  CB        18.5020  -19.1220    8.5160 C.3   204  LEU204      0.0270
    160  CG        17.7490  -18.2920    9.5950 C.3   204  LEU204      0.0019
    161  CD1       17.0980  -17.0580    9.0040 C.3   204  LEU204      0.0001
    162  CD2       16.7090  -19.1360   10.3120 C.3   204  LEU204      0.0001
    163  N         23.3030  -17.5000   12.5350 N.3   208  TRP208     -0.1241
    164  CA        22.7630  -17.2500   13.8780 C.3   208  TRP208      0.1605
    165  C         23.7980  -17.3430   14.9890 C.2   208  TRP208      0.2264
    166  O         24.0410  -16.3430   15.6560 O.2   208  TRP208     -0.2867
    167  CB        21.5940  -18.1870   14.2140 C.3   208  TRP208      0.0550
    168  CG        20.5930  -17.4450   15.0100 C.ar  208  TRP208      0.0003
    169  CD1       20.6380  -17.1830   16.3500 C.ar  208  TRP208      0.0946
    170  CD2       19.5490  -16.6440   14.4780 C.ar  208  TRP208      0.0152
    171  NE1       19.6540  -16.2960   16.6840 N.ar  208  TRP208     -0.2442
    172  CE2       18.9370  -15.9830   15.5580 C.ar  208  TRP208      0.0810
    173  CE3       19.0060  -16.4830   13.1860 C.ar  208  TRP208      0.0012
    174  CZ2       17.8380  -15.1460   15.3890 C.ar  208  TRP208      0.0191
    175  CZ3       17.9280  -15.6320   13.0150 C.ar  208  TRP208      0.0001
    176  CH2       17.3380  -14.9920   14.1040 C.ar  208  TRP208      0.0015
    177  N         20.9570  -24.2760   18.6040 N.3   218  MET218     -0.1245
    178  CA        19.6850  -24.6060   17.9550 C.3   218  MET218      0.1570
    179  C         19.0350  -25.9050   18.4660 C.2   218  MET218      0.2261
    180  O         17.8490  -26.1230   18.2320 O.2   218  MET218     -0.2867
    181  CB        19.8380  -24.6400   16.4310 C.3   218  MET218      0.0387
    182  CG        20.7630  -25.7500   15.9460 C.3   218  MET218      0.0595
    183  SD        21.0390  -25.7670   14.1770 S.3   218  MET218     -0.1393
    184  CE        19.4300  -25.2550   13.5450 C.3   218  MET218      0.0692
@<TRIPOS>BOND
     1    27    26    2
     2    36    35    2
     3    26    25    1
     4    28    25    1
     5    28    29    1
     6    35    34    1
     7    25    24    1
     8    33    34    1
     9    63    62    2
    10    29    30    1
    11    34    37    1
    12    32    30   am
    13    62    61    1
    14    30    31    2
    15    60    61    1
    16    61    64    1
    17    68    69    1
    18    37    38    1
    19    70    69    1
    20    70    71    2
    21   147   148    1
    22    22    21    1
    23    22    23    1
    24    69    72    1
    25    64    65    1
    26    21    20    1
    27    38    39    1
    28   154   152    1
    29    65    66    1
    30    80    81    1
    31    18    19    2
    32    18    17    1
    33   148   151    1
    34   148   149    1
    35   152   151    1
    36   151   153    1
    37    72    73    1
    38   149   150    2
    39    20    17    1
    40   155   156    1
    41    75    73   ar
    42    75    77   ar
    43    17    16    1
    44    39    40    1
    45    73    74   ar
    46    15    14   ar
    47    15    13   ar
    48    77    78   ar
    49    81    84    1
    50    81    82    1
    51    14    12   ar
    52    66    67    1
    53    74    76   ar
    54    84    85    1
    55   156   159    1
    56   156   157    1
    57   159   160    1
    58    82    83    2
    59    13    11   ar
    60    78    76   ar
    61    78    79    1
    62    16     7   am
    63   161   160    1
    64    12    10   ar
    65   160   162    1
    66    11    10   ar
    67   157   158    2
    68     8     7    2
    69     7     6    1
    70    85    86    1
    71    10     9    1
    72    86    87    1
    73    51    49   ar
    74    51    50   ar
    75    49    47   ar
    76     6     9    1
    77     6     5    1
    78    88    89    1
    79   131   129    1
    80   142   141    2
    81    50    48   ar
    82   146   144    1
    83    55    54    2
    84   129   128    2
    85   129   130    1
    86    47    46   ar
    87     5     3   am
    88   128   127    1
    89   163   164    1
    90    89    90    1
    91    89    92    1
    92    90    91    2
    93    92    93    1
    94   141   140    1
    95    54    53    1
    96    93    94    1
    97   175   173   ar
    98   175   176   ar
    99    48    46   ar
   100   173   170   ar
   101   144   143    1
   102   144   145    1
   103    46    45    1
   104   127   126    1
   105   184   183    1
   106   140   143    1
   107   140   139    1
   108     3     4    2
   109     3     2    1
   110    58    57   ar
   111   164   167    1
   112   164   165    1
   113   110   111    1
   114   110   107    1
   115    59    57   ar
   116   176   174   ar
   117    57    56    1
   118   183   182    1
   119    94    95    1
   120   167   168    1
   121   111   112    1
   122    53    56    1
   123    53    52    1
   124    44    43    2
   125   170   168   ar
   126   170   172   ar
   127    95    96    1
   128   139   134   am
   129     2     1    1
   130    45    42    1
   131   126   125    1
   132    52    43   am
   133    43    42    1
   134   165   166    2
   135   168   169   ar
   136   112   106    1
   137   107   106    1
   138   107   108    1
   139   174   172   ar
   140   172   171   ar
   141    42    41    1
   142   125   122    1
   143   122   121    1
   144   122   123    1
   145   116   115    2
   146   134   135    2
   147   134   133    1
   148   182   181    1
   149   106   104   am
   150   137   136    1
   151   132   123   am
   152   132   133    1
   153   108   113   am
   154   108   109    2
   155   169   171   ar
   156   181   178    1
   157   115   121   am
   158   115   114    1
   159   113   114    1
   160   123   124    2
   161   133   136    1
   162   104   103    1
   163   104   105    2
   164   100    99    2
   165   136   138    1
   166   114   117    1
   167   103   102    1
   168   178   179    1
   169   178   177    1
   170   180   179    2
   171    99   102   am
   172    99    98    1
   173   117   119    1
   174   117   118    1
   175    97    98    1
   176   118   120    1
   177    98   101    1
