@<TRIPOS>MOLECULE
tmp/4d0tC02.pdb
 123 118 0 0 0
SMALL
GASTEIGER

@<TRIPOS>ATOM
      1  N        -20.0180   30.5760  -34.7520 N.3   130  LEU130     -0.1245
      2  CA       -18.5980   30.6520  -34.5510 C.3   130  LEU130      0.1561
      3  C        -17.9400   29.3000  -34.7550 C.2   130  LEU130      0.2260
      4  O        -16.8000   29.2570  -35.1880 O.2   130  LEU130     -0.2867
      5  CB       -18.2390   31.2480  -33.1820 C.3   130  LEU130      0.0270
      6  CG       -18.5640   30.4660  -31.9030 C.3   130  LEU130      0.0019
      7  CD1      -17.5160   29.4100  -31.5800 C.3   130  LEU130      0.0001
      8  CD2      -18.7180   31.3830  -30.7240 C.3   130  LEU130      0.0001
      9  N        -15.1440   28.9740  -37.5270 N.3   134  ARG134     -0.1245
     10  CA       -13.7540   28.7210  -37.1870 C.3   134  ARG134      0.1563
     11  C        -13.2060   27.5840  -38.0190 C.2   134  ARG134      0.2260
     12  O        -12.0530   27.5730  -38.4020 O.2   134  ARG134     -0.2867
     13  CB       -13.5950   28.4270  -35.7070 C.3   134  ARG134      0.0307
     14  CG       -13.6050   29.6830  -34.8600 C.3   134  ARG134      0.0489
     15  CD       -13.2490   29.3890  -33.4160 C.3   134  ARG134      0.2205
     16  NE       -13.6390   30.4680  -32.4950 N.pl3 134  ARG134     -0.0865
     17  CZ       -13.9310   30.2960  -31.2000 C.cat 134  ARG134      0.5346
     18  NH1      -13.8860   29.0770  -30.6340 N.pl3 134  ARG134      0.1354
     19  NH2      -14.3190   31.3290  -30.4700 N.pl3 134  ARG134      0.1354
     20  N        -10.9000   36.0990  -30.7080 N.3   150  ASP150     -0.1239
     21  CA       -12.1420   36.8340  -30.9170 C.3   150  ASP150      0.1674
     22  C        -11.8050   38.1390  -31.6120 C.2   150  ASP150      0.2266
     23  O        -10.6760   38.6100  -31.5530 O.2   150  ASP150     -0.2867
     24  CB       -12.8150   37.1710  -29.5860 C.3   150  ASP150      0.1410
     25  CG       -13.5790   36.0060  -28.9890 C.2   150  ASP150      0.3668
     26  OD1      -13.4180   34.8690  -29.4970 O.co2 150  ASP150     -0.2456
     27  OD2      -14.3300   36.2570  -27.9780 O.co2 150  ASP150     -0.2456
     28  N         -5.7690   35.9930  -20.3160 N.3   179  ILE179     -0.1245
     29  CA        -6.6520   36.9090  -20.9990 C.3   179  ILE179      0.1561
     30  C         -6.8930   38.1480  -20.1470 C.2   179  ILE179      0.2260
     31  O         -7.6170   38.1020  -19.1750 O.2   179  ILE179     -0.2867
     32  CB        -7.9830   36.2040  -21.3300 C.3   179  ILE179      0.0252
     33  CG1       -7.6930   34.9700  -22.1530 C.3   179  ILE179      0.0019
     34  CG2       -8.9040   37.1520  -22.1090 C.3   179  ILE179      0.0019
     35  CD1       -8.8890   34.0500  -22.3670 C.3   179  ILE179      0.0001
     36  N        -18.6830   27.8270  -17.9580 N.3   206  PHE206     -0.1241
     37  CA       -17.3060   28.1470  -17.6920 C.3   206  PHE206      0.1605
     38  C        -17.1480   29.1400  -16.5340 C.2   206  PHE206      0.2264
     39  O        -17.8660   30.1400  -16.4570 O.2   206  PHE206     -0.2867
     40  CB       -16.6680   28.7310  -18.9400 C.3   206  PHE206      0.0534
     41  CG       -15.2210   29.0910  -18.7490 C.ar  206  PHE206     -0.0203
     42  CD1      -14.2370   28.1020  -18.7410 C.ar  206  PHE206     -0.0042
     43  CD2      -14.8450   30.4100  -18.5410 C.ar  206  PHE206     -0.0042
     44  CE1      -12.9090   28.4210  -18.5400 C.ar  206  PHE206     -0.0003
     45  CE2      -13.5060   30.7330  -18.3570 C.ar  206  PHE206     -0.0003
     46  CZ       -12.5430   29.7300  -18.3520 C.ar  206  PHE206     -0.0000
     47  N        -11.0110   28.9170  -21.7050 N.3   233  ALA233     -0.1231
     48  CA       -12.1120   29.8600  -21.8580 C.3   233  ALA233      0.1694
     49  C        -12.7750   29.6820  -23.2290 C.2   233  ALA233      0.2593
     50  O        -14.0040   29.7540  -23.3460 O.2   233  ALA233     -0.2718
     51  CB       -11.6140   31.2860  -21.6860 C.3   233  ALA233      0.0304
     52  N        -11.9450   29.4920  -24.2610 N.am  234  GLY234     -0.1942
     53  CA       -12.3910   28.9710  -25.5490 C.3   234  GLY234      0.2014
     54  C        -12.1500   29.8050  -26.7720 C.2   234  GLY234      0.2639
     55  O        -12.0360   29.2900  -27.8720 O.2   234  GLY234     -0.2714
     56  N        -12.0280   31.1070  -26.5960 N.am  235  GLY235     -0.1939
     57  CA       -11.8580   31.9970  -27.7490 C.3   235  GLY235      0.2014
     58  C        -10.4320   32.3400  -28.1640 C.2   235  GLY235      0.2638
     59  O        -10.2210   32.8930  -29.2630 O.2   235  GLY235     -0.2714
     60  N         -9.4550   32.0830  -27.2950 N.am  236  LEU236     -0.1977
     61  CA        -8.1160   32.4400  -27.5850 C.3   236  LEU236      0.1596
     62  C         -7.2410   31.2420  -27.3180 C.2   236  LEU236      0.2287
     63  O         -7.0260   30.8850  -26.1730 O.2   236  LEU236     -0.2864
     64  CB        -7.6380   33.6350  -26.7540 C.3   236  LEU236      0.0297
     65  CG        -8.4200   34.8950  -26.3420 C.3   236  LEU236      0.0022
     66  CD1       -7.5750   36.1100  -26.6340 C.3   236  LEU236      0.0001
     67  CD2       -9.7920   35.1130  -26.9480 C.3   236  LEU236      0.0001
     68  N        -23.0930   29.9910  -30.7020 N.3   257  TRP257     -0.1227
     69  CA       -22.2340   30.3240  -29.5690 C.3   257  TRP257      0.1737
     70  C        -22.4900   29.3350  -28.4150 C.2   257  TRP257      0.2596
     71  O        -23.6070   28.8570  -28.2690 O.2   257  TRP257     -0.2718
     72  CB       -22.5430   31.7600  -29.1170 C.3   257  TRP257      0.0564
     73  CG       -21.8380   32.1950  -27.8900 C.ar  257  TRP257      0.0003
     74  CD1      -20.6880   32.9170  -27.8220 C.ar  257  TRP257      0.0946
     75  CD2      -22.2380   31.9590  -26.5300 C.ar  257  TRP257      0.0152
     76  NE1      -20.3280   33.1200  -26.5070 N.ar  257  TRP257     -0.2442
     77  CE2      -21.2520   32.5290  -25.6960 C.ar  257  TRP257      0.0810
     78  CE3      -23.3080   31.3000  -25.9380 C.ar  257  TRP257      0.0012
     79  CZ2      -21.3220   32.4810  -24.3020 C.ar  257  TRP257      0.0191
     80  CZ3      -23.3740   31.2420  -24.5180 C.ar  257  TRP257      0.0001
     81  CH2      -22.4030   31.8420  -23.7310 C.ar  257  TRP257      0.0015
     82  N        -21.4580   29.0230  -27.6240 N.am  258  GLY258     -0.1957
     83  CA       -21.5360   28.1780  -26.3790 C.3   258  GLY258      0.1869
     84  C        -21.5250   26.6700  -26.7350 C.2   258  GLY258      0.2309
     85  O        -21.8950   26.3630  -27.8290 O.2   258  GLY258     -0.2863
     86  N        -18.6970   24.9170  -27.2140 N.3   260  GLU260     -0.1231
     87  CA       -17.6640   24.2560  -27.9990 C.3   260  GLU260      0.1699
     88  C        -16.3320   24.2570  -27.2130 C.2   260  GLU260      0.2592
     89  O        -15.5080   23.3910  -27.3830 O.2   260  GLU260     -0.2718
     90  CB       -17.4910   24.9640  -29.3420 C.3   260  GLU260      0.0402
     91  CG       -16.4270   26.0570  -29.3830 C.3   260  GLU260      0.1161
     92  CD       -16.7490   27.2550  -28.5150 C.2   260  GLU260      0.3649
     93  OE1      -17.9370   27.4140  -28.1430 O.co2 260  GLU260     -0.2457
     94  OE2      -15.8080   28.0290  -28.2010 O.co2 260  GLU260     -0.2457
     95  N        -16.1440   25.2420  -26.3470 N.am  261  ASN261     -0.1974
     96  CA       -15.0360   25.2260  -25.4000 C.3   261  ASN261      0.1688
     97  C        -15.0470   24.0390  -24.4560 C.2   261  ASN261      0.2292
     98  O        -14.0210   23.4660  -24.1430 O.2   261  ASN261     -0.2864
     99  CB       -14.9230   26.5760  -24.6420 C.3   261  ASN261      0.1181
    100  CG       -16.1530   26.9480  -23.7950 C.2   261  ASN261      0.2629
    101  OD1      -16.0280   27.7480  -22.8680 O.2   261  ASN261     -0.2716
    102  ND2      -17.3120   26.4040  -24.0940 N.am  261  ASN261     -0.0877
    103  N         -9.1530   41.2480  -23.9800 N.3   285  HIS285     -0.1241
    104  CA       -10.4230   40.8510  -24.5790 C.3   285  HIS285      0.1621
    105  C        -11.5280   41.7370  -23.9990 C.2   285  HIS285      0.2264
    106  O        -11.5600   42.0060  -22.7930 O.2   285  HIS285     -0.2867
    107  CB       -10.6940   39.3800  -24.2770 C.3   285  HIS285      0.0745
    108  CG       -12.0560   38.9060  -24.6820 C.ar  285  HIS285      0.0817
    109  ND1      -13.0660   38.6840  -23.7750 N.ar  285  HIS285     -0.2268
    110  CD2      -12.5850   38.6180  -25.8940 C.ar  285  HIS285      0.1154
    111  CE1      -14.1530   38.2850  -24.4100 C.ar  285  HIS285      0.1986
    112  NE2      -13.8880   38.2380  -25.6990 N.ar  285  HIS285     -0.2212
    113  N        -14.6180   41.7980  -22.5110 N.3   287  PHE287     -0.1241
    114  CA       -15.6510   40.9830  -21.8830 C.3   287  PHE287      0.1605
    115  C        -16.9250   41.7910  -21.8540 C.2   287  PHE287      0.2264
    116  O        -16.9040   42.9760  -21.5050 O.2   287  PHE287     -0.2867
    117  CB       -15.2330   40.5500  -20.4860 C.3   287  PHE287      0.0534
    118  CG       -14.1020   39.5290  -20.4880 C.ar  287  PHE287     -0.0203
    119  CD1      -14.3730   38.1590  -20.5560 C.ar  287  PHE287     -0.0042
    120  CD2      -12.7660   39.9430  -20.4170 C.ar  287  PHE287     -0.0042
    121  CE1      -13.3440   37.2270  -20.5360 C.ar  287  PHE287     -0.0003
    122  CE2      -11.7400   39.0300  -20.3950 C.ar  287  PHE287     -0.0003
    123  CZ       -12.0290   37.6670  -20.4590 C.ar  287  PHE287     -0.0000
@<TRIPOS>BOND
     1    12    11    2
     2    11    10    1
     3     9    10    1
     4    10    13    1
     5    13    14    1
     6     4     3    2
     7    14    15    1
     8     3     2    1
     9     1     2    1
    10     2     5    1
    11    15    16    1
    12     5     6    1
    13    16    17    2
    14     6     7    1
    15     6     8    1
    16    22    23    2
    17    22    21    1
    18    17    18    1
    19    17    19    1
    20    21    20    1
    21    21    24    1
    22    68    69    1
    23    24    25    1
    24    69    72    1
    25    69    70    1
    26    26    25   ar
    27    91    90    1
    28    91    92    1
    29    90    87    1
    30    59    58    2
    31    72    73    1
    32    25    27   ar
    33    92    94   ar
    34    92    93   ar
    35    70    71    2
    36    70    82   am
    37    58    57    1
    38    58    60   am
    39    87    86    1
    40    87    88    1
    41    73    74   ar
    42    73    75   ar
    43    55    54    2
    44    85    84    2
    45    74    76   ar
    46    57    56    1
    47    82    83    1
    48    61    62    1
    49    61    60    1
    50    61    64    1
    51    89    88    2
    52    62    63    2
    53    88    95   am
    54    67    65    1
    55    54    56   am
    56    54    53    1
    57    64    65    1
    58    84    83    1
    59    66    65    1
    60    75    78   ar
    61    75    77   ar
    62    76    77   ar
    63    95    96    1
    64    78    80   ar
    65   110   112   ar
    66   110   108   ar
    67   112   111   ar
    68    77    79   ar
    69    53    52    1
    70    96    99    1
    71    96    97    1
    72   108   107    1
    73   108   109   ar
    74    99   100    1
    75   104   107    1
    76   104   105    1
    77   104   103    1
    78    80    81   ar
    79    97    98    2
    80   111   109   ar
    81    79    81   ar
    82    52    49   am
    83   102   100   am
    84   105   106    2
    85   100   101    2
    86    50    49    2
    87    49    48    1
    88   113   114    1
    89    35    33    1
    90    33    32    1
    91    34    32    1
    92   114   115    1
    93   114   117    1
    94    48    47    1
    95    48    51    1
    96   115   116    2
    97    32    29    1
    98    29    28    1
    99    29    30    1
   100   119   121   ar
   101   119   118   ar
   102   121   123   ar
   103   118   117    1
   104   118   120   ar
   105   123   122   ar
   106   120   122   ar
   107    30    31    2
   108    40    41    1
   109    40    37    1
   110    41    42   ar
   111    41    43   ar
   112    42    44   ar
   113    43    45   ar
   114    44    46   ar
   115    45    46   ar
   116    36    37    1
   117    37    38    1
   118    38    39    2
