@<TRIPOS>MOLECULE
tmp/4d0tA00.pdb
 241 236 0 0 0
SMALL
GASTEIGER

@<TRIPOS>ATOM
      1  N         14.9270    8.7070  -56.9960 N.3    69  THR69      -0.1203
      2  CA        13.8890    7.7520  -57.3150 C.3    69  THR69       0.1994
      3  C         13.5430    6.9740  -56.0520 C.2    69  THR69       0.2618
      4  O         14.3900    6.7960  -55.1740 O.2    69  THR69      -0.2717
      5  CB        14.2750    6.7730  -58.4190 C.3    69  THR69       0.1784
      6  OG1       14.9900    5.6530  -57.8840 O.3    69  THR69      -0.2211
      7  CG2       15.1370    7.4400  -59.4470 C.3    69  THR69       0.0376
      8  N         12.3150    6.4770  -55.9670 N.am   70  PHE70      -0.1961
      9  CA        11.9310    5.6900  -54.8330 C.3    70  PHE70       0.1771
     10  C         10.8180    4.7230  -55.1910 C.2    70  PHE70       0.2619
     11  O          9.9630    5.0080  -56.0000 O.2    70  PHE70      -0.2715
     12  CB        11.5330    6.5690  -53.6420 C.3    70  PHE70       0.0574
     13  CG        10.3230    7.4540  -53.8880 C.ar   70  PHE70      -0.0200
     14  CD1       10.4440    8.6550  -54.5800 C.ar   70  PHE70      -0.0042
     15  CD2        9.0900    7.1100  -53.4100 C.ar   70  PHE70      -0.0042
     16  CE1        9.3400    9.4530  -54.8210 C.ar   70  PHE70      -0.0003
     17  CE2        7.9890    7.9020  -53.6420 C.ar   70  PHE70      -0.0003
     18  CZ         8.1030    9.0720  -54.3650 C.ar   70  PHE70      -0.0000
     19  N         10.8240    3.5980  -54.5060 N.am   71  HIS71      -0.1973
     20  CA         9.7170    2.6640  -54.5530 C.3    71  HIS71       0.1656
     21  C          9.3390    2.1940  -53.1660 C.2    71  HIS71       0.2291
     22  O         10.1140    1.4890  -52.5300 O.2    71  HIS71      -0.2864
     23  CB        10.1070    1.4630  -55.3830 C.3    71  HIS71       0.0771
     24  CG         9.0620    0.4120  -55.3970 C.ar   71  HIS71       0.0820
     25  ND1        7.9290    0.5040  -56.1810 N.ar   71  HIS71      -0.2267
     26  CD2        8.9720   -0.7670  -54.7320 C.ar   71  HIS71       0.1154
     27  CE1        7.1920   -0.5820  -56.0060 C.ar   71  HIS71       0.1986
     28  NE2        7.8050   -1.3640  -55.1300 N.ar   71  HIS71      -0.2212
     29  N          9.1610    3.9340  -50.2230 N.3    73  GLU73      -0.1245
     30  CA        10.1240    4.3690  -49.2330 C.3    73  GLU73       0.1567
     31  C          9.3480    4.7770  -48.0160 C.2    73  GLU73       0.2260
     32  O          8.1690    5.1700  -48.1140 O.2    73  GLU73      -0.2867
     33  CB        10.9210    5.5620  -49.8060 C.3    73  GLU73       0.0388
     34  CG        12.0150    6.1030  -48.9350 C.3    73  GLU73       0.1160
     35  CD        13.0100    5.0660  -48.5760 C.2    73  GLU73       0.3649
     36  OE1       13.9380    4.8170  -49.3780 O.co2  73  GLU73      -0.2457
     37  OE2       12.8880    4.5300  -47.4330 O.co2  73  GLU73      -0.2457
     38  N          8.5770    5.4490  -58.3740 N.3   102  ASP102     -0.1239
     39  CA         8.6260    4.2520  -59.2220 C.3   102  ASP102      0.1674
     40  C          7.5380    3.2900  -58.8140 C.2   102  ASP102      0.2266
     41  O          7.7990    2.2280  -58.2600 O.2   102  ASP102     -0.2867
     42  CB         9.9810    3.5690  -59.1270 C.3   102  ASP102      0.1410
     43  CG        10.1150    2.4250  -60.0880 C.2   102  ASP102      0.3668
     44  OD1        9.3430    2.3950  -61.0700 O.co2 102  ASP102     -0.2456
     45  OD2       11.0100    1.5900  -59.9130 O.co2 102  ASP102     -0.2456
     46  N          5.9330   -0.2810  -62.6850 N.3   127  ARG127     -0.1245
     47  CA         7.2360   -0.4550  -62.0890 C.3   127  ARG127      0.1563
     48  C          8.2910   -0.4520  -63.1760 C.2   127  ARG127      0.2260
     49  O          8.2250   -1.2590  -64.0890 O.2   127  ARG127     -0.2867
     50  CB         7.2840   -1.7880  -61.3240 C.3   127  ARG127      0.0307
     51  CG         8.5780   -2.1010  -60.5790 C.3   127  ARG127      0.0489
     52  CD         8.6600   -1.3700  -59.2430 C.3   127  ARG127      0.2205
     53  NE         9.8380   -1.7670  -58.4810 N.pl3 127  ARG127     -0.0865
     54  CZ         9.9610   -2.8810  -57.7620 C.cat 127  ARG127      0.5346
     55  NH1        8.9910   -3.7580  -57.6640 N.pl3 127  ARG127      0.1354
     56  NH2       11.1030   -3.1480  -57.1750 N.pl3 127  ARG127      0.1354
     57  N         11.9530    0.2520  -62.2290 N.3   129  GLY129     -0.1210
     58  CA        13.2690    0.0240  -61.6960 C.3   129  GLY129      0.1956
     59  C         14.0930    1.2930  -61.6390 C.2   129  GLY129      0.2611
     60  O         13.7800    2.3100  -62.2870 O.2   129  GLY129     -0.2717
     61  N         15.1980    1.2260  -60.8930 N.am  130  LEU130     -0.1979
     62  CA        15.9580    2.4250  -60.6340 C.3   130  LEU130      0.1596
     63  C         16.6590    2.9610  -61.8700 C.2   130  LEU130      0.2287
     64  O         16.8480    4.1670  -61.9720 O.2   130  LEU130     -0.2864
     65  CB        16.9400    2.2260  -59.4620 C.3   130  LEU130      0.0297
     66  CG        18.1380    1.3040  -59.6500 C.3   130  LEU130      0.0022
     67  CD1       19.3060    1.9990  -60.3350 C.3   130  LEU130      0.0001
     68  CD2       18.6060    0.7560  -58.3130 C.3   130  LEU130      0.0001
     69  N         14.1060    4.7180  -64.0630 N.3   133  SER133     -0.1202
     70  CA        13.5510    5.8060  -63.2900 C.3   133  SER133      0.2020
     71  C         14.5740    6.9400  -63.2430 C.2   133  SER133      0.2618
     72  O         14.2090    8.1180  -63.3900 O.2   133  SER133     -0.2717
     73  CB        13.1400    5.3570  -61.8890 C.3   133  SER133      0.2103
     74  OG        12.1120    4.3840  -61.9230 O.3   133  SER133     -0.2182
     75  N         15.8420    6.6130  -63.0840 N.am  134  ARG134     -0.1979
     76  CA        16.8480    7.6910  -63.0470 C.3   134  ARG134      0.1597
     77  C         16.9400    8.4020  -64.3740 C.2   134  ARG134      0.2287
     78  O         17.1120    9.6000  -64.4330 O.2   134  ARG134     -0.2864
     79  CB        18.2090    7.1710  -62.6580 C.3   134  ARG134      0.0334
     80  CG        18.3320    6.9280  -61.1670 C.3   134  ARG134      0.0492
     81  CD        19.7370    6.5730  -60.7680 C.3   134  ARG134      0.2205
     82  NE        19.8140    5.9390  -59.4400 N.pl3 134  ARG134     -0.0865
     83  CZ        20.7940    5.1140  -59.0500 C.cat 134  ARG134      0.5346
     84  NH1       21.8160    4.8140  -59.8740 N.pl3 134  ARG134      0.1354
     85  NH2       20.7280    4.5280  -57.8460 N.pl3 134  ARG134      0.1354
     86  N         20.0100    8.2780  -53.2860 N.3   150  ASP150     -0.1225
     87  CA        18.9770    7.3100  -52.8580 C.3   150  ASP150      0.1805
     88  C         17.9940    8.0700  -51.9970 C.2   150  ASP150      0.2598
     89  O         18.3450    9.0960  -51.4060 O.2   150  ASP150     -0.2718
     90  CB        19.5830    6.1710  -52.0220 C.3   150  ASP150      0.1424
     91  CG        20.2610    5.0970  -52.8640 C.2   150  ASP150      0.3668
     92  OD1       20.4180    5.3110  -54.1050 O.co2 150  ASP150     -0.2456
     93  OD2       20.6190    4.0230  -52.2780 O.co2 150  ASP150     -0.2456
     94  N         16.8160    7.4900  -51.8240 N.am  151  SER151     -0.1938
     95  CA        15.7350    8.0740  -51.0710 C.3   151  SER151      0.2055
     96  C         15.8040    7.9100  -49.5630 C.2   151  SER151      0.2643
     97  O         14.8100    8.1530  -48.8670 O.2   151  SER151     -0.2714
     98  CB        14.4150    7.5030  -51.5760 C.3   151  SER151      0.2130
     99  OG        14.3860    6.0870  -51.5200 O.3   151  SER151     -0.2179
    100  N         16.9650    7.5540  -49.0330 N.am  152  HIS152     -0.1973
    101  CA        17.1760    7.4830  -47.5720 C.3   152  HIS152      0.1656
    102  C         18.5970    7.9750  -47.2460 C.2   152  HIS152      0.2291
    103  O         19.4140    7.2470  -46.7040 O.2   152  HIS152     -0.2864
    104  CB        16.9560    6.0470  -47.1000 C.3   152  HIS152      0.0771
    105  CG        17.4120    5.0360  -48.0810 C.ar  152  HIS152      0.0820
    106  ND1       16.5440    4.3840  -48.9260 N.ar  152  HIS152     -0.2267
    107  CD2       18.6580    4.6280  -48.4250 C.ar  152  HIS152      0.1154
    108  CE1       17.2310    3.5670  -49.6990 C.ar  152  HIS152      0.1986
    109  NE2       18.5150    3.7090  -49.4300 N.ar  152  HIS152     -0.2212
    110  N         30.4800    8.3680  -48.3980 N.3   179  ILE179     -0.1245
    111  CA        29.1550    7.9720  -47.9550 C.3   179  ILE179      0.1561
    112  C         29.1960    7.5420  -46.4700 C.2   179  ILE179      0.2260
    113  O         29.6670    6.4600  -46.1570 O.2   179  ILE179     -0.2867
    114  CB        28.6300    6.8260  -48.8360 C.3   179  ILE179      0.0252
    115  CG1       28.6470    7.2890  -50.2710 C.3   179  ILE179      0.0019
    116  CG2       27.2310    6.4570  -48.4170 C.3   179  ILE179      0.0019
    117  CD1       28.3630    6.2030  -51.2990 C.3   179  ILE179      0.0001
    118  N         30.1400    3.4220  -55.8660 N.3   233  ALA233     -0.1231
    119  CA        29.1320    2.6100  -55.1630 C.3   233  ALA233      0.1694
    120  C         27.8380    2.5970  -55.9680 C.2   233  ALA233      0.2593
    121  O         27.2170    1.5530  -56.1150 O.2   233  ALA233     -0.2718
    122  CB        28.8920    3.1410  -53.7680 C.3   233  ALA233      0.0304
    123  N         27.4790    3.7680  -56.5120 N.am  234  GLY234     -0.1942
    124  CA        26.5190    3.8680  -57.5930 C.3   234  GLY234      0.2014
    125  C         25.3190    4.7600  -57.3500 C.2   234  GLY234      0.2639
    126  O         24.6970    5.2560  -58.2880 O.2   234  GLY234     -0.2714
    127  N         24.9570    4.9520  -56.1040 N.am  235  GLY235     -0.1939
    128  CA        23.7200    5.6760  -55.8130 C.3   235  GLY235      0.2014
    129  C         23.8520    7.1680  -55.5440 C.2   235  GLY235      0.2638
    130  O         22.8410    7.8690  -55.4870 O.2   235  GLY235     -0.2714
    131  N         25.0660    7.6240  -55.2850 N.am  236  LEU236     -0.1977
    132  CA        25.2710    8.9780  -54.9500 C.3   236  LEU236      0.1596
    133  C         26.3830    9.4710  -55.8350 C.2   236  LEU236      0.2287
    134  O         27.5440    9.1340  -55.6290 O.2   236  LEU236     -0.2864
    135  CB        25.6300    9.1930  -53.4780 C.3   236  LEU236      0.0297
    136  CG        25.0670    8.4500  -52.2590 C.3   236  LEU236      0.0022
    137  CD1       24.6750    9.4730  -51.2150 C.3   236  LEU236      0.0001
    138  CD2       23.9050    7.5240  -52.4580 C.3   236  LEU236      0.0001
    139  N         15.0600   -3.2330  -62.2820 N.3   256  VAL256     -0.1231
    140  CA        14.9860   -3.1460  -60.8200 C.3   256  VAL256      0.1692
    141  C         16.1890   -2.5690  -60.0580 C.2   256  VAL256      0.2592
    142  O         16.1410   -1.4340  -59.5700 O.2   256  VAL256     -0.2718
    143  CB        14.6250   -4.4940  -60.2210 C.3   256  VAL256      0.0266
    144  CG1       14.3640   -4.3370  -58.7300 C.3   256  VAL256      0.0020
    145  CG2       13.3780   -5.0600  -60.8690 C.3   256  VAL256      0.0020
    146  N         17.2660   -3.3400  -59.9630 N.am  257  TRP257     -0.1962
    147  CA        18.3950   -3.0250  -59.0910 C.3   257  TRP257      0.1771
    148  C         19.6050   -3.8960  -59.4930 C.2   257  TRP257      0.2620
    149  O         19.4530   -4.9720  -60.0130 O.2   257  TRP257     -0.2715
    150  CB        17.9990   -3.3410  -57.6380 C.3   257  TRP257      0.0590
    151  CG        19.1000   -3.2220  -56.5970 C.ar  257  TRP257      0.0006
    152  CD1       19.3420   -2.1560  -55.8010 C.ar  257  TRP257      0.0946
    153  CD2       20.0930   -4.2010  -56.2710 C.ar  257  TRP257      0.0152
    154  NE1       20.4390   -2.3930  -55.0080 N.ar  257  TRP257     -0.2442
    155  CE2       20.9310   -3.6350  -55.2940 C.ar  257  TRP257      0.0810
    156  CE3       20.3780   -5.4890  -56.7320 C.ar  257  TRP257      0.0012
    157  CZ2       22.0150   -4.3350  -54.7380 C.ar  257  TRP257      0.0191
    158  CZ3       21.4700   -6.1960  -56.1760 C.ar  257  TRP257      0.0001
    159  CH2       22.2530   -5.6210  -55.1890 C.ar  257  TRP257      0.0015
    160  N         20.8020   -3.3690  -59.2850 N.am  258  GLY258     -0.1954
    161  CA        22.0440   -4.0700  -59.4680 C.3   258  GLY258      0.1869
    162  C         22.5570   -3.9290  -60.8660 C.2   258  GLY258      0.2309
    163  O         21.7790   -3.9000  -61.8560 O.2   258  GLY258     -0.2863
    164  N         24.1760   -1.5000  -62.6240 N.3   260  GLU260     -0.1231
    165  CA        24.3160   -0.2870  -63.4100 C.3   260  GLU260      0.1699
    166  C         25.5160    0.5390  -62.9440 C.2   260  GLU260      0.2592
    167  O         26.1090    1.2670  -63.7360 O.2   260  GLU260     -0.2718
    168  CB        23.0180    0.5400  -63.3450 C.3   260  GLU260      0.0402
    169  CG        22.9820    1.6210  -62.2750 C.3   260  GLU260      0.1161
    170  CD        22.9940    1.0910  -60.8440 C.2   260  GLU260      0.3649
    171  OE1       22.6980   -0.1070  -60.6580 O.co2 260  GLU260     -0.2457
    172  OE2       23.3260    1.8720  -59.9340 O.co2 260  GLU260     -0.2457
    173  N         25.8400    0.4600  -61.6660 N.am  261  ASN261     -0.1974
    174  CA        27.0720    1.0500  -61.1700 C.3   261  ASN261      0.1688
    175  C         28.3330    0.4770  -61.8320 C.2   261  ASN261      0.2292
    176  O         29.2950    1.1810  -62.1010 O.2   261  ASN261     -0.2864
    177  CB        27.1490    0.9710  -59.6370 C.3   261  ASN261      0.1181
    178  CG        27.1700   -0.4780  -59.0810 C.2   261  ASN261      0.2629
    179  OD1       27.6090   -0.6870  -57.9580 O.2   261  ASN261     -0.2716
    180  ND2       26.6610   -1.4490  -59.8260 N.am  261  ASN261     -0.0877
    181  N         23.8740    7.5210  -45.5970 N.3   285  HIS285     -0.1226
    182  CA        23.0060    6.5880  -46.3190 C.3   285  HIS285      0.1752
    183  C         22.5970    5.4400  -45.4020 C.2   285  HIS285      0.2596
    184  O         23.4140    4.9230  -44.6400 O.2   285  HIS285     -0.2718
    185  CB        23.7590    6.0140  -47.5180 C.3   285  HIS285      0.0759
    186  CG        23.0360    4.8990  -48.2270 C.ar  285  HIS285      0.0818
    187  ND1       23.4430    3.5800  -48.1710 N.ar  285  HIS285     -0.2268
    188  CD2       21.9690    4.9200  -49.0650 C.ar  285  HIS285      0.1154
    189  CE1       22.6370    2.8310  -48.9080 C.ar  285  HIS285      0.1986
    190  NE2       21.7340    3.6190  -49.4560 N.ar  285  HIS285     -0.2212
    191  N         21.3390    5.0230  -45.4860 N.am  286  VAL286     -0.1966
    192  CA        20.8790    3.9040  -44.7010 C.3   286  VAL286      0.1727
    193  C         21.2770    2.6200  -45.4010 C.2   286  VAL286      0.2616
    194  O         20.6190    2.1730  -46.3250 O.2   286  VAL286     -0.2715
    195  CB        19.3570    3.9740  -44.4590 C.3   286  VAL286      0.0290
    196  CG1       18.9270    2.8210  -43.5650 C.3   286  VAL286      0.0023
    197  CG2       18.9590    5.2970  -43.8070 C.3   286  VAL286      0.0023
    198  N         22.4010    2.0470  -45.0130 N.am  287  PHE287     -0.1960
    199  CA        22.8190    0.7500  -45.5680 C.3   287  PHE287      0.1771
    200  C         21.9440   -0.3460  -44.9320 C.2   287  PHE287      0.2619
    201  O         21.6980   -0.3190  -43.7220 O.2   287  PHE287     -0.2715
    202  CB        24.2930    0.4640  -45.2880 C.3   287  PHE287      0.0574
    203  CG        25.2430    1.3460  -46.0680 C.ar  287  PHE287     -0.0200
    204  CD1       25.6690    0.9680  -47.3460 C.ar  287  PHE287     -0.0042
    205  CD2       25.6800    2.5590  -45.5390 C.ar  287  PHE287     -0.0042
    206  CE1       26.5210    1.7800  -48.0730 C.ar  287  PHE287     -0.0003
    207  CE2       26.5350    3.3630  -46.2590 C.ar  287  PHE287     -0.0003
    208  CZ        26.9610    2.9780  -47.5260 C.ar  287  PHE287     -0.0000
    209  N         21.4120   -1.2410  -45.7520 N.am  288  ARG288     -0.1977
    210  CA        20.6340   -2.3500  -45.2330 C.3   288  ARG288      0.1597
    211  C         21.1230   -3.7030  -45.7590 C.2   288  ARG288      0.2287
    212  O         21.9570   -3.7500  -46.6350 O.2   288  ARG288     -0.2864
    213  CB        19.1200   -2.1290  -45.4290 C.3   288  ARG288      0.0334
    214  CG        18.6740   -1.8690  -46.8390 C.3   288  ARG288      0.0492
    215  CD        17.2360   -1.3960  -46.8620 C.3   288  ARG288      0.2205
    216  NE        16.9450   -0.8420  -48.1670 N.pl3 288  ARG288     -0.0865
    217  CZ        15.8950   -0.1040  -48.4820 C.cat 288  ARG288      0.5346
    218  NH1       14.9830    0.2300  -47.5780 N.pl3 288  ARG288      0.1354
    219  NH2       15.7780    0.3290  -49.7380 N.pl3 288  ARG288      0.1354
    220  N         16.6660   -6.3810  -49.3770 N.3   291  HIS291     -0.1241
    221  CA        15.7860   -5.5400  -50.1470 C.3   291  HIS291      0.1621
    222  C         14.4030   -5.6920  -49.5580 C.2   291  HIS291      0.2264
    223  O         13.9740   -6.7910  -49.2910 O.2   291  HIS291     -0.2867
    224  CB        15.7640   -5.9600  -51.6050 C.3   291  HIS291      0.0745
    225  CG        17.1170   -6.0200  -52.2350 C.ar  291  HIS291      0.0817
    226  ND1       17.7870   -4.8970  -52.6670 N.ar  291  HIS291     -0.2268
    227  CD2       17.9160   -7.0780  -52.5370 C.ar  291  HIS291      0.1154
    228  CE1       18.9510   -5.2570  -53.1850 C.ar  291  HIS291      0.1986
    229  NE2       19.0520   -6.5740  -53.1180 N.ar  291  HIS291     -0.2212
    230  N         11.6540   -4.8030  -51.3030 N.3   293  TYR293     -0.1241
    231  CA        10.7220   -4.7900  -52.4340 C.3   293  TYR293      0.1605
    232  C         10.9050   -6.0360  -53.3100 C.2   293  TYR293      0.2264
    233  O         11.8830   -6.7760  -53.2090 O.2   293  TYR293     -0.2867
    234  CB        10.8850   -3.4800  -53.2550 C.3   293  TYR293      0.0534
    235  CG        12.3340   -3.0710  -53.5180 C.ar  293  TYR293     -0.0201
    236  CD1       13.0990   -3.7200  -54.4590 C.ar  293  TYR293     -0.0009
    237  CD2       12.9330   -2.0420  -52.7960 C.ar  293  TYR293     -0.0009
    238  CE1       14.4050   -3.3650  -54.6860 C.ar  293  TYR293      0.0417
    239  CE2       14.2670   -1.6730  -53.0320 C.ar  293  TYR293      0.0417
    240  CZ        14.9880   -2.3500  -53.9610 C.ar  293  TYR293      0.1957
    241  OH        16.2760   -2.0230  -54.2220 O.3   293  TYR293     -0.2866
@<TRIPOS>BOND
     1    78    77    2
     2    77    76    1
     3    49    48    2
     4    69    70    1
     5   167   166    2
     6   165   168    1
     7   165   166    1
     8   165   164    1
     9    72    71    2
    10   168   169    1
    11    70    71    1
    12    70    73    1
    13    71    75   am
    14    48    47    1
    15    75    76    1
    16    76    79    1
    17   166   173   am
    18    46    47    1
    19    79    80    1
    20    60    59    2
    21   139   140    1
    22   169   170    1
    23    57    58    1
    24   176   175    2
    25    47    50    1
    26    64    63    2
    27    74    73    1
    28    63    62    1
    29   163   162    2
    30   175   174    1
    31    58    59    1
    32   173   174    1
    33    59    61   am
    34    50    51    1
    35   174   177    1
    36    80    81    1
    37    44    43   ar
    38    61    62    1
    39   145   143    1
    40   162   161    1
    41   170   171   ar
    42   170   172   ar
    43   140   143    1
    44   140   141    1
    45    81    82    1
    46    62    65    1
    47    51    52    1
    48    67    66    1
    49   143   144    1
    50    43    45   ar
    51    43    42    1
    52   141   146   am
    53   141   142    2
    54   149   148    2
    55   146   147    1
    56    84    83    1
    57   180   178   am
    58    66    65    1
    59    66    68    1
    60   177   178    1
    61   148   160   am
    62   148   147    1
    63   161   160    1
    64     7     5    1
    65    82    83    2
    66    52    53    1
    67    39    42    1
    68    39    40    1
    69    39    38    1
    70   147   150    1
    71   178   179    2
    72    83    85    1
    73    40    41    2
    74    53    54    2
    75     5     6    1
    76     5     2    1
    77   126   125    2
    78    54    55    1
    79    54    56    1
    80   150   151    1
    81   124   125    1
    82   124   123    1
    83   125   127   am
    84     2     1    1
    85     2     3    1
    86   156   153   ar
    87   156   158   ar
    88   151   153   ar
    89   151   152   ar
    90   123   120   am
    91   153   155   ar
    92    25    27   ar
    93    25    24   ar
    94   158   159   ar
    95   121   120    2
    96   127   128    1
    97     3     8   am
    98     3     4    2
    99    27    28   ar
   100    11    10    2
   101   120   119    1
   102     8     9    1
   103   118   119    1
   104   133   134    2
   105   133   132    1
   106   128   129    1
   107   152   154   ar
   108   129   130    2
   109   129   131   am
   110    24    23    1
   111    24    26   ar
   112    23    20    1
   113   155   154   ar
   114   155   157   ar
   115   131   132    1
   116    10     9    1
   117    10    19   am
   118   159   157   ar
   119   119   122    1
   120    28    26   ar
   121   132   135    1
   122     9    12    1
   123    16    14   ar
   124    16    18   ar
   125   238   236   ar
   126   238   240   ar
   127    14    13   ar
   128    20    19    1
   129    20    21    1
   130   236   235   ar
   131    18    17   ar
   132   241   240    1
   133    92    91   ar
   134   240   239   ar
   135    13    12    1
   136    13    15   ar
   137    17    15   ar
   138   235   234    1
   139   235   237   ar
   140   135   136    1
   141   232   233    2
   142   232   231    1
   143    86    87    1
   144   234   231    1
   145   228   229   ar
   146   228   226   ar
   147    21    22    2
   148   229   227   ar
   149   239   237   ar
   150    91    93   ar
   151    91    90    1
   152    87    90    1
   153    87    88    1
   154   226   225   ar
   155   227   225   ar
   156   138   136    1
   157   231   230    1
   158   136   137    1
   159   225   224    1
   160    88    94   am
   161    88    89    2
   162    94    95    1
   163   224   221    1
   164    98    99    1
   165    98    95    1
   166   117   115    1
   167    95    96    1
   168   115   114    1
   169    29    30    1
   170   221   222    1
   171   221   220    1
   172    33    30    1
   173    33    34    1
   174   219   217    1
   175   108   109   ar
   176   108   106   ar
   177    96   100   am
   178    96    97    2
   179   222   223    2
   180   190   188   ar
   181   190   189   ar
   182   109   107   ar
   183    36    35   ar
   184    30    31    1
   185   188   186   ar
   186   100   101    1
   187    34    35    1
   188   106   105   ar
   189   189   187   ar
   190   114   116    1
   191   114   111    1
   192    35    37   ar
   193   217   216    2
   194   217   218    1
   195   107   105   ar
   196   110   111    1
   197   186   187   ar
   198   186   185    1
   199   216   215    1
   200    32    31    2
   201   105   104    1
   202   206   208   ar
   203   206   204   ar
   204   111   112    1
   205   101   102    1
   206   101   104    1
   207   208   207   ar
   208   185   182    1
   209   204   203   ar
   210   102   103    2
   211   215   214    1
   212   214   213    1
   213   212   211    2
   214   112   113    2
   215   194   193    2
   216   182   181    1
   217   182   183    1
   218   207   205   ar
   219   203   205   ar
   220   203   202    1
   221   211   210    1
   222   209   210    1
   223   209   200   am
   224   199   202    1
   225   199   198    1
   226   199   200    1
   227   191   183   am
   228   191   192    1
   229   213   210    1
   230   183   184    2
   231   193   198   am
   232   193   192    1
   233   200   201    2
   234   192   195    1
   235   195   197    1
   236   195   196    1
