@<TRIPOS>MOLECULE
tmp/4d0tB00.pdb
 189 189 0 0 0
SMALL
GASTEIGER

@<TRIPOS>ATOM
      1  N          9.6710  -29.2250    5.9100 N.3   177  PRO177     -0.2102
      2  CA         9.0290  -28.2400    5.1270 C.3   177  PRO177      0.1504
      3  C          9.7900  -28.0810    3.8350 C.2   177  PRO177      0.2576
      4  O         10.9490  -28.5090    3.7230 O.2   177  PRO177     -0.2718
      5  CB         9.2390  -26.9810    5.9430 C.3   177  PRO177      0.0282
      6  CG        10.5340  -27.2010    6.6770 C.3   177  PRO177      0.0208
      7  CD        10.5530  -28.6520    6.9570 C.3   177  PRO177      0.0893
      8  N          9.1420  -27.4040    2.8860 N.am  178  ILE178     -0.1966
      9  CA         9.8360  -26.7670    1.7710 C.3   178  ILE178      0.1727
     10  C         10.5900  -25.6100    2.3770 C.2   178  ILE178      0.2616
     11  O         10.0470  -24.8170    3.1480 O.2   178  ILE178     -0.2715
     12  CB         8.8620  -26.2630    0.6900 C.3   178  ILE178      0.0290
     13  CG1        8.3880  -27.4420   -0.1430 C.3   178  ILE178      0.0022
     14  CG2        9.5480  -25.2570   -0.2040 C.3   178  ILE178      0.0023
     15  CD1        7.2670  -27.1050   -1.0980 C.3   178  ILE178      0.0001
     16  N         11.8650  -25.5540    2.0530 N.am  179  ILE179     -0.1977
     17  CA        12.7850  -24.5980    2.6420 C.3   179  ILE179      0.1596
     18  C         12.9640  -23.3910    1.7090 C.2   179  ILE179      0.2287
     19  O         13.5850  -23.5000    0.6720 O.2   179  ILE179     -0.2864
     20  CB        14.1240  -25.2620    2.9050 C.3   179  ILE179      0.0276
     21  CG1       13.9220  -26.4600    3.8160 C.3   179  ILE179      0.0022
     22  CG2       15.0600  -24.2690    3.5620 C.3   179  ILE179      0.0022
     23  CD1       15.1550  -27.3440    3.9880 C.3   179  ILE179      0.0001
     24  N         14.1910  -19.5420    0.6100 N.3   181  VAL181     -0.1245
     25  CA        15.5020  -18.9380    0.5930 C.3   181  VAL181      0.1561
     26  C         15.4700  -17.5510    1.1670 C.2   181  VAL181      0.2260
     27  O         14.6910  -16.6950    0.7250 O.2   181  VAL181     -0.2867
     28  CB        16.0270  -18.8150   -0.8360 C.3   181  VAL181      0.0252
     29  CG1       17.4210  -18.2070   -0.8530 C.3   181  VAL181      0.0019
     30  CG2       16.0620  -20.1800   -1.4610 C.3   181  VAL181      0.0019
     31  N         10.6480  -20.8950   -2.5920 N.3   192  ALA192     -0.1231
     32  CA        11.3220  -21.9610   -3.2930 C.3   192  ALA192      0.1694
     33  C         10.3630  -22.7520   -4.1590 C.2   192  ALA192      0.2593
     34  O          9.1310  -22.6430   -4.0160 O.2   192  ALA192     -0.2718
     35  CB        12.0140  -22.8840   -2.3120 C.3   192  ALA192      0.0304
     36  N         10.9490  -23.5270   -5.0710 N.am  193  SER193     -0.1938
     37  CA        10.1900  -24.4370   -5.8830 C.3   193  SER193      0.2055
     38  C          9.6460  -25.5900   -5.0200 C.2   193  SER193      0.2642
     39  O         10.2700  -26.0210   -4.0650 O.2   193  SER193     -0.2714
     40  CB        11.0810  -25.0140   -6.9980 C.3   193  SER193      0.2130
     41  OG        10.4180  -26.0910   -7.6780 O.3   193  SER193     -0.2179
     42  N          8.4900  -26.0980   -5.3910 N.am  194  ALA194     -0.1977
     43  CA         7.8520  -27.2070   -4.6940 C.3   194  ALA194      0.1597
     44  C          8.0400  -28.4760   -5.4630 C.2   194  ALA194      0.2287
     45  O          7.5680  -29.5120   -5.0270 O.2   194  ALA194     -0.2864
     46  CB         6.3590  -26.9360   -4.5130 C.3   194  ALA194      0.0319
     47  N         10.9030  -30.1240   -6.0400 N.3   196  LEU196     -0.1245
     48  CA        12.1860  -30.7330   -5.7520 C.3   196  LEU196      0.1561
     49  C         12.0770  -31.9320   -4.8170 C.2   196  LEU196      0.2260
     50  O         11.1460  -32.0090   -4.0300 O.2   196  LEU196     -0.2867
     51  CB        13.1130  -29.7150   -5.1040 C.3   196  LEU196      0.0270
     52  CG        13.3210  -28.4350   -5.9090 C.3   196  LEU196      0.0019
     53  CD1       14.1810  -27.4450   -5.1450 C.3   196  LEU196      0.0001
     54  CD2       13.9540  -28.7500   -7.2750 C.3   196  LEU196      0.0001
     55  N         27.6310  -35.6900   -1.3810 N.3   205  VAL205     -0.1231
     56  CA        27.1900  -34.3380   -1.0450 C.3   205  VAL205      0.1692
     57  C         25.7280  -34.1480   -1.4390 C.2   205  VAL205      0.2592
     58  O         25.3110  -34.4810   -2.5560 O.2   205  VAL205     -0.2718
     59  CB        28.0860  -33.2370   -1.6850 C.3   205  VAL205      0.0266
     60  CG1       28.0660  -33.2990   -3.2010 C.3   205  VAL205      0.0020
     61  CG2       27.6790  -31.8360   -1.2670 C.3   205  VAL205      0.0020
     62  N         24.9620  -33.6030   -0.5080 N.am  206  PHE206     -0.1962
     63  CA        23.5680  -33.3070   -0.7250 C.3   206  PHE206      0.1771
     64  C         23.3170  -32.3820   -1.9160 C.2   206  PHE206      0.2619
     65  O         24.0050  -31.3900   -2.0980 O.2   206  PHE206     -0.2715
     66  CB        22.9620  -32.6560    0.5390 C.3   206  PHE206      0.0574
     67  CG        21.4970  -32.3450    0.4110 C.ar  206  PHE206     -0.0200
     68  CD1       20.5440  -33.3610    0.4950 C.ar  206  PHE206     -0.0042
     69  CD2       21.0720  -31.0620    0.1200 C.ar  206  PHE206     -0.0042
     70  CE1       19.1940  -33.0920    0.3310 C.ar  206  PHE206     -0.0003
     71  CE2       19.7210  -30.7920   -0.0570 C.ar  206  PHE206     -0.0003
     72  CZ        18.7860  -31.8070    0.0370 C.ar  206  PHE206     -0.0000
     73  N         22.2930  -32.7030   -2.6980 N.am  207  LYS207     -0.1963
     74  CA        21.8400  -31.8390   -3.7830 C.3   207  LYS207      0.1728
     75  C         20.3470  -31.9540   -3.9890 C.2   207  LYS207      0.2616
     76  O         19.7330  -32.9140   -3.5330 O.2   207  LYS207     -0.2715
     77  CB        22.5810  -32.2110   -5.0570 C.3   207  LYS207      0.0311
     78  CG        22.2540  -33.6060   -5.5890 C.3   207  LYS207      0.0038
     79  CD        22.0510  -33.4860   -7.1020 C.3   207  LYS207      0.0206
     80  CE        23.0640  -33.9980   -8.0610 C.3   207  LYS207      0.1093
     81  NZ        22.4950  -35.1410   -8.8030 N.3   207  LYS207     -0.1314
     82  N         19.7690  -30.9840   -4.6920 N.am  208  TRP208     -0.1974
     83  CA        18.3390  -30.9780   -5.0400 C.3   208  TRP208      0.1640
     84  C         18.1310  -31.4830   -6.4510 C.2   208  TRP208      0.2290
     85  O         18.7810  -31.0360   -7.3540 O.2   208  TRP208     -0.2864
     86  CB        17.7730  -29.5680   -4.9510 C.3   208  TRP208      0.0576
     87  CG        17.8370  -29.0030   -3.5680 C.ar  208  TRP208      0.0006
     88  CD1       18.7470  -28.0950   -3.0940 C.ar  208  TRP208      0.0946
     89  CD2       16.9590  -29.3160   -2.4640 C.ar  208  TRP208      0.0152
     90  NE1       18.4650  -27.8100   -1.7680 N.ar  208  TRP208     -0.2442
     91  CE2       17.3930  -28.5610   -1.3600 C.ar  208  TRP208      0.0810
     92  CE3       15.8740  -30.1800   -2.3070 C.ar  208  TRP208      0.0012
     93  CZ2       16.7810  -28.6300   -0.1470 C.ar  208  TRP208      0.0191
     94  CZ3       15.2560  -30.2530   -1.0880 C.ar  208  TRP208      0.0001
     95  CH2       15.7210  -29.4930   -0.0170 C.ar  208  TRP208      0.0015
     96  N         17.4450  -32.4800    3.6250 N.3   233  ALA233     -0.1245
     97  CA        18.5160  -31.5070    3.6080 C.3   233  ALA233      0.1562
     98  C         19.2490  -31.6030    4.9240 C.2   233  ALA233      0.2260
     99  O         20.4820  -31.5050    4.9700 O.2   233  ALA233     -0.2867
    100  CB        17.9570  -30.1090    3.3780 C.3   233  ALA233      0.0290
    101  N         30.0370  -30.7010   11.6580 N.3   257  TRP257     -0.1241
    102  CA        29.0940  -30.4680   10.5550 C.3   257  TRP257      0.1605
    103  C         29.3210  -31.5380    9.4750 C.2   257  TRP257      0.2264
    104  O         30.4380  -31.9750    9.2870 O.2   257  TRP257     -0.2867
    105  CB        29.3290  -29.0460    9.9820 C.3   257  TRP257      0.0550
    106  CG        28.5330  -28.6940    8.7540 C.ar  257  TRP257      0.0003
    107  CD1       27.3750  -27.9760    8.7050 C.ar  257  TRP257      0.0946
    108  CD2       28.8600  -29.0170    7.3940 C.ar  257  TRP257      0.0152
    109  NE1       26.9460  -27.8390    7.3980 N.ar  257  TRP257     -0.2442
    110  CE2       27.8290  -28.4870    6.5740 C.ar  257  TRP257      0.0810
    111  CE3       29.9060  -29.7110    6.7920 C.ar  257  TRP257      0.0012
    112  CZ2       27.8300  -28.6250    5.1730 C.ar  257  TRP257      0.0191
    113  CZ3       29.9020  -29.8550    5.3970 C.ar  257  TRP257      0.0001
    114  CH2       28.8700  -29.3120    4.6030 C.ar  257  TRP257      0.0015
    115  N          8.7470  -34.4700    2.3780 N.3   277  ILE277     -0.1245
    116  CA         8.7500  -33.0120    2.2670 C.3   277  ILE277      0.1561
    117  C          7.3020  -32.6180    2.1440 C.2   277  ILE277      0.2260
    118  O          6.5560  -33.2130    1.3430 O.2   277  ILE277     -0.2867
    119  CB         9.5030  -32.5460    1.0080 C.3   277  ILE277      0.0252
    120  CG1       10.9790  -32.9230    1.1030 C.3   277  ILE277      0.0019
    121  CG2        9.4030  -31.0490    0.8400 C.3   277  ILE277      0.0019
    122  CD1       11.7570  -32.7080   -0.1720 C.3   277  ILE277      0.0001
    123  N         15.3530  -20.0340    5.1730 N.3   285  HIS285     -0.1226
    124  CA        16.6550  -20.3920    5.7050 C.3   285  HIS285      0.1752
    125  C         17.6920  -19.5300    5.0010 C.2   285  HIS285      0.2596
    126  O         17.6390  -19.3400    3.7770 O.2   285  HIS285     -0.2718
    127  CB        16.9470  -21.8670    5.4470 C.3   285  HIS285      0.0759
    128  CG        18.3510  -22.2770    5.7760 C.ar  285  HIS285      0.0818
    129  ND1       19.2860  -22.5830    4.8160 N.ar  285  HIS285     -0.2268
    130  CD2       18.9710  -22.4700    6.9600 C.ar  285  HIS285      0.1154
    131  CE1       20.4170  -22.9530    5.3930 C.ar  285  HIS285      0.1986
    132  NE2       20.2550  -22.8860    6.6930 N.ar  285  HIS285     -0.2212
    133  N         18.6530  -19.0290    5.7630 N.am  286  VAL286     -0.1966
    134  CA        19.7320  -18.2860    5.1750 C.3   286  VAL286      0.1727
    135  C         20.7600  -19.2630    4.5830 C.2   286  VAL286      0.2616
    136  O         21.6100  -19.7920    5.2900 O.2   286  VAL286     -0.2715
    137  CB        20.3760  -17.3360    6.2030 C.3   286  VAL286      0.0290
    138  CG1       21.4640  -16.5160    5.5260 C.3   286  VAL286      0.0023
    139  CG2       19.3410  -16.4090    6.8220 C.3   286  VAL286      0.0023
    140  N         20.6620  -19.5320    3.2810 N.am  287  PHE287     -0.1960
    141  CA        21.6670  -20.3650    2.6140 C.3   287  PHE287      0.1771
    142  C         22.9200  -19.5380    2.4240 C.2   287  PHE287      0.2619
    143  O         22.8430  -18.3700    2.0440 O.2   287  PHE287     -0.2715
    144  CB        21.1740  -20.8830    1.2810 C.3   287  PHE287      0.0574
    145  CG        20.0830  -21.9160    1.4020 C.ar  287  PHE287     -0.0200
    146  CD1       20.3970  -23.2700    1.5100 C.ar  287  PHE287     -0.0042
    147  CD2       18.7470  -21.5260    1.4170 C.ar  287  PHE287     -0.0042
    148  CE1       19.3960  -24.2050    1.6370 C.ar  287  PHE287     -0.0003
    149  CE2       17.7440  -22.4590    1.5160 C.ar  287  PHE287     -0.0003
    150  CZ        18.0610  -23.7890    1.6300 C.ar  287  PHE287     -0.0000
    151  N         24.0660  -20.1110    2.7630 N.am  288  ARG288     -0.1963
    152  CA        25.3300  -19.4280    2.5170 C.3   288  ARG288      0.1729
    153  C         26.3200  -20.3020    1.7350 C.2   288  ARG288      0.2616
    154  O         26.1010  -21.4850    1.5600 O.2   288  ARG288     -0.2715
    155  CB        25.9070  -18.8530    3.8380 C.3   288  ARG288      0.0348
    156  CG        26.0980  -19.8380    4.9630 C.3   288  ARG288      0.0492
    157  CD        26.4040  -19.1170    6.2660 C.3   288  ARG288      0.2205
    158  NE        26.2740  -20.0550    7.3740 N.pl3 288  ARG288     -0.0865
    159  CZ        26.1330  -19.7250    8.6500 C.cat 288  ARG288      0.5346
    160  NH1       26.1330  -18.4510    9.0480 N.pl3 288  ARG288      0.1354
    161  NH2       26.0420  -20.6940    9.5580 N.pl3 288  ARG288      0.1354
    162  N         27.3840  -19.7000    1.2320 N.am  289  LYS289     -0.1963
    163  CA        28.3840  -20.4150    0.4090 C.3   289  LYS289      0.1728
    164  C         29.5730  -20.9280    1.2280 C.2   289  LYS289      0.2616
    165  O         30.2400  -21.8520    0.8140 O.2   289  LYS289     -0.2715
    166  CB        28.9270  -19.4980   -0.6790 C.3   289  LYS289      0.0311
    167  CG        27.8860  -18.7050   -1.4630 C.3   289  LYS289      0.0038
    168  CD        27.3540  -19.4570   -2.6830 C.3   289  LYS289      0.0206
    169  CE        26.8880  -18.4760   -3.7550 C.3   289  LYS289      0.1093
    170  NZ        25.7270  -17.6450   -3.3100 N.3   289  LYS289     -0.1314
    171  N         29.8550  -20.3050    2.3790 N.am  290  GLN290     -0.1963
    172  CA        30.9770  -20.7210    3.2450 C.3   290  GLN290      0.1733
    173  C         30.5980  -20.8190    4.7260 C.2   290  GLN290      0.2616
    174  O         29.7170  -20.0870    5.2120 O.2   290  GLN290     -0.2715
    175  CB        32.1250  -19.7200    3.1270 C.3   290  GLN290      0.0408
    176  CG        32.6460  -19.5370    1.7130 C.3   290  GLN290      0.0908
    177  CD        33.7270  -18.4780    1.6460 C.2   290  GLN290      0.2608
    178  OE1       34.9080  -18.7960    1.5320 O.2   290  GLN290     -0.2717
    179  NE2       33.3290  -17.2120    1.7390 N.am  290  GLN290     -0.0878
    180  N         31.3200  -21.6710    5.4500 N.am  291  HIS291     -0.1973
    181  CA        31.1540  -21.7780    6.8880 C.3   291  HIS291      0.1656
    182  C         31.8660  -20.6130    7.5460 C.2   291  HIS291      0.2291
    183  O         32.9750  -20.3060    7.1830 O.2   291  HIS291     -0.2864
    184  CB        31.7590  -23.0820    7.4160 C.3   291  HIS291      0.0771
    185  CG        31.2700  -24.3090    6.7120 C.ar  291  HIS291      0.0820
    186  ND1       30.0350  -24.8670    6.9660 N.ar  291  HIS291     -0.2267
    187  CD2       31.8490  -25.0810    5.7650 C.ar  291  HIS291      0.1154
    188  CE1       29.8740  -25.9290    6.2050 C.ar  291  HIS291      0.1986
    189  NE2       30.9560  -26.0770    5.4630 N.ar  291  HIS291     -0.2212
@<TRIPOS>BOND
     1    81    80    1
     2    80    79    1
     3    41    40    1
     4    85    84    2
     5    54    52    1
     6    79    78    1
     7    40    37    1
     8    84    83    1
     9    47    48    1
    10    52    53    1
    11    52    51    1
    12    37    36    1
    13    37    38    1
    14    48    51    1
    15    48    49    1
    16    78    77    1
    17    44    45    2
    18    44    43    1
    19    42    38   am
    20    42    43    1
    21    36    33   am
    22    77    74    1
    23    83    86    1
    24    83    82    1
    25    38    39    2
    26    86    87    1
    27    49    50    2
    28    43    46    1
    29    82    75   am
    30    33    34    2
    31    33    32    1
    32    75    74    1
    33    75    76    2
    34    74    73    1
    35   169   170    1
    36   169   168    1
    37    87    88   ar
    38    87    89   ar
    39    32    31    1
    40    32    35    1
    41    60    59    1
    42    88    90   ar
    43    73    64   am
    44   168   167    1
    45    58    57    2
    46    89    92   ar
    47    89    91   ar
    48    92    94   ar
    49    65    64    2
    50    64    63    1
    51    90    91   ar
    52    59    61    1
    53    59    56    1
    54   167   166    1
    55    30    28    1
    56    57    56    1
    57    57    62   am
    58    55    56    1
    59    91    93   ar
    60    15    13    1
    61    94    95   ar
    62    29    28    1
    63    28    25    1
    64    63    62    1
    65    63    66    1
    66   166   163    1
    67    14    12    1
    68   122   120    1
    69    93    95   ar
    70    13    12    1
    71    71    72   ar
    72    71    69   ar
    73    72    70   ar
    74    69    67   ar
    75    70    68   ar
    76   163   164    1
    77   163   162    1
    78    67    68   ar
    79    67    66    1
    80    25    24    1
    81    25    26    1
    82    19    18    2
    83    12     9    1
    84    27    26    2
    85   165   164    2
    86   121   119    1
    87   119   120    1
    88   119   116    1
    89   164   171   am
    90   162   153   am
    91   144   145    1
    92   144   141    1
    93   118   117    2
    94   145   147   ar
    95   145   146   ar
    96   147   149   ar
    97   146   148   ar
    98   149   150   ar
    99   178   177    2
   100   154   153    2
   101   150   148   ar
   102   177   176    1
   103   177   179   am
   104    18    17    1
   105   176   175    1
   106   153   152    1
   107     9    10    1
   108     9     8    1
   109   143   142    2
   110    16    10   am
   111    16    17    1
   112   117   116    1
   113   116   115    1
   114    10    11    2
   115   171   172    1
   116   142   141    1
   117   142   151   am
   118   152   151    1
   119   152   155    1
   120   141   140    1
   121    17    20    1
   122     8     3   am
   123    20    22    1
   124    20    21    1
   125   175   172    1
   126   172   173    1
   127   140   135   am
   128   100    97    1
   129    97    96    1
   130    97    98    1
   131     4     3    2
   132   126   125    2
   133    21    23    1
   134     3     2    1
   135   155   156    1
   136   135   134    1
   137   135   136    2
   138   114   112   ar
   139   114   113   ar
   140   173   174    2
   141   173   180   am
   142   129   131   ar
   143   129   128   ar
   144    98    99    2
   145   156   157    1
   146   125   124    1
   147   125   133   am
   148     2     1    1
   149     2     5    1
   150   123   124    1
   151   112   110   ar
   152   134   133    1
   153   134   137    1
   154   131   132   ar
   155   113   111   ar
   156   127   124    1
   157   127   128    1
   158   180   181    1
   159   189   187   ar
   160   189   188   ar
   161   138   137    1
   162   187   185   ar
   163   128   130   ar
   164     1     7    1
   165     5     6    1
   166   137   139    1
   167   188   186   ar
   168   157   158    1
   169   110   108   ar
   170   110   109   ar
   171     6     7    1
   172   132   130   ar
   173   185   186   ar
   174   185   184    1
   175   111   108   ar
   176   181   184    1
   177   181   182    1
   178   183   182    2
   179   158   159    2
   180   108   106   ar
   181   109   107   ar
   182   159   160    1
   183   159   161    1
   184   107   106   ar
   185   106   105    1
   186   104   103    2
   187   103   102    1
   188   105   102    1
   189   102   101    1
