@<TRIPOS>MOLECULE
tmp/4d0tC00.pdb
 191 188 0 0 0
SMALL
GASTEIGER

@<TRIPOS>ATOM
      1  N         -2.9310   34.1900  -20.8650 N.3   178  ILE178     -0.1231
      2  CA        -3.7120   34.8560  -19.8600 C.3   178  ILE178      0.1692
      3  C         -4.4790   35.9550  -20.5840 C.2   178  ILE178      0.2591
      4  O         -3.9070   36.7680  -21.3350 O.2   178  ILE178     -0.2718
      5  CB        -2.8420   35.4680  -18.7440 C.3   178  ILE178      0.0266
      6  CG1       -2.3940   34.3630  -17.8040 C.3   178  ILE178      0.0019
      7  CG2       -3.6250   36.5120  -17.9370 C.3   178  ILE178      0.0020
      8  CD1       -1.3590   34.7950  -16.7980 C.3   178  ILE178      0.0001
      9  N         -5.7690   35.9930  -20.3160 N.am  179  ILE179     -0.1980
     10  CA        -6.6520   36.9090  -20.9990 C.3   179  ILE179      0.1595
     11  C         -6.8930   38.1480  -20.1470 C.2   179  ILE179      0.2287
     12  O         -7.6170   38.1020  -19.1750 O.2   179  ILE179     -0.2864
     13  CB        -7.9830   36.2040  -21.3300 C.3   179  ILE179      0.0276
     14  CG1       -7.6930   34.9700  -22.1530 C.3   179  ILE179      0.0022
     15  CG2       -8.9040   37.1520  -22.1090 C.3   179  ILE179      0.0022
     16  CD1       -8.8890   34.0500  -22.3670 C.3   179  ILE179      0.0001
     17  N         -8.3170   42.0350  -19.3840 N.3   181  VAL181     -0.1245
     18  CA        -9.6320   42.6240  -19.5120 C.3   181  VAL181      0.1561
     19  C         -9.5720   43.9780  -20.1710 C.2   181  VAL181      0.2260
     20  O         -8.8900   44.8890  -19.6960 O.2   181  VAL181     -0.2867
     21  CB       -10.2670   42.8090  -18.1290 C.3   181  VAL181      0.0252
     22  CG1      -11.6780   43.3870  -18.2400 C.3   181  VAL181      0.0019
     23  CG2      -10.3250   41.4870  -17.4140 C.3   181  VAL181      0.0019
     24  N         -4.9780   40.9650  -15.8840 N.3   192  ALA192     -0.1231
     25  CA        -5.6780   39.9180  -15.1570 C.3   192  ALA192      0.1694
     26  C         -4.7450   39.2050  -14.1830 C.2   192  ALA192      0.2592
     27  O         -3.5210   39.3500  -14.2630 O.2   192  ALA192     -0.2718
     28  CB        -6.2850   38.9190  -16.1290 C.3   192  ALA192      0.0304
     29  N         -5.3440   38.4450  -13.2540 N.am  193  SER193     -0.1952
     30  CA        -4.5960   37.6020  -12.3480 C.3   193  SER193      0.1924
     31  C         -3.9650   36.4450  -13.1200 C.2   193  SER193      0.2314
     32  O         -4.5390   35.9260  -14.0690 O.2   193  SER193     -0.2863
     33  CB        -5.5130   37.0600  -11.2400 C.3   193  SER193      0.2116
     34  OG        -4.8560   36.0610  -10.4640 O.3   193  SER193     -0.2180
     35  N         -5.0870   31.9070  -11.8570 N.3   196  LEU196     -0.1245
     36  CA        -6.3270   31.2410  -12.1820 C.3   196  LEU196      0.1561
     37  C         -6.1330   30.0020  -13.0550 C.2   196  LEU196      0.2260
     38  O         -5.1910   29.9200  -13.7970 O.2   196  LEU196     -0.2867
     39  CB        -7.2560   32.1970  -12.9150 C.3   196  LEU196      0.0270
     40  CG        -7.5580   33.5010  -12.1870 C.3   196  LEU196      0.0019
     41  CD1       -8.3970   34.4590  -13.0560 C.3   196  LEU196      0.0001
     42  CD2       -8.2430   33.2270  -10.8520 C.3   196  LEU196      0.0001
     43  N        -21.2930   25.7430  -17.0650 N.3   205  VAL205     -0.1231
     44  CA       -20.9140   27.0760  -17.4520 C.3   205  VAL205      0.1692
     45  C        -19.4730   27.3150  -17.0190 C.2   205  VAL205      0.2592
     46  O        -19.0880   27.0350  -15.8740 O.2   205  VAL205     -0.2718
     47  CB       -21.8570   28.1700  -16.8970 C.3   205  VAL205      0.0266
     48  CG1      -21.4610   29.5270  -17.4300 C.3   205  VAL205      0.0020
     49  CG2      -23.2780   27.8560  -17.3330 C.3   205  VAL205      0.0020
     50  N        -18.6830   27.8270  -17.9580 N.am  206  PHE206     -0.1962
     51  CA       -17.3060   28.1470  -17.6920 C.3   206  PHE206      0.1771
     52  C        -17.1480   29.1400  -16.5340 C.2   206  PHE206      0.2619
     53  O        -17.8660   30.1400  -16.4570 O.2   206  PHE206     -0.2715
     54  CB       -16.6680   28.7310  -18.9400 C.3   206  PHE206      0.0574
     55  CG       -15.2210   29.0910  -18.7490 C.ar  206  PHE206     -0.0200
     56  CD1      -14.2370   28.1020  -18.7410 C.ar  206  PHE206     -0.0042
     57  CD2      -14.8450   30.4100  -18.5410 C.ar  206  PHE206     -0.0042
     58  CE1      -12.9090   28.4210  -18.5400 C.ar  206  PHE206     -0.0003
     59  CE2      -13.5060   30.7330  -18.3570 C.ar  206  PHE206     -0.0003
     60  CZ       -12.5430   29.7300  -18.3520 C.ar  206  PHE206     -0.0000
     61  N        -16.1880   28.8660  -15.6600 N.am  207  LYS207     -0.1963
     62  CA       -15.8240   29.7900  -14.6000 C.3   207  LYS207      0.1728
     63  C        -14.3310   29.7200  -14.2630 C.2   207  LYS207      0.2616
     64  O        -13.6690   28.7450  -14.6170 O.2   207  LYS207     -0.2715
     65  CB       -16.6460   29.5080  -13.3530 C.3   207  LYS207      0.0311
     66  CG       -16.3600   28.2090  -12.6290 C.3   207  LYS207      0.0038
     67  CD       -17.0380   28.2120  -11.2420 C.3   207  LYS207      0.0206
     68  CE       -16.1290   27.8110  -10.0650 C.3   207  LYS207      0.1093
     69  NZ       -15.8020   26.3640   -9.9980 N.3   207  LYS207     -0.1314
     70  N        -13.8120   30.7480  -13.5810 N.am  208  TRP208     -0.1974
     71  CA       -12.4170   30.8220  -13.2010 C.3   208  TRP208      0.1640
     72  C        -12.2590   30.4100  -11.7520 C.2   208  TRP208      0.2290
     73  O        -12.9760   30.8780  -10.9140 O.2   208  TRP208     -0.2864
     74  CB       -11.8820   32.2510  -13.3850 C.3   208  TRP208      0.0576
     75  CG       -11.8820   32.7560  -14.7990 C.ar  208  TRP208      0.0006
     76  CD1      -12.7530   33.6050  -15.3510 C.ar  208  TRP208      0.0946
     77  CD2      -10.9450   32.4140  -15.8280 C.ar  208  TRP208      0.0152
     78  NE1      -12.4110   33.8480  -16.6610 N.ar  208  TRP208     -0.2442
     79  CE2      -11.3130   33.1020  -16.9760 C.ar  208  TRP208      0.0810
     80  CE3       -9.8390   31.5740  -15.8790 C.ar  208  TRP208      0.0012
     81  CZ2      -10.6180   32.9920  -18.1760 C.ar  208  TRP208      0.0191
     82  CZ3       -9.1380   31.4680  -17.0880 C.ar  208  TRP208      0.0001
     83  CH2       -9.5350   32.1710  -18.2130 C.ar  208  TRP208      0.0015
     84  N        -11.0110   28.9170  -21.7050 N.3   233  ALA233     -0.1245
     85  CA       -12.1120   29.8600  -21.8580 C.3   233  ALA233      0.1562
     86  C        -12.7750   29.6820  -23.2290 C.2   233  ALA233      0.2260
     87  O        -14.0040   29.7540  -23.3460 O.2   233  ALA233     -0.2867
     88  CB       -11.6140   31.2860  -21.6860 C.3   233  ALA233      0.0290
     89  N        -23.0930   29.9910  -30.7020 N.3   257  TRP257     -0.1241
     90  CA       -22.2340   30.3240  -29.5690 C.3   257  TRP257      0.1605
     91  C        -22.4900   29.3350  -28.4150 C.2   257  TRP257      0.2264
     92  O        -23.6070   28.8570  -28.2690 O.2   257  TRP257     -0.2867
     93  CB       -22.5430   31.7600  -29.1170 C.3   257  TRP257      0.0550
     94  CG       -21.8380   32.1950  -27.8900 C.ar  257  TRP257      0.0003
     95  CD1      -20.6880   32.9170  -27.8220 C.ar  257  TRP257      0.0946
     96  CD2      -22.2380   31.9590  -26.5300 C.ar  257  TRP257      0.0152
     97  NE1      -20.3280   33.1200  -26.5070 N.ar  257  TRP257     -0.2442
     98  CE2      -21.2520   32.5290  -25.6960 C.ar  257  TRP257      0.0810
     99  CE3      -23.3080   31.3000  -25.9380 C.ar  257  TRP257      0.0012
    100  CZ2      -21.3220   32.4810  -24.3020 C.ar  257  TRP257      0.0191
    101  CZ3      -23.3740   31.2420  -24.5180 C.ar  257  TRP257      0.0001
    102  CH2      -22.4030   31.8420  -23.7310 C.ar  257  TRP257      0.0015
    103  N        -16.1440   25.2420  -26.3470 N.3   261  ASN261     -0.1240
    104  CA       -15.0360   25.2260  -25.4000 C.3   261  ASN261      0.1653
    105  C        -15.0470   24.0390  -24.4560 C.2   261  ASN261      0.2266
    106  O        -14.0210   23.4660  -24.1430 O.2   261  ASN261     -0.2867
    107  CB       -14.9230   26.5760  -24.6420 C.3   261  ASN261      0.1155
    108  CG       -16.1530   26.9480  -23.7950 C.2   261  ASN261      0.2627
    109  OD1      -16.0280   27.7480  -22.8680 O.2   261  ASN261     -0.2716
    110  ND2      -17.3120   26.4040  -24.0940 N.am  261  ASN261     -0.0877
    111  N         -9.1530   41.2480  -23.9800 N.3   285  HIS285     -0.1241
    112  CA       -10.4230   40.8510  -24.5790 C.3   285  HIS285      0.1621
    113  C        -11.5280   41.7370  -23.9990 C.2   285  HIS285      0.2264
    114  O        -11.5600   42.0060  -22.7930 O.2   285  HIS285     -0.2867
    115  CB       -10.6940   39.3800  -24.2770 C.3   285  HIS285      0.0745
    116  CG       -12.0560   38.9060  -24.6820 C.ar  285  HIS285      0.0817
    117  ND1      -13.0660   38.6840  -23.7750 N.ar  285  HIS285     -0.2268
    118  CD2      -12.5850   38.6180  -25.8940 C.ar  285  HIS285      0.1154
    119  CE1      -14.1530   38.2850  -24.4100 C.ar  285  HIS285      0.1986
    120  NE2      -13.8880   38.2380  -25.6990 N.ar  285  HIS285     -0.2212
    121  N        -14.6180   41.7980  -22.5110 N.3   287  PHE287     -0.1227
    122  CA       -15.6510   40.9830  -21.8830 C.3   287  PHE287      0.1736
    123  C        -16.9250   41.7910  -21.8540 C.2   287  PHE287      0.2595
    124  O        -16.9040   42.9760  -21.5050 O.2   287  PHE287     -0.2718
    125  CB       -15.2330   40.5500  -20.4860 C.3   287  PHE287      0.0547
    126  CG       -14.1020   39.5290  -20.4880 C.ar  287  PHE287     -0.0202
    127  CD1      -14.3730   38.1590  -20.5560 C.ar  287  PHE287     -0.0042
    128  CD2      -12.7660   39.9430  -20.4170 C.ar  287  PHE287     -0.0042
    129  CE1      -13.3440   37.2270  -20.5360 C.ar  287  PHE287     -0.0003
    130  CE2      -11.7400   39.0300  -20.3950 C.ar  287  PHE287     -0.0003
    131  CZ       -12.0290   37.6670  -20.4590 C.ar  287  PHE287     -0.0000
    132  N        -18.0340   41.1770  -22.2450 N.am  288  ARG288     -0.1966
    133  CA       -19.3180   41.8480  -22.1170 C.3   288  ARG288      0.1729
    134  C        -20.3510   41.0120  -21.3590 C.2   288  ARG288      0.2616
    135  O        -20.1220   39.8510  -21.0630 O.2   288  ARG288     -0.2715
    136  CB       -19.8060   42.3380  -23.4810 C.3   288  ARG288      0.0348
    137  CG       -19.9050   41.2970  -24.5570 C.3   288  ARG288      0.0492
    138  CD       -20.1360   41.9520  -25.9150 C.3   288  ARG288      0.2205
    139  NE       -19.9130   40.9680  -26.9730 N.pl3 288  ARG288     -0.0865
    140  CZ       -19.6940   41.2370  -28.2610 C.cat 288  ARG288      0.5346
    141  NH1      -19.6860   42.4730  -28.7110 N.pl3 288  ARG288      0.1354
    142  NH2      -19.4630   40.2270  -29.0950 N.pl3 288  ARG288      0.1354
    143  N        -21.4640   41.6250  -20.9850 N.am  289  LYS289     -0.1963
    144  CA       -22.5000   40.9530  -20.1720 C.3   289  LYS289      0.1728
    145  C        -23.5900   40.3450  -21.0480 C.2   289  LYS289      0.2616
    146  O        -24.2770   39.4290  -20.6220 O.2   289  LYS289     -0.2715
    147  CB       -23.1550   41.9220  -19.1710 C.3   289  LYS289      0.0311
    148  CG       -22.2030   42.7850  -18.3580 C.3   289  LYS289      0.0038
    149  CD       -21.7290   42.1320  -17.0600 C.3   289  LYS289      0.0206
    150  CE       -21.3680   43.2030  -16.0230 C.3   289  LYS289      0.1093
    151  NZ       -20.2140   44.0630  -16.4380 N.3   289  LYS289     -0.1314
    152  N        -23.7840   40.8850  -22.2440 N.am  290  GLN290     -0.1963
    153  CA       -24.8440   40.4140  -23.1410 C.3   290  GLN290      0.1733
    154  C        -24.3670   40.2570  -24.5840 C.2   290  GLN290      0.2616
    155  O        -23.4790   40.9690  -25.0310 O.2   290  GLN290     -0.2715
    156  CB       -26.0340   41.4040  -23.1410 C.3   290  GLN290      0.0408
    157  CG       -26.6680   41.6590  -21.7790 C.3   290  GLN290      0.0908
    158  CD       -27.7630   42.7030  -21.8490 C.2   290  GLN290      0.2608
    159  OE1      -28.9520   42.3650  -21.8010 O.2   290  GLN290     -0.2717
    160  NE2      -27.3820   43.9630  -21.9880 N.am  290  GLN290     -0.0878
    161  N        -25.0050   39.3380  -25.2950 N.am  291  HIS291     -0.1973
    162  CA       -24.7200   39.1310  -26.6890 C.3   291  HIS291      0.1656
    163  C        -25.4150   40.2190  -27.4750 C.2   291  HIS291      0.2291
    164  O        -26.5660   40.5300  -27.1950 O.2   291  HIS291     -0.2864
    165  CB       -25.2390   37.7820  -27.1450 C.3   291  HIS291      0.0771
    166  CG       -24.7520   36.6280  -26.3140 C.ar  291  HIS291      0.0820
    167  ND1      -23.4910   36.0800  -26.4610 N.ar  291  HIS291     -0.2267
    168  CD2      -25.3750   35.8980  -25.3570 C.ar  291  HIS291      0.1154
    169  CE1      -23.3530   35.0770  -25.6180 C.ar  291  HIS291      0.1986
    170  NE2      -24.4770   34.9500  -24.9330 N.ar  291  HIS291     -0.2212
    171  N        -31.1090   32.2900  -27.1570 N.3   299  SER299     -0.1202
    172  CA       -29.7840   31.9140  -26.6510 C.3   299  SER299      0.2020
    173  C        -29.8570   30.8030  -25.6130 C.2   299  SER299      0.2619
    174  O        -29.0480   29.8770  -25.6270 O.2   299  SER299     -0.2717
    175  CB       -29.0190   33.1520  -26.1510 C.3   299  SER299      0.2103
    176  OG       -29.4370   33.5440  -24.8560 O.3   299  SER299     -0.2182
    177  N        -30.8450   30.8770  -24.7280 N.am  300  GLY300     -0.1956
    178  CA       -31.0470   29.8360  -23.7000 C.3   300  GLY300      0.1869
    179  C        -31.0440   28.4300  -24.3070 C.2   300  GLY300      0.2309
    180  O        -30.3570   27.5210  -23.8310 O.2   300  GLY300     -0.2863
    181  N        -27.6900   27.3310  -26.3500 N.3   303  PHE303     -0.1241
    182  CA       -26.6140   27.0360  -25.4210 C.3   303  PHE303      0.1605
    183  C        -26.8380   25.6540  -24.8070 C.2   303  PHE303      0.2264
    184  O        -25.8960   24.8500  -24.6680 O.2   303  PHE303     -0.2867
    185  CB       -26.5420   28.1510  -24.3510 C.3   303  PHE303      0.0534
    186  CG       -25.3800   28.0410  -23.3780 C.ar  303  PHE303     -0.0203
    187  CD1      -24.1440   27.5250  -23.7660 C.ar  303  PHE303     -0.0042
    188  CD2      -25.5110   28.5290  -22.0750 C.ar  303  PHE303     -0.0042
    189  CE1      -23.0840   27.4570  -22.8640 C.ar  303  PHE303     -0.0003
    190  CE2      -24.4560   28.4610  -21.1730 C.ar  303  PHE303     -0.0003
    191  CZ       -23.2370   27.9130  -21.5750 C.ar  303  PHE303     -0.0000
@<TRIPOS>BOND
     1    89    90    1
     2    90    93    1
     3    90    91    1
     4    93    94    1
     5   142   140    1
     6   141   140    1
     7    91    92    2
     8   140   139    2
     9    94    95   ar
    10    94    96   ar
    11    95    97   ar
    12   163   164    2
    13   163   162    1
    14   171   172    1
    15   165   162    1
    16   165   166    1
    17   139   138    1
    18   162   161    1
    19   172   175    1
    20   172   173    1
    21    96    99   ar
    22    96    98   ar
    23    97    98   ar
    24   167   166   ar
    25   167   169   ar
    26   181   182    1
    27   103   104    1
    28   166   168   ar
    29   175   176    1
    30    99   101   ar
    31   138   137    1
    32   118   120   ar
    33   118   116   ar
    34   120   119   ar
    35    98   100   ar
    36   174   173    2
    37   169   170   ar
    38   173   177   am
    39   182   183    1
    40   182   185    1
    41   104   107    1
    42   104   105    1
    43   168   170   ar
    44   161   154   am
    45   155   154    2
    46   183   184    2
    47   177   178    1
    48   116   115    1
    49   116   117   ar
    50   107   108    1
    51   154   153    1
    52   112   115    1
    53   112   113    1
    54   112   111    1
    55   137   136    1
    56   101   102   ar
    57   105   106    2
    58   119   117   ar
    59   185   186    1
    60   179   180    2
    61   179   178    1
    62   100   102   ar
    63   110   108   am
    64   113   114    2
    65   108   109    2
    66   187   186   ar
    67   187   189   ar
    68   136   133    1
    69   186   188   ar
    70    87    86    2
    71    86    85    1
    72   156   153    1
    73   156   157    1
    74   153   152    1
    75   189   191   ar
    76   121   122    1
    77    16    14    1
    78   132   133    1
    79   132   123   am
    80   152   145   am
    81    14    13    1
    82   133   134    1
    83    15    13    1
    84   188   190   ar
    85   160   158   am
    86   122   123    1
    87   122   125    1
    88    85    84    1
    89    85    88    1
    90   123   124    2
    91   158   159    2
    92   158   157    1
    93   191   190   ar
    94   134   135    2
    95   134   143   am
    96     4     3    2
    97    13    10    1
    98   145   146    2
    99   145   144    1
   100    10     9    1
   101    10    11    1
   102   143   144    1
   103     1     2    1
   104     3     9   am
   105     3     2    1
   106   127   129   ar
   107   127   126   ar
   108   129   131   ar
   109   126   125    1
   110   126   128   ar
   111   131   130   ar
   112   128   130   ar
   113   144   147    1
   114    19    20    2
   115    19    18    1
   116    11    12    2
   117     2     5    1
   118    18    17    1
   119    18    21    1
   120   147   148    1
   121    54    55    1
   122    54    51    1
   123    55    56   ar
   124    55    57   ar
   125     5     7    1
   126     5     6    1
   127    56    58   ar
   128    57    59   ar
   129    58    60   ar
   130   148   149    1
   131    59    60   ar
   132    22    21    1
   133    83    81   ar
   134    83    82   ar
   135    81    79   ar
   136    21    23    1
   137    50    51    1
   138    50    45   am
   139     6     8    1
   140    51    52    1
   141    44    43    1
   142    44    45    1
   143    44    47    1
   144    48    47    1
   145    49    47    1
   146    82    80   ar
   147   149   150    1
   148    45    46    2
   149    79    78   ar
   150    79    77   ar
   151    78    76   ar
   152    52    53    2
   153    52    61   am
   154   151   150    1
   155    28    25    1
   156    24    25    1
   157    80    77   ar
   158    77    75   ar
   159    61    62    1
   160    76    75   ar
   161    25    26    1
   162    75    74    1
   163    64    63    2
   164    62    63    1
   165    62    65    1
   166    63    70   am
   167    27    26    2
   168    26    29   am
   169    32    31    2
   170    38    37    2
   171    70    71    1
   172    74    71    1
   173    65    66    1
   174    29    30    1
   175    71    72    1
   176    31    30    1
   177    41    40    1
   178    37    36    1
   179    39    40    1
   180    39    36    1
   181    66    67    1
   182    30    33    1
   183    40    42    1
   184    36    35    1
   185    72    73    2
   186    67    68    1
   187    33    34    1
   188    68    69    1
