@<TRIPOS>MOLECULE
tmp/4d0wA00.pdb
 157 147 0 0 0
SMALL
GASTEIGER

@<TRIPOS>ATOM
      1  N         32.5450  -10.0700   10.0460 N.3    17  LEU17      -0.1231
      2  CA        31.7150  -10.0120    8.8250 C.3    17  LEU17       0.1693
      3  C         30.8780  -11.2520    8.7250 C.2    17  LEU17       0.2593
      4  O         29.7320  -11.1910    8.2710 O.2    17  LEU17      -0.2718
      5  CB        32.5580   -9.8370    7.5670 C.3    17  LEU17       0.0284
      6  CG        33.2340   -8.4760    7.3690 C.3    17  LEU17       0.0019
      7  CD1       34.2440   -8.3970    6.2320 C.3    17  LEU17       0.0001
      8  CD2       32.1990   -7.3480    7.1990 C.3    17  LEU17       0.0001
      9  N         31.4270  -12.3990    9.1330 N.am   18  GLY18      -0.1942
     10  CA        30.6790  -13.6570    9.0220 C.3    18  GLY18       0.2014
     11  C         31.4570  -14.7840    9.6630 C.2    18  GLY18       0.2639
     12  O         32.6960  -14.6850    9.8440 O.2    18  GLY18      -0.2714
     13  N         30.7700  -15.9090    9.9310 N.am   19  LYS19      -0.1963
     14  CA        31.3840  -17.1690   10.5050 C.3    19  LYS19       0.1728
     15  C         30.7410  -18.3780    9.8270 C.2    19  LYS19       0.2616
     16  O         29.5300  -18.3660    9.6590 O.2    19  LYS19      -0.2715
     17  CB        31.1480  -17.3050   12.0350 C.3    19  LYS19       0.0311
     18  CG        32.3690  -17.1820   12.9210 C.3    19  LYS19       0.0038
     19  CD        31.9570  -16.7510   14.3260 C.3    19  LYS19       0.0206
     20  CE        33.1300  -16.2630   15.1830 C.3    19  LYS19       0.1093
     21  NZ        33.4640  -17.0900   16.3960 N.3    19  LYS19      -0.1314
     22  N         31.5130  -19.4060    9.4350 N.am   20  GLY20      -0.1955
     23  CA        30.9690  -20.4760    8.5840 C.3    20  GLY20       0.1869
     24  C         31.5410  -21.8700    8.8070 C.2    20  GLY20       0.2309
     25  O         32.4990  -22.2650    8.1390 O.2    20  GLY20      -0.2863
     26  N         35.7030  -21.3320    9.6860 N.3    22  GLY22      -0.1210
     27  CA        36.3700  -20.0630    9.4190 C.3    22  GLY22       0.1956
     28  C         35.5500  -18.8660    9.8550 C.2    22  GLY22       0.2613
     29  O         34.3270  -18.9630   10.1370 O.2    22  GLY22      -0.2717
     30  N         36.2420  -17.7330    9.9240 N.am   23  SER23      -0.1938
     31  CA        35.6800  -16.4820   10.2780 C.3    23  SER23       0.2055
     32  C         36.2000  -15.4250    9.2790 C.2    23  SER23       0.2642
     33  O         37.3580  -15.5070    8.8730 O.2    23  SER23      -0.2714
     34  CB        36.2610  -16.1700   11.6620 C.3    23  SER23       0.2130
     35  OG        35.7130  -15.0250   12.1000 O.3    23  SER23      -0.2179
     36  N         35.3810  -14.4600    8.8790 N.am   24  VAL24      -0.1977
     37  CA        35.8600  -13.3140    8.0580 C.3    24  VAL24       0.1596
     38  C         35.6810  -12.0400    8.8520 C.2    24  VAL24       0.2287
     39  O         34.5640  -11.7740    9.3780 O.2    24  VAL24      -0.2864
     40  CB        35.2200  -13.2300    6.6750 C.3    24  VAL24       0.0276
     41  CG1       35.7480  -12.0250    5.9260 C.3    24  VAL24       0.0022
     42  CG2       35.6290  -14.4630    5.8930 C.3    24  VAL24       0.0022
     43  N         39.2930   -7.5890    3.7620 N.3    41  ALA41      -0.1245
     44  CA        38.5600   -8.6270    4.4620 C.3    41  ALA41       0.1562
     45  C         39.5680   -9.7080    4.8000 C.2    41  ALA41       0.2260
     46  O         40.3890  -10.0800    3.9390 O.2    41  ALA41      -0.2867
     47  CB        37.4940   -9.1970    3.5200 C.3    41  ALA41       0.0290
     48  N         40.1980  -13.6700    6.2260 N.3    43  LYS43      -0.1245
     49  CA        39.6580  -14.9440    6.6190 C.3    43  LYS43       0.1561
     50  C         40.6420  -15.7140    7.4760 C.2    43  LYS43       0.2260
     51  O         41.8200  -15.8080    7.0990 O.2    43  LYS43      -0.2867
     52  CB        39.2880  -15.7980    5.3820 C.3    43  LYS43       0.0271
     53  CG        38.5760  -17.0980    5.8380 C.3    43  LYS43       0.0035
     54  CD        37.8800  -17.8760    4.6520 C.3    43  LYS43       0.0206
     55  CE        37.1950  -19.1650    5.2160 C.3    43  LYS43       0.1093
     56  NZ        36.5520  -19.8720    4.0330 N.3    43  LYS43      -0.1314
     57  N         35.9190  -12.9800   -6.0840 N.3    72  VAL72      -0.1245
     58  CA        36.5180  -11.9760   -5.1440 C.3    72  VAL72       0.1561
     59  C         38.0700  -11.9910   -5.3310 C.2    72  VAL72       0.2260
     60  O         38.6940  -13.0870   -5.4970 O.2    72  VAL72      -0.2867
     61  CB        36.1330  -12.3030   -3.6800 C.3    72  VAL72       0.0252
     62  CG1       36.6470  -13.7090   -3.2000 C.3    72  VAL72       0.0019
     63  CG2       36.5590  -11.1470   -2.7270 C.3    72  VAL72       0.0019
     64  N         41.7430  -10.5600    1.4640 N.3    90  MET90      -0.1230
     65  CA        41.0020  -10.3750    0.1940 C.3    90  MET90       0.1702
     66  C         40.4460   -9.0160    0.1270 C.2    90  MET90       0.2592
     67  O         40.3310   -8.3120    1.1560 O.2    90  MET90      -0.2718
     68  CB        39.7710  -11.3160    0.1760 C.3    90  MET90       0.0401
     69  CG        40.0450  -12.7720    0.3690 C.3    90  MET90       0.0596
     70  SD        38.3830  -13.5390    0.7740 S.3    90  MET90      -0.1393
     71  CE        38.3520  -13.6690    2.6050 C.3    90  MET90       0.0692
     72  N         40.0050   -8.6170   -1.0420 N.am   91  GLU91      -0.1966
     73  CA        39.3340   -7.2890   -1.1330 C.3    91  GLU91       0.1733
     74  C         38.0280   -7.2950   -0.2900 C.2    91  GLU91       0.2616
     75  O         37.3070   -8.2880   -0.1630 O.2    91  GLU91      -0.2715
     76  CB        39.0230   -6.8910   -2.5800 C.3    91  GLU91       0.0429
     77  CG        38.0940   -7.9340   -3.2420 C.3    91  GLU91       0.1163
     78  CD        37.6790   -7.5670   -4.6780 C.2    91  GLU91       0.3649
     79  OE1       37.9100   -6.4210   -5.1480 O.co2  91  GLU91      -0.2457
     80  OE2       37.1420   -8.4440   -5.3830 O.co2  91  GLU91      -0.2457
     81  N         37.7530   -6.1590    0.3280 N.am   92  TYR92      -0.1960
     82  CA        36.5260   -5.9220    1.0720 C.3    92  TYR92       0.1771
     83  C         35.4470   -5.4300    0.0860 C.2    92  TYR92       0.2619
     84  O         35.6260   -4.4590   -0.6570 O.2    92  TYR92      -0.2715
     85  CB        36.7800   -4.8340    2.1880 C.3    92  TYR92       0.0574
     86  CG        35.4390   -4.5160    2.9010 C.ar   92  TYR92      -0.0198
     87  CD1       34.8460   -5.4940    3.6440 C.ar   92  TYR92      -0.0009
     88  CD2       34.8390   -3.2400    2.8370 C.ar   92  TYR92      -0.0009
     89  CE1       33.6430   -5.2740    4.3380 C.ar   92  TYR92       0.0417
     90  CE2       33.6240   -2.9830    3.5440 C.ar   92  TYR92       0.0417
     91  CZ        33.0290   -4.0190    4.2590 C.ar   92  TYR92       0.1957
     92  OH        31.8000   -3.9120    4.9590 O.3    92  TYR92      -0.2866
     93  N         34.3560   -6.1830    0.0200 N.am   93  LEU93      -0.1977
     94  CA        33.2570   -5.9020   -0.9180 C.3    93  LEU93       0.1596
     95  C         32.1070   -5.3220   -0.0950 C.2    93  LEU93       0.2287
     96  O         31.4840   -5.9920    0.6950 O.2    93  LEU93      -0.2864
     97  CB        32.8010   -7.1920   -1.6640 C.3    93  LEU93       0.0297
     98  CG        33.9170   -7.6920   -2.6220 C.3    93  LEU93       0.0022
     99  CD1       33.3450   -8.8870   -3.4650 C.3    93  LEU93       0.0001
    100  CD2       34.4120   -6.6290   -3.5700 C.3    93  LEU93       0.0001
    101  N         28.3500   -6.5540    1.0840 N.3    96  GLY96      -0.1210
    102  CA        28.1490   -7.7280    1.9200 C.3    96  GLY96       0.1956
    103  C         27.6290   -8.9390    1.0960 C.2    96  GLY96       0.2612
    104  O         27.7640   -8.9350   -0.1290 O.2    96  GLY96      -0.2717
    105  N         27.1010   -9.9410    1.7640 N.am   97  SER97      -0.1952
    106  CA        26.5950  -11.1360    1.0280 C.3    97  SER97       0.1924
    107  C         25.3360  -10.8450    0.2480 C.2    97  SER97       0.2314
    108  O         24.5310   -9.9540    0.6090 O.2    97  SER97      -0.2863
    109  CB        26.4770  -12.3580    1.8900 C.3    97  SER97       0.2116
    110  OG        25.2950  -12.2930    2.6530 O.3    97  SER97      -0.2180
    111  N         22.2050  -11.5040    2.2900 N.3   100  ASP100     -0.1239
    112  CA        21.8250  -10.3390    3.1520 C.3   100  ASP100      0.1674
    113  C         21.2810   -9.1700    2.3760 C.2   100  ASP100      0.2266
    114  O         20.3060   -8.5430    2.7910 O.2   100  ASP100     -0.2867
    115  CB        23.0550   -9.8820    3.9880 C.3   100  ASP100      0.1410
    116  CG        23.3830  -10.8750    5.0960 C.2   100  ASP100      0.3668
    117  OD1       22.5670  -11.7860    5.2710 O.co2 100  ASP100     -0.2456
    118  OD2       24.4610  -10.7480    5.7410 O.co2 100  ASP100     -0.2456
    119  N         24.4790  -17.2340    0.0290 N.3   141  ARG141     -0.1231
    120  CA        25.3020  -16.8510    1.2020 C.3   141  ARG141      0.1694
    121  C         26.8350  -16.7470    0.9080 C.2   141  ARG141      0.2592
    122  O         27.6020  -16.0720    1.6810 O.2   141  ARG141     -0.2718
    123  CB        25.0810  -17.7810    2.3980 C.3   141  ARG141      0.0321
    124  CG        25.5200  -19.1940    2.1560 C.3   141  ARG141      0.0489
    125  CD        25.4600  -20.0890    3.3920 C.3   141  ARG141      0.2205
    126  NE        25.5250  -21.4970    2.9520 N.pl3 141  ARG141     -0.0865
    127  CZ        26.5300  -22.3470    3.1660 C.cat 141  ARG141      0.5346
    128  NH1       27.6260  -21.9550    3.8140 N.pl3 141  ARG141      0.1354
    129  NH2       26.4490  -23.5900    2.7120 N.pl3 141  ARG141      0.1354
    130  N         27.2650  -17.3560   -0.1950 N.am  142  ASN142     -0.1974
    131  CA        28.6590  -17.3000   -0.6110 C.3   142  ASN142      0.1688
    132  C         28.9590  -16.3860   -1.7850 C.2   142  ASN142      0.2292
    133  O         30.0570  -16.4920   -2.3740 O.2   142  ASN142     -0.2864
    134  CB        29.1100  -18.7740   -0.9130 C.3   142  ASN142      0.1181
    135  CG        29.2060  -19.5830    0.3530 C.2   142  ASN142      0.2629
    136  OD1       29.6670  -19.0290    1.3730 O.2   142  ASN142     -0.2716
    137  ND2       28.7920  -20.8610    0.3470 N.am  142  ASN142     -0.0877
    138  N         28.9980  -12.3150   -3.0660 N.3   144  LEU144     -0.1245
    139  CA        29.1990  -11.0370   -2.3400 C.3   144  LEU144      0.1561
    140  C         28.8760   -9.9230   -3.3740 C.2   144  LEU144      0.2260
    141  O         29.0320  -10.1130   -4.6150 O.2   144  LEU144     -0.2867
    142  CB        30.6850  -10.9020   -1.9480 C.3   144  LEU144      0.0270
    143  CG        31.1830  -11.7920   -0.8640 C.3   144  LEU144      0.0019
    144  CD1       32.7210  -11.6300   -0.6760 C.3   144  LEU144      0.0001
    145  CD2       30.3800  -11.6010    0.4250 C.3   144  LEU144      0.0001
    146  N         32.3830  -15.4900   -3.5440 N.3   154  GLY154     -0.1210
    147  CA        33.1280  -14.8150   -2.4150 C.3   154  GLY154      0.1956
    148  C         33.7640  -15.7310   -1.4280 C.2   154  GLY154      0.2611
    149  O         34.4760  -15.2600   -0.4820 O.2   154  GLY154     -0.2717
    150  N         33.5270  -17.0570   -1.5430 N.am  155  ASP155     -0.1973
    151  CA        34.2140  -17.9920   -0.6180 C.3   155  ASP155      0.1709
    152  C         34.4280  -19.2920   -1.3380 C.2   155  ASP155      0.2293
    153  O         33.5880  -19.6540   -2.2230 O.2   155  ASP155     -0.2864
    154  CB        33.3070  -18.2220    0.5970 C.3   155  ASP155      0.1436
    155  CG        33.9770  -19.1190    1.6450 C.2   155  ASP155      0.3671
    156  OD1       34.8220  -18.5700    2.4350 O.co2 155  ASP155     -0.2456
    157  OD2       33.7300  -20.3370    1.7100 O.co2 155  ASP155     -0.2456
@<TRIPOS>BOND
     1    57    58    1
     2    60    59    2
     3    80    78   ar
     4    59    58    1
     5    79    78   ar
     6    58    61    1
     7    78    77    1
     8   141   140    2
     9    61    62    1
    10    61    63    1
    11   100    98    1
    12   146   147    1
    13    99    98    1
    14   140   139    1
    15    77    76    1
    16   138   139    1
    17    98    97    1
    18    76    73    1
    19   147   148    1
    20   133   132    2
    21   139   142    1
    22   153   152    2
    23   142   143    1
    24   132   131    1
    25    97    94    1
    26   150   148   am
    27   150   151    1
    28   148   149    2
    29   152   151    1
    30    73    72    1
    31    73    74    1
    32    72    66   am
    33    94    95    1
    34    94    93    1
    35   134   131    1
    36   134   135    1
    37   143   144    1
    38   143   145    1
    39    84    83    2
    40   151   154    1
    41   131   130    1
    42    74    75    2
    43    74    81   am
    44   130   121   am
    45   104   103    2
    46    95    96    2
    47    93    83   am
    48   119   120    1
    49    83    82    1
    50    66    65    1
    51    66    67    2
    52    68    65    1
    53    68    69    1
    54    65    64    1
    55   107   108    2
    56   107   106    1
    57    81    82    1
    58   137   135   am
    59   135   136    2
    60    69    70    1
    61   154   155    1
    62    70    71    1
    63   121   120    1
    64   121   122    2
    65   106   105    1
    66   106   109    1
    67    82    85    1
    68   101   102    1
    69   103   105   am
    70   103   102    1
    71   120   123    1
    72   155   157   ar
    73   155   156   ar
    74   109   110    1
    75   124   123    1
    76   124   125    1
    77    85    86    1
    78   111   112    1
    79   113   114    2
    80   113   112    1
    81   129   127    1
    82    88    86   ar
    83    88    90   ar
    84    86    87   ar
    85   126   127    2
    86   126   125    1
    87   112   115    1
    88   127   128    1
    89    47    44    1
    90    90    91   ar
    91    87    89   ar
    92    43    44    1
    93    46    45    2
    94   115   116    1
    95    56    55    1
    96    91    89   ar
    97    91    92    1
    98    44    45    1
    99    54    55    1
   100    54    53    1
   101   116   117   ar
   102   116   118   ar
   103    52    53    1
   104    52    49    1
   105    42    40    1
   106    41    40    1
   107    48    49    1
   108     7     6    1
   109    49    50    1
   110    40    37    1
   111    51    50    2
   112     8     6    1
   113     6     5    1
   114     5     2    1
   115    37    38    1
   116    37    36    1
   117    25    24    2
   118     4     3    2
   119    23    24    1
   120    23    22    1
   121     3     2    1
   122     3     9   am
   123     2     1    1
   124    38    39    2
   125    33    32    2
   126    36    32   am
   127    10     9    1
   128    10    11    1
   129    32    31    1
   130    27    26    1
   131    27    28    1
   132    22    15   am
   133    16    15    2
   134    11    12    2
   135    11    13   am
   136    15    14    1
   137    28    30   am
   138    28    29    2
   139    30    31    1
   140    13    14    1
   141    31    34    1
   142    14    17    1
   143    34    35    1
   144    17    18    1
   145    18    19    1
   146    19    20    1
   147    20    21    1
