@<TRIPOS>MOLECULE
tmp/4d0xA00.pdb
 157 147 0 0 0
SMALL
GASTEIGER

@<TRIPOS>ATOM
      1  N         32.4590   -9.9980    9.9890 N.3    17  LEU17      -0.1231
      2  CA        31.6260   -9.9030    8.7630 C.3    17  LEU17       0.1693
      3  C         30.8120  -11.1680    8.6040 C.2    17  LEU17       0.2593
      4  O         29.6680  -11.1220    8.1040 O.2    17  LEU17      -0.2718
      5  CB        32.4320   -9.6120    7.4880 C.3    17  LEU17       0.0284
      6  CG        33.2300   -8.2970    7.2730 C.3    17  LEU17       0.0019
      7  CD1       34.2130   -8.2820    6.0870 C.3    17  LEU17       0.0001
      8  CD2       32.3420   -7.0550    7.1430 C.3    17  LEU17       0.0001
      9  N         31.3790  -12.3060    8.9840 N.am   18  GLY18      -0.1942
     10  CA        30.6040  -13.5590    8.8720 C.3    18  GLY18       0.2014
     11  C         31.3260  -14.5970    9.6420 C.2    18  GLY18       0.2639
     12  O         32.5460  -14.4410    9.9020 O.2    18  GLY18      -0.2714
     13  N         30.6150  -15.6760    9.9840 N.am   19  LYS19      -0.1963
     14  CA        31.1870  -16.8620   10.5930 C.3    19  LYS19       0.1728
     15  C         30.5450  -18.1100   10.0290 C.2    19  LYS19       0.2616
     16  O         29.3410  -18.1620    9.8470 O.2    19  LYS19      -0.2715
     17  CB        30.9580  -16.8420   12.1040 C.3    19  LYS19       0.0311
     18  CG        32.1460  -17.3070   12.8970 C.3    19  LYS19       0.0038
     19  CD        32.1790  -16.6290   14.2510 C.3    19  LYS19       0.0206
     20  CE        33.2810  -17.2330   15.1240 C.3    19  LYS19       0.1093
     21  NZ        33.5870  -16.5280   16.4100 N.3    19  LYS19      -0.1314
     22  N         31.3520  -19.1180    9.7550 N.am   20  GLY20      -0.1955
     23  CA        30.8840  -20.3390    9.1410 C.3    20  GLY20       0.1869
     24  C         31.3110  -21.3700   10.1400 C.2    20  GLY20       0.2309
     25  O         31.6570  -21.0240   11.2730 O.2    20  GLY20      -0.2863
     26  N         35.5460  -21.2370    9.9610 N.3    23  GLY23      -0.1210
     27  CA        36.2610  -19.9760    9.6790 C.3    23  GLY23       0.1956
     28  C         35.4410  -18.7260    9.9690 C.2    23  GLY23       0.2613
     29  O         34.2280  -18.8290   10.2170 O.2    23  GLY23      -0.2717
     30  N         36.0900  -17.5550   10.0240 N.am   24  SER24      -0.1938
     31  CA        35.3590  -16.2710   10.0230 C.3    24  SER24       0.2055
     32  C         36.0220  -15.2870    9.1280 C.2    24  SER24       0.2642
     33  O         37.2000  -15.4460    8.7620 O.2    24  SER24      -0.2714
     34  CB        35.2260  -15.6170   11.4290 C.3    24  SER24       0.2130
     35  OG        36.5080  -15.3530   11.9720 O.3    24  SER24      -0.2179
     36  N         35.2490  -14.2850    8.7520 N.am   25  VAL25      -0.1977
     37  CA        35.7440  -13.2000    7.9590 C.3    25  VAL25       0.1596
     38  C         35.5670  -11.9210    8.7470 C.2    25  VAL25       0.2287
     39  O         34.4540  -11.6910    9.3360 O.2    25  VAL25      -0.2864
     40  CB        35.0600  -13.1790    6.6010 C.3    25  VAL25       0.0276
     41  CG1       35.5770  -12.0360    5.7660 C.3    25  VAL25       0.0022
     42  CG2       35.3200  -14.5300    5.9510 C.3    25  VAL25       0.0022
     43  N         39.2610   -7.5710    3.7470 N.3    42  ALA42      -0.1245
     44  CA        38.5370   -8.6200    4.4040 C.3    42  ALA42       0.1562
     45  C         39.5450   -9.7360    4.7040 C.2    42  ALA42       0.2260
     46  O         40.3650  -10.0940    3.8430 O.2    42  ALA42      -0.2867
     47  CB        37.4330   -9.1410    3.4510 C.3    42  ALA42       0.0290
     48  N         40.0140  -13.6460    6.0750 N.3    44  LYS44      -0.1245
     49  CA        39.5170  -14.9370    6.5010 C.3    44  LYS44       0.1561
     50  C         40.5140  -15.7290    7.3390 C.2    44  LYS44       0.2260
     51  O         41.7160  -15.8690    6.9850 O.2    44  LYS44      -0.2867
     52  CB        39.0660  -15.7760    5.2790 C.3    44  LYS44       0.0271
     53  CG        38.4190  -17.0930    5.7220 C.3    44  LYS44       0.0035
     54  CD        37.6850  -17.7750    4.5530 C.3    44  LYS44       0.0206
     55  CE        37.2300  -19.1610    5.0440 C.3    44  LYS44       0.1093
     56  NZ        36.4720  -19.9410    3.9880 N.3    44  LYS44      -0.1314
     57  N         35.8480  -13.0480   -6.1060 N.3    73  VAL73      -0.1245
     58  CA        36.4740  -12.0420   -5.1480 C.3    73  VAL73       0.1561
     59  C         38.0180  -12.0320   -5.3570 C.2    73  VAL73       0.2260
     60  O         38.6240  -13.1090   -5.5590 O.2    73  VAL73      -0.2867
     61  CB        36.0650  -12.3440   -3.7020 C.3    73  VAL73       0.0252
     62  CG1       36.5430  -13.7560   -3.1940 C.3    73  VAL73       0.0019
     63  CG2       36.4140  -11.1950   -2.7390 C.3    73  VAL73       0.0019
     64  N         41.7040  -10.5630    1.3710 N.3    91  MET91      -0.1230
     65  CA        40.9130  -10.4070    0.1340 C.3    91  MET91       0.1702
     66  C         40.3970   -8.9910    0.0560 C.2    91  MET91       0.2592
     67  O         40.3140   -8.2750    1.0850 O.2    91  MET91      -0.2718
     68  CB        39.6320  -11.2620    0.2450 C.3    91  MET91       0.0401
     69  CG        39.8110  -12.7110    0.2840 C.3    91  MET91       0.0596
     70  SD        38.0180  -13.1560    0.7460 S.3    91  MET91      -0.1393
     71  CE        38.2060  -13.5150    2.5300 C.3    91  MET91       0.0692
     72  N         39.9910   -8.5690   -1.1380 N.am   92  GLU92      -0.1966
     73  CA        39.3060   -7.2770   -1.2580 C.3    92  GLU92       0.1733
     74  C         38.0070   -7.2540   -0.3840 C.2    92  GLU92       0.2616
     75  O         37.3270   -8.2450   -0.2110 O.2    92  GLU92      -0.2715
     76  CB        39.0260   -6.8990   -2.7120 C.3    92  GLU92       0.0429
     77  CG        38.0760   -7.9690   -3.3540 C.3    92  GLU92       0.1163
     78  CD        37.6310   -7.6050   -4.7460 C.2    92  GLU92       0.3649
     79  OE1       37.8160   -6.4470   -5.2030 O.co2  92  GLU92      -0.2457
     80  OE2       37.0960   -8.4960   -5.4370 O.co2  92  GLU92      -0.2457
     81  N         37.7310   -6.0930    0.2240 N.am   93  TYR93      -0.1960
     82  CA        36.5190   -5.8470    0.9980 C.3    93  TYR93       0.1771
     83  C         35.4190   -5.3860    0.0380 C.2    93  TYR93       0.2619
     84  O         35.5860   -4.4120   -0.6800 O.2    93  TYR93      -0.2715
     85  CB        36.7710   -4.7310    2.0720 C.3    93  TYR93       0.0574
     86  CG        35.4760   -4.4330    2.8410 C.ar   93  TYR93      -0.0198
     87  CD1       34.9320   -5.3810    3.6960 C.ar   93  TYR93      -0.0009
     88  CD2       34.8460   -3.1810    2.7240 C.ar   93  TYR93      -0.0009
     89  CE1       33.7850   -5.0930    4.4410 C.ar   93  TYR93       0.0417
     90  CE2       33.6870   -2.9080    3.4490 C.ar   93  TYR93       0.0417
     91  CZ        33.1500   -3.8770    4.2510 C.ar   93  TYR93       0.1957
     92  OH        31.9680   -3.6580    4.9780 O.3    93  TYR93      -0.2866
     93  N         34.3180   -6.1330   -0.0310 N.am   94  LEU94      -0.1977
     94  CA        33.2490   -5.8170   -0.9870 C.3    94  LEU94       0.1596
     95  C         32.1240   -5.2600   -0.1340 C.2    94  LEU94       0.2287
     96  O         31.5200   -5.9770    0.6510 O.2    94  LEU94      -0.2864
     97  CB        32.7470   -7.0910   -1.6850 C.3    94  LEU94       0.0297
     98  CG        33.8640   -7.7070   -2.5810 C.3    94  LEU94       0.0022
     99  CD1       33.2920   -8.8380   -3.4490 C.3    94  LEU94       0.0001
    100  CD2       34.4150   -6.6220   -3.4660 C.3    94  LEU94       0.0001
    101  N         28.3930   -6.5870    1.0900 N.3    97  GLY97      -0.1210
    102  CA        28.2480   -7.7830    1.9460 C.3    97  GLY97       0.1956
    103  C         27.6880   -8.9540    1.1520 C.2    97  GLY97       0.2612
    104  O         27.8160   -8.9560   -0.0860 O.2    97  GLY97      -0.2717
    105  N         27.0880   -9.9130    1.8230 N.am   98  SER98      -0.1952
    106  CA        26.6420  -11.1160    1.0790 C.3    98  SER98       0.1924
    107  C         25.3800  -10.8340    0.2930 C.2    98  SER98       0.2314
    108  O         24.5750   -9.9780    0.6670 O.2    98  SER98      -0.2863
    109  CB        26.4430  -12.3250    1.9700 C.3    98  SER98       0.2116
    110  OG        25.2640  -12.2250    2.6880 O.3    98  SER98      -0.2180
    111  N         22.2570  -11.4620    2.3520 N.3   101  ASP101     -0.1239
    112  CA        21.9120  -10.2870    3.1930 C.3   101  ASP101      0.1674
    113  C         21.3440   -9.1080    2.4250 C.2   101  ASP101      0.2266
    114  O         20.3190   -8.5070    2.8190 O.2   101  ASP101     -0.2867
    115  CB        23.1710   -9.8230    3.9640 C.3   101  ASP101      0.1410
    116  CG        23.5140  -10.7390    5.0980 C.2   101  ASP101      0.3668
    117  OD1       22.7500  -11.6750    5.3560 O.co2 101  ASP101     -0.2456
    118  OD2       24.5650  -10.4950    5.7350 O.co2 101  ASP101     -0.2456
    119  N         24.4900  -17.2320    0.1020 N.3   142  ARG142     -0.1231
    120  CA        25.2720  -16.8300    1.2610 C.3   142  ARG142      0.1694
    121  C         26.8000  -16.7830    0.9470 C.2   142  ARG142      0.2592
    122  O         27.5890  -16.1340    1.6810 O.2   142  ARG142     -0.2718
    123  CB        25.0180  -17.7080    2.4680 C.3   142  ARG142      0.0321
    124  CG        25.4860  -19.0920    2.2580 C.3   142  ARG142      0.0489
    125  CD        25.2850  -19.9410    3.4860 C.3   142  ARG142      0.2205
    126  NE        25.3360  -21.3350    3.0360 N.pl3 142  ARG142     -0.0865
    127  CZ        26.4230  -22.0940    3.0180 C.cat 142  ARG142      0.5346
    128  NH1       27.5850  -21.6060    3.4630 N.pl3 142  ARG142      0.1354
    129  NH2       26.3500  -23.3500    2.5780 N.pl3 142  ARG142      0.1354
    130  N         27.1910  -17.3860   -0.1690 N.am  143  ASN143     -0.1974
    131  CA        28.5990  -17.3790   -0.5640 C.3   143  ASN143      0.1688
    132  C         28.9130  -16.4600   -1.6800 C.2   143  ASN143      0.2292
    133  O         29.9890  -16.5480   -2.2900 O.2   143  ASN143     -0.2864
    134  CB        29.0630  -18.7990   -0.8810 C.3   143  ASN143      0.1181
    135  CG        29.1370  -19.6460    0.3720 C.2   143  ASN143      0.2629
    136  OD1       29.6340  -19.1690    1.4270 O.2   143  ASN143     -0.2716
    137  ND2       28.5870  -20.8500    0.3160 N.am  143  ASN143     -0.0877
    138  N         29.0340  -12.4390   -2.9340 N.3   145  LEU145     -0.1245
    139  CA        29.2390  -11.0840   -2.3480 C.3   145  LEU145      0.1561
    140  C         28.8350   -9.9960   -3.3460 C.2   145  LEU145      0.2260
    141  O         28.9670  -10.1610   -4.5710 O.2   145  LEU145     -0.2867
    142  CB        30.7140  -10.8630   -1.9540 C.3   145  LEU145      0.0270
    143  CG        31.2550  -11.7350   -0.8260 C.3   145  LEU145      0.0019
    144  CD1       32.8060  -11.6170   -0.6870 C.3   145  LEU145      0.0001
    145  CD2       30.5070  -11.3890    0.4860 C.3   145  LEU145      0.0001
    146  N         32.2450  -15.5050   -3.4680 N.3   155  GLY155     -0.1210
    147  CA        33.0630  -14.8140   -2.4420 C.3   155  GLY155      0.1956
    148  C         33.7500  -15.7400   -1.4510 C.2   155  GLY155      0.2611
    149  O         34.4690  -15.2680   -0.5170 O.2   155  GLY155     -0.2717
    150  N         33.4970  -17.0340   -1.5700 N.am  156  ASP156     -0.1973
    151  CA        34.0900  -18.0290   -0.6470 C.3   156  ASP156      0.1709
    152  C         34.3010  -19.3510   -1.3380 C.2   156  ASP156      0.2293
    153  O         33.4310  -19.7530   -2.1140 O.2   156  ASP156     -0.2864
    154  CB        33.1440  -18.2890    0.5610 C.3   156  ASP156      0.1436
    155  CG        33.8010  -19.1520    1.6360 C.2   156  ASP156      0.3671
    156  OD1       34.5950  -18.6240    2.4600 O.co2 156  ASP156     -0.2456
    157  OD2       33.5720  -20.3600    1.7000 O.co2 156  ASP156     -0.2456
@<TRIPOS>BOND
     1    57    58    1
     2    60    59    2
     3    80    78   ar
     4    59    58    1
     5    79    78   ar
     6    58    61    1
     7    78    77    1
     8   141   140    2
     9    61    62    1
    10    61    63    1
    11   146   147    1
    12   100    98    1
    13    99    98    1
    14    77    76    1
    15   140   139    1
    16   138   139    1
    17    76    73    1
    18    98    97    1
    19   147   148    1
    20   139   142    1
    21   133   132    2
    22   153   152    2
    23   142   143    1
    24    97    94    1
    25   132   131    1
    26   150   148   am
    27   150   151    1
    28   148   149    2
    29   152   151    1
    30    73    72    1
    31    73    74    1
    32    72    66   am
    33    94    95    1
    34    94    93    1
    35   134   131    1
    36   134   135    1
    37   143   144    1
    38   143   145    1
    39    84    83    2
    40   151   154    1
    41   131   130    1
    42    74    75    2
    43    74    81   am
    44   130   121   am
    45    95    96    2
    46   104   103    2
    47    93    83   am
    48    83    82    1
    49    66    65    1
    50    66    67    2
    51   119   120    1
    52    65    68    1
    53    65    64    1
    54    81    82    1
    55    68    69    1
    56    69    70    1
    57   107   108    2
    58   107   106    1
    59   137   135   am
    60   135   136    2
    61   154   155    1
    62    70    71    1
    63   121   120    1
    64   121   122    2
    65    82    85    1
    66   106   105    1
    67   106   109    1
    68   101   102    1
    69   103   105   am
    70   103   102    1
    71   120   123    1
    72   155   157   ar
    73   155   156   ar
    74   109   110    1
    75    85    86    1
    76   124   123    1
    77   124   125    1
    78   111   112    1
    79   113   114    2
    80   113   112    1
    81   129   127    1
    82    88    86   ar
    83    88    90   ar
    84    86    87   ar
    85   127   126    2
    86   127   128    1
    87   126   125    1
    88   112   115    1
    89    90    91   ar
    90    47    44    1
    91    87    89   ar
    92    43    44    1
    93    46    45    2
    94   115   116    1
    95    56    55    1
    96    91    89   ar
    97    91    92    1
    98    44    45    1
    99    54    55    1
   100    54    53    1
   101   116   117   ar
   102   116   118   ar
   103    52    53    1
   104    52    49    1
   105    41    40    1
   106    42    40    1
   107    48    49    1
   108     7     6    1
   109    49    50    1
   110    40    37    1
   111    51    50    2
   112     8     6    1
   113     6     5    1
   114     5     2    1
   115    37    38    1
   116    37    36    1
   117     4     3    2
   118     3     2    1
   119     3     9   am
   120    38    39    2
   121    36    32   am
   122    33    32    2
   123     2     1    1
   124    10     9    1
   125    10    11    1
   126    32    31    1
   127    23    22    1
   128    23    24    1
   129    11    12    2
   130    11    13   am
   131    27    26    1
   132    27    28    1
   133    22    15   am
   134    16    15    2
   135    28    30   am
   136    28    29    2
   137    13    14    1
   138    31    30    1
   139    31    34    1
   140    15    14    1
   141    24    25    2
   142    14    17    1
   143    34    35    1
   144    17    18    1
   145    18    19    1
   146    19    20    1
   147    20    21    1
