@<TRIPOS>MOLECULE
tmp/4d0zB00.pdb
 162 161 0 0 0
SMALL
GASTEIGER

@<TRIPOS>ATOM
      1  N          9.1550  -26.9780    2.9690 N.3   178  ILE178     -0.1231
      2  CA         9.8490  -26.3120    1.8840 C.3   178  ILE178      0.1692
      3  C         10.6710  -25.1730    2.4860 C.2   178  ILE178      0.2591
      4  O         10.1980  -24.3840    3.3300 O.2   178  ILE178     -0.2718
      5  CB         8.8850  -25.8030    0.8100 C.3   178  ILE178      0.0266
      6  CG1        8.3940  -26.9880    0.0440 C.3   178  ILE178      0.0019
      7  CG2        9.6070  -24.8140   -0.1120 C.3   178  ILE178      0.0020
      8  CD1        7.3630  -26.6170   -0.9970 C.3   178  ILE178      0.0001
      9  N         11.9470  -25.1380    2.1320 N.am  179  ILE179     -0.1980
     10  CA        12.8690  -24.1860    2.7320 C.3   179  ILE179      0.1595
     11  C         12.9950  -22.9610    1.7940 C.2   179  ILE179      0.2287
     12  O         13.6180  -23.0540    0.7710 O.2   179  ILE179     -0.2864
     13  CB        14.2250  -24.8260    2.9600 C.3   179  ILE179      0.0276
     14  CG1       14.0290  -26.1300    3.7760 C.3   179  ILE179      0.0022
     15  CG2       15.1100  -23.8450    3.6960 C.3   179  ILE179      0.0022
     16  CD1       15.3020  -26.8860    4.0810 C.3   179  ILE179      0.0001
     17  N         14.2100  -19.0980    0.7100 N.3   181  VAL181     -0.1245
     18  CA        15.5640  -18.5320    0.6950 C.3   181  VAL181      0.1561
     19  C         15.5340  -17.1260    1.3020 C.2   181  VAL181      0.2260
     20  O         14.7630  -16.2660    0.8520 O.2   181  VAL181     -0.2867
     21  CB        16.0770  -18.4070   -0.7260 C.3   181  VAL181      0.0252
     22  CG1       17.4400  -17.7390   -0.7850 C.3   181  VAL181      0.0019
     23  CG2       16.1710  -19.7780   -1.3610 C.3   181  VAL181      0.0019
     24  N         10.7190  -20.4250   -2.4810 N.3   192  ALA192     -0.1231
     25  CA        11.4270  -21.4490   -3.2100 C.3   192  ALA192      0.1694
     26  C         10.4970  -22.2080   -4.1200 C.2   192  ALA192      0.2592
     27  O          9.2830  -22.0520   -4.0400 O.2   192  ALA192     -0.2718
     28  CB        12.1210  -22.4070   -2.2550 C.3   192  ALA192      0.0304
     29  N         11.0830  -23.0100   -5.0180 N.am  193  SER193     -0.1952
     30  CA        10.3020  -23.9250   -5.8540 C.3   193  SER193      0.1924
     31  C          9.7870  -25.0960   -4.9820 C.2   193  SER193      0.2314
     32  O         10.5050  -25.5930   -4.1270 O.2   193  SER193     -0.2863
     33  CB        11.2060  -24.5270   -6.9590 C.3   193  SER193      0.2116
     34  OG        10.5640  -25.6100   -7.6540 O.3   193  SER193     -0.2180
     35  N         10.9600  -29.5970   -6.0320 N.3   196  LEU196     -0.1245
     36  CA        12.2750  -30.1330   -5.7320 C.3   196  LEU196      0.1561
     37  C         12.2170  -31.3000   -4.7460 C.2   196  LEU196      0.2260
     38  O         11.2950  -31.3660   -3.9600 O.2   196  LEU196     -0.2867
     39  CB        13.1650  -29.0640   -5.1400 C.3   196  LEU196      0.0270
     40  CG        13.4050  -27.8750   -6.0490 C.3   196  LEU196      0.0019
     41  CD1       14.2430  -26.8340   -5.2990 C.3   196  LEU196      0.0001
     42  CD2       14.0920  -28.2510   -7.3570 C.3   196  LEU196      0.0001
     43  N         27.5720  -35.3720   -1.3710 N.3   205  VAL205     -0.1231
     44  CA        27.2680  -33.9850   -1.0260 C.3   205  VAL205      0.1692
     45  C         25.8130  -33.7360   -1.3700 C.2   205  VAL205      0.2592
     46  O         25.3650  -34.0540   -2.4730 O.2   205  VAL205     -0.2718
     47  CB        28.2010  -32.9890   -1.7770 C.3   205  VAL205      0.0266
     48  CG1       27.8030  -31.5320   -1.5280 C.3   205  VAL205      0.0020
     49  CG2       29.6320  -33.1980   -1.3080 C.3   205  VAL205      0.0020
     50  N         25.0530  -33.1770   -0.4280 N.am  206  PHE206     -0.1962
     51  CA        23.6400  -32.9160   -0.6500 C.3   206  PHE206      0.1771
     52  C         23.4120  -32.0110   -1.8790 C.2   206  PHE206      0.2619
     53  O         24.1390  -31.0500   -2.0530 O.2   206  PHE206     -0.2715
     54  CB        23.0490  -32.2100    0.5400 C.3   206  PHE206      0.0574
     55  CG        21.5890  -31.8860    0.3740 C.ar  206  PHE206     -0.0200
     56  CD1       20.6260  -32.8490    0.5590 C.ar  206  PHE206     -0.0042
     57  CD2       21.1960  -30.6230   -0.0150 C.ar  206  PHE206     -0.0042
     58  CE1       19.2940  -32.5570    0.3920 C.ar  206  PHE206     -0.0003
     59  CE2       19.8590  -30.3120   -0.1900 C.ar  206  PHE206     -0.0003
     60  CZ        18.9000  -31.2790   -0.0030 C.ar  206  PHE206     -0.0000
     61  N         22.3970  -32.2960   -2.6620 N.am  207  LYS207     -0.1963
     62  CA        21.9620  -31.3730   -3.7740 C.3   207  LYS207      0.1728
     63  C         20.4590  -31.4650   -3.9920 C.2   207  LYS207      0.2616
     64  O         19.8260  -32.4510   -3.5800 O.2   207  LYS207     -0.2715
     65  CB        22.7050  -31.7020   -5.0300 C.3   207  LYS207      0.0311
     66  CG        22.1460  -32.9140   -5.7560 C.3   207  LYS207      0.0038
     67  CD        23.0580  -33.2950   -6.9110 C.3   207  LYS207      0.0206
     68  CE        22.3280  -33.6440   -8.2150 C.3   207  LYS207      0.1093
     69  NZ        21.8530  -35.0580   -8.2730 N.3   207  LYS207     -0.1314
     70  N         19.8580  -30.4080   -4.5340 N.am  208  TRP208     -0.1974
     71  CA        18.4420  -30.4170   -4.9040 C.3   208  TRP208      0.1640
     72  C         18.2600  -30.9980   -6.3000 C.2   208  TRP208      0.2290
     73  O         19.0130  -30.6550   -7.1810 O.2   208  TRP208     -0.2864
     74  CB        17.9010  -29.0030   -4.8700 C.3   208  TRP208      0.0576
     75  CG        17.9690  -28.3960   -3.5240 C.ar  208  TRP208      0.0006
     76  CD1       18.8270  -27.4170   -3.1040 C.ar  208  TRP208      0.0946
     77  CD2       17.0990  -28.6680   -2.4140 C.ar  208  TRP208      0.0152
     78  NE1       18.5550  -27.0960   -1.7850 N.ar  208  TRP208     -0.2442
     79  CE2       17.4980  -27.8380   -1.3500 C.ar  208  TRP208      0.0810
     80  CE3       16.0490  -29.5480   -2.2170 C.ar  208  TRP208      0.0012
     81  CZ2       16.9010  -27.8740   -0.1220 C.ar  208  TRP208      0.0191
     82  CZ3       15.4440  -29.5810   -0.9760 C.ar  208  TRP208      0.0001
     83  CH2       15.8610  -28.7420    0.0480 C.ar  208  TRP208      0.0015
     84  N         17.4950  -32.0090    3.6900 N.3   233  ALA233     -0.1245
     85  CA        18.5880  -31.0610    3.7060 C.3   233  ALA233      0.1562
     86  C         19.3200  -31.1720    5.0400 C.2   233  ALA233      0.2260
     87  O         20.5490  -31.0620    5.0960 O.2   233  ALA233     -0.2867
     88  CB        18.0640  -29.6590    3.4700 C.3   233  ALA233      0.0290
     89  N         30.1920  -30.3430   11.6200 N.3   257  TRP257     -0.1241
     90  CA        29.2260  -30.1030   10.5250 C.3   257  TRP257      0.1605
     91  C         29.4910  -31.1560    9.4480 C.2   257  TRP257      0.2264
     92  O         30.6460  -31.5090    9.2380 O.2   257  TRP257     -0.2867
     93  CB        29.4190  -28.6840    9.9210 C.3   257  TRP257      0.0550
     94  CG        28.5910  -28.3410    8.7260 C.ar  257  TRP257      0.0003
     95  CD1       27.4120  -27.6080    8.6920 C.ar  257  TRP257      0.0946
     96  CD2       28.9060  -28.6300    7.3390 C.ar  257  TRP257      0.0152
     97  NE1       26.9770  -27.4690    7.3850 N.ar  257  TRP257     -0.2442
     98  CE2       27.8700  -28.0810    6.5380 C.ar  257  TRP257      0.0810
     99  CE3       29.9550  -29.2890    6.7170 C.ar  257  TRP257      0.0012
    100  CZ2       27.8630  -28.1870    5.1370 C.ar  257  TRP257      0.0191
    101  CZ3       29.9470  -29.4070    5.3140 C.ar  257  TRP257      0.0001
    102  CH2       28.9000  -28.8730    4.5520 C.ar  257  TRP257      0.0015
    103  N         15.3820  -19.7090    5.2560 N.3   285  HIS285     -0.1241
    104  CA        16.7040  -19.9740    5.7650 C.3   285  HIS285      0.1621
    105  C         17.7500  -19.1380    5.0510 C.2   285  HIS285      0.2264
    106  O         17.7080  -18.9740    3.8050 O.2   285  HIS285     -0.2867
    107  CB        16.9840  -21.4430    5.5430 C.3   285  HIS285      0.0745
    108  CG        18.3990  -21.8480    5.7920 C.ar  285  HIS285      0.0817
    109  ND1       19.2950  -22.0730    4.7770 N.ar  285  HIS285     -0.2268
    110  CD2       19.0610  -22.1080    6.9390 C.ar  285  HIS285      0.1154
    111  CE1       20.4660  -22.4160    5.2790 C.ar  285  HIS285      0.1986
    112  NE2       20.3430  -22.4640    6.5970 N.ar  285  HIS285     -0.2212
    113  N         20.7650  -19.1030    3.3880 N.3   287  PHE287     -0.1227
    114  CA        21.7790  -19.8880    2.7120 C.3   287  PHE287      0.1736
    115  C         23.0310  -19.0460    2.4620 C.2   287  PHE287      0.2595
    116  O         22.9570  -17.8930    2.0050 O.2   287  PHE287     -0.2718
    117  CB        21.2570  -20.3890    1.3710 C.3   287  PHE287      0.0547
    118  CG        20.1830  -21.4320    1.5090 C.ar  287  PHE287     -0.0202
    119  CD1       20.5160  -22.7790    1.5830 C.ar  287  PHE287     -0.0042
    120  CD2       18.8420  -21.0620    1.5620 C.ar  287  PHE287     -0.0042
    121  CE1       19.5470  -23.7220    1.7080 C.ar  287  PHE287     -0.0003
    122  CE2       17.8510  -22.0240    1.6360 C.ar  287  PHE287     -0.0003
    123  CZ        18.2090  -23.3480    1.7070 C.ar  287  PHE287     -0.0000
    124  N         24.1890  -19.6110    2.7680 N.am  288  ARG288     -0.1966
    125  CA        25.4210  -18.8750    2.5390 C.3   288  ARG288      0.1729
    126  C         26.4020  -19.7410    1.7840 C.2   288  ARG288      0.2616
    127  O         26.1290  -20.9080    1.5240 O.2   288  ARG288     -0.2715
    128  CB        25.9750  -18.2380    3.8380 C.3   288  ARG288      0.0348
    129  CG        26.2230  -19.1810    4.9620 C.3   288  ARG288      0.0492
    130  CD        26.4040  -18.4570    6.3130 C.3   288  ARG288      0.2205
    131  NE        26.2900  -19.4800    7.3640 N.pl3 288  ARG288     -0.0865
    132  CZ        26.2500  -19.2420    8.6550 C.cat 288  ARG288      0.5346
    133  NH1       26.3210  -18.0170    9.1230 N.pl3 288  ARG288      0.1354
    134  NH2       26.1880  -20.2630    9.4940 N.pl3 288  ARG288      0.1354
    135  N         27.4860  -19.1330    1.3430 N.am  289  LYS289     -0.1963
    136  CA        28.4570  -19.8050    0.4540 C.3   289  LYS289      0.1728
    137  C         29.6780  -20.2930    1.1870 C.2   289  LYS289      0.2616
    138  O         30.3160  -21.1830    0.7210 O.2   289  LYS289     -0.2715
    139  CB        28.8660  -18.8450   -0.6800 C.3   289  LYS289      0.0311
    140  CG        27.6660  -18.2830   -1.4270 C.3   289  LYS289      0.0038
    141  CD        28.0130  -17.4850   -2.6810 C.3   289  LYS289      0.0206
    142  CE        28.4580  -16.0630   -2.3460 C.3   289  LYS289      0.1093
    143  NZ        28.1320  -15.1120   -3.4450 N.3   289  LYS289     -0.1314
    144  N         29.9740  -19.7170    2.3610 N.am  290  GLN290     -0.1963
    145  CA        31.0880  -20.1360    3.2020 C.3   290  GLN290      0.1733
    146  C         30.6750  -20.3280    4.6770 C.2   290  GLN290      0.2616
    147  O         29.7630  -19.6330    5.1880 O.2   290  GLN290     -0.2715
    148  CB        32.1860  -19.0820    3.1480 C.3   290  GLN290      0.0408
    149  CG        32.8240  -18.9440    1.7780 C.3   290  GLN290      0.0908
    150  CD        33.9210  -17.9060    1.7570 C.2   290  GLN290      0.2608
    151  OE1       35.1080  -18.2410    1.6480 O.2   290  GLN290     -0.2717
    152  NE2       33.5400  -16.6360    1.9070 N.am  290  GLN290     -0.0878
    153  N         31.3840  -21.2250    5.3680 N.am  291  HIS291     -0.1973
    154  CA        31.2260  -21.3850    6.8080 C.3   291  HIS291      0.1656
    155  C         31.9250  -20.2270    7.4890 C.2   291  HIS291      0.2291
    156  O         33.0150  -19.9020    7.1170 O.2   291  HIS291     -0.2864
    157  CB        31.8810  -22.6740    7.2840 C.3   291  HIS291      0.0771
    158  CG        31.3820  -23.8780    6.5880 C.ar  291  HIS291      0.0820
    159  ND1       30.1070  -24.3690    6.7830 N.ar  291  HIS291     -0.2267
    160  CD2       31.9790  -24.7030    5.7020 C.ar  291  HIS291      0.1154
    161  CE1       29.9400  -25.4450    6.0390 C.ar  291  HIS291      0.1986
    162  NE2       31.0590  -25.6670    5.3720 N.ar  291  HIS291     -0.2212
@<TRIPOS>BOND
     1    69    68    1
     2    68    67    1
     3    34    33    1
     4    42    40    1
     5    73    72    2
     6    33    30    1
     7    67    66    1
     8    72    71    1
     9    40    41    1
    10    40    39    1
    11    35    36    1
    12    30    29    1
    13    30    31    1
    14    66    65    1
    15    36    39    1
    16    36    37    1
    17    65    62    1
    18    29    26   am
    19    31    32    2
    20    71    74    1
    21    71    70    1
    22    74    75    1
    23    37    38    2
    24    70    63   am
    25    26    27    2
    26    26    25    1
    27    63    62    1
    28    63    64    2
    29    62    61    1
    30    75    76   ar
    31    75    77   ar
    32   143   142    1
    33    25    24    1
    34    25    28    1
    35    76    78   ar
    36   141   142    1
    37   141   140    1
    38    61    52   am
    39    46    45    2
    40    77    80   ar
    41    77    79   ar
    42    80    82   ar
    43    53    52    2
    44    52    51    1
    45    78    79   ar
    46    47    48    1
    47    47    49    1
    48    47    44    1
    49   140   139    1
    50    43    44    1
    51    45    44    1
    52    45    50   am
    53    23    21    1
    54    79    81   ar
    55     8     6    1
    56    82    83   ar
    57    22    21    1
    58    21    18    1
    59   139   136    1
    60    51    50    1
    61    51    54    1
    62    59    57   ar
    63    59    60   ar
    64    81    83   ar
    65     7     5    1
    66    57    55   ar
    67    60    58   ar
    68     6     5    1
    69    55    54    1
    70    55    56   ar
    71    58    56   ar
    72   136   137    1
    73   136   135    1
    74    18    17    1
    75    18    19    1
    76   138   137    2
    77    12    11    2
    78     5     2    1
    79    20    19    2
    80   137   144   am
    81   135   126   am
    82   117   118    1
    83   117   114    1
    84   118   120   ar
    85   118   119   ar
    86   127   126    2
    87   120   122   ar
    88   119   121   ar
    89   122   123   ar
    90   151   150    2
    91   123   121   ar
    92   150   149    1
    93   150   152   am
    94   149   148    1
    95   126   125    1
    96    11    10    1
    97     2     3    1
    98     2     1    1
    99   116   115    2
   100     9     3   am
   101     9    10    1
   102   144   145    1
   103   115   114    1
   104   115   124   am
   105     3     4    2
   106   125   124    1
   107   125   128    1
   108   114   113    1
   109    10    13    1
   110    13    15    1
   111    13    14    1
   112   148   145    1
   113   145   146    1
   114    88    85    1
   115    84    85    1
   116    85    86    1
   117    14    16    1
   118   106   105    2
   119   128   129    1
   120   102   100   ar
   121   102   101   ar
   122   146   147    2
   123   146   153   am
   124   109   111   ar
   125   109   108   ar
   126   129   130    1
   127    86    87    2
   128   105   104    1
   129   100    98   ar
   130   103   104    1
   131   111   112   ar
   132   101    99   ar
   133   153   154    1
   134   162   160   ar
   135   162   161   ar
   136   107   104    1
   137   107   108    1
   138   160   158   ar
   139   108   110   ar
   140   161   159   ar
   141   130   131    1
   142    98    96   ar
   143    98    97   ar
   144   158   159   ar
   145   158   157    1
   146   112   110   ar
   147    99    96   ar
   148   154   157    1
   149   154   155    1
   150   156   155    2
   151    96    94   ar
   152   131   132    2
   153    97    95   ar
   154   132   133    1
   155   132   134    1
   156    95    94   ar
   157    94    93    1
   158    92    91    2
   159    91    90    1
   160    93    90    1
   161    90    89    1
