@<TRIPOS>MOLECULE
tmp/4d19A00.pdb
 82 76 0 0 0
SMALL
GASTEIGER

@<TRIPOS>ATOM
      1  N         25.1210   21.9550   39.1070 N.3   159  PHE159     -0.1241
      2  CA        26.2490   21.9890   38.1930 C.3   159  PHE159      0.1605
      3  C         26.7440   20.5630   37.9390 C.2   159  PHE159      0.2264
      4  O         27.4500   19.9670   38.7530 O.2   159  PHE159     -0.2867
      5  CB        27.3720   22.8980   38.6960 C.3   159  PHE159      0.0534
      6  CG        28.4170   23.1820   37.6460 C.ar  159  PHE159     -0.0203
      7  CD1       28.0620   23.8110   36.4650 C.ar  159  PHE159     -0.0042
      8  CD2       29.7360   22.8080   37.8200 C.ar  159  PHE159     -0.0042
      9  CE1       29.0030   24.0640   35.4900 C.ar  159  PHE159     -0.0003
     10  CE2       30.6830   23.0430   36.8490 C.ar  159  PHE159     -0.0003
     11  CZ        30.3160   23.6770   35.6800 C.ar  159  PHE159     -0.0000
     12  N         36.1520   17.8500   40.8470 N.3   170  LEU170     -0.1245
     13  CA        34.8680   18.3670   41.2910 C.3   170  LEU170      0.1561
     14  C         33.7440   17.3520   41.1070 C.2   170  LEU170      0.2260
     15  O         33.5550   16.8060   40.0170 O.2   170  LEU170     -0.2867
     16  CB        34.5300   19.6190   40.4910 C.3   170  LEU170      0.0270
     17  CG        33.2370   20.3380   40.8710 C.3   170  LEU170      0.0019
     18  CD1       33.3040   20.9120   42.2750 C.3   170  LEU170      0.0001
     19  CD2       32.9730   21.4480   39.8560 C.3   170  LEU170      0.0001
     20  N         23.0650   22.8620   45.0500 N.3   176  ARG176     -0.1245
     21  CA        24.1390   23.6110   45.6830 C.3   176  ARG176      0.1563
     22  C         23.6540   25.0260   45.9790 C.2   176  ARG176      0.2260
     23  O         22.5920   25.4610   45.5170 O.2   176  ARG176     -0.2867
     24  CB        25.3970   23.6690   44.8060 C.3   176  ARG176      0.0307
     25  CG        25.2060   24.4690   43.5260 C.3   176  ARG176      0.0489
     26  CD        26.4420   24.5770   42.6750 C.3   176  ARG176      0.2205
     27  NE        26.1920   25.4670   41.5500 N.pl3 176  ARG176     -0.0865
     28  CZ        27.1020   25.8770   40.6730 C.cat 176  ARG176      0.5346
     29  NH1       28.3440   25.4470   40.7220 N.pl3 176  ARG176      0.1354
     30  NH2       26.7670   26.7570   39.7440 N.pl3 176  ARG176      0.1354
     31  N         23.9240   26.4260   35.5210 N.3   226  SER226     -0.1202
     32  CA        25.2710   26.9750   35.6370 C.3   226  SER226      0.2020
     33  C         25.1170   28.4890   35.7460 C.2   226  SER226      0.2619
     34  O         24.0690   29.0440   35.3830 O.2   226  SER226     -0.2717
     35  CB        26.1230   26.7000   34.3930 C.3   226  SER226      0.2103
     36  OG        25.5820   27.3570   33.2500 O.3   226  SER226     -0.2182
     37  N         26.1750   29.1610   36.1890 N.am  227  VAL227     -0.1965
     38  CA        26.1670   30.6110   36.1700 C.3   227  VAL227      0.1727
     39  C         26.0000   31.1230   34.7240 C.2   227  VAL227      0.2616
     40  O         25.2270   32.0470   34.4540 O.2   227  VAL227     -0.2715
     41  CB        27.4510   31.1550   36.8100 C.3   227  VAL227      0.0290
     42  CG1       27.5110   32.6740   36.7020 C.3   227  VAL227      0.0023
     43  CG2       27.5190   30.7520   38.2880 C.3   227  VAL227      0.0023
     44  N         26.7090   30.4830   33.8000 N.am  228  GLN228     -0.1977
     45  CA        26.6480   30.8050   32.3720 C.3   228  GLN228      0.1601
     46  C         25.1990   30.8430   31.8720 C.2   228  GLN228      0.2287
     47  O         24.7710   31.8040   31.2220 O.2   228  GLN228     -0.2864
     48  CB        27.4360   29.7610   31.5810 C.3   228  GLN228      0.0394
     49  CG        28.9540   29.7950   31.7190 C.3   228  GLN228      0.0908
     50  CD        29.5550   29.0330   32.9030 C.2   228  GLN228      0.2608
     51  OE1       28.9110   28.7840   33.9210 O.2   228  GLN228     -0.2717
     52  NE2       30.8200   28.6860   32.7680 N.am  228  GLN228     -0.0878
     53  N         31.6120   33.3330   41.1470 N.3   254  ASN254     -0.1240
     54  CA        30.9300   32.2280   41.8090 C.3   254  ASN254      0.1653
     55  C         31.5740   32.1300   43.1890 C.2   254  ASN254      0.2266
     56  O         32.7160   31.6800   43.3230 O.2   254  ASN254     -0.2867
     57  CB        31.0950   30.9430   41.0080 C.3   254  ASN254      0.1155
     58  CG        30.1740   29.8390   41.4570 C.2   254  ASN254      0.2627
     59  OD1       29.4030   29.9940   42.4030 O.2   254  ASN254     -0.2716
     60  ND2       30.2380   28.7100   40.7610 N.am  254  ASN254     -0.0877
     61  N         32.0430   30.5890   46.3620 N.3   256  HIS256     -0.1241
     62  CA        31.7590   29.2020   46.7140 C.3   256  HIS256      0.1621
     63  C         31.4680   29.0270   48.1950 C.2   256  HIS256      0.2264
     64  O         32.0980   29.6480   49.0510 O.2   256  HIS256     -0.2867
     65  CB        32.9470   28.3170   46.3340 C.3   256  HIS256      0.0745
     66  CG        33.3630   28.4510   44.9020 C.ar  256  HIS256      0.0817
     67  ND1       32.5730   28.0560   43.8500 N.ar  256  HIS256     -0.2268
     68  CD2       34.4950   28.9510   44.3530 C.ar  256  HIS256      0.1154
     69  CE1       33.2010   28.3160   42.7130 C.ar  256  HIS256      0.1986
     70  NE2       34.3730   28.8590   42.9940 N.ar  256  HIS256     -0.2212
     71  N         35.2770   31.2210   41.0920 N.3   286  GLY286     -0.1225
     72  CA        34.9740   31.2440   39.6850 C.3   286  GLY286      0.1811
     73  C         34.6670   32.6640   39.2700 C.2   286  GLY286      0.2280
     74  O         34.1690   33.4730   40.0580 O.2   286  GLY286     -0.2866
     75  N         32.8350   34.3940   35.7840 N.3   288  ILE288     -0.1245
     76  CA        32.0970   34.0170   34.5870 C.3   288  ILE288      0.1561
     77  C         31.6430   35.3140   33.9160 C.2   288  ILE288      0.2260
     78  O         31.0330   36.1670   34.5770 O.2   288  ILE288     -0.2867
     79  CB        30.8790   33.1430   34.9210 C.3   288  ILE288      0.0252
     80  CG1       31.2020   32.0910   36.0100 C.3   288  ILE288      0.0019
     81  CG2       30.3430   32.4950   33.6530 C.3   288  ILE288      0.0019
     82  CD1       32.2020   31.0150   35.6360 C.3   288  ILE288      0.0001
@<TRIPOS>BOND
     1    47    46    2
     2    48    49    1
     3    48    45    1
     4    49    50    1
     5    46    45    1
     6    45    44    1
     7    52    50   am
     8    50    51    2
     9    36    35    1
    10    81    79    1
    11    44    39   am
    12    77    78    2
    13    77    76    1
    14    35    32    1
    15    40    39    2
    16    76    79    1
    17    76    75    1
    18    39    38    1
    19    79    80    1
    20    34    33    2
    21     9    11   ar
    22     9     7   ar
    23    31    32    1
    24    82    80    1
    25    32    33    1
    26    11    10   ar
    27    33    37   am
    28    38    37    1
    29    38    41    1
    30     7     6   ar
    31    42    41    1
    32    41    43    1
    33    10     8   ar
    34     6     8   ar
    35     6     5    1
    36     3     2    1
    37     3     4    2
    38     2     5    1
    39     2     1    1
    40    73    72    1
    41    73    74    2
    42    72    71    1
    43    30    28    1
    44    19    17    1
    45    15    14    2
    46    16    17    1
    47    16    13    1
    48    28    29    1
    49    28    27    2
    50    60    58   am
    51    12    13    1
    52    17    18    1
    53    57    58    1
    54    57    54    1
    55    14    13    1
    56    53    54    1
    57    58    59    2
    58    27    26    1
    59    54    55    1
    60    26    25    1
    61    69    70   ar
    62    69    67   ar
    63    70    68   ar
    64    55    56    2
    65    25    24    1
    66    67    66   ar
    67    68    66   ar
    68    24    21    1
    69    66    65    1
    70    20    21    1
    71    23    22    2
    72    21    22    1
    73    65    62    1
    74    61    62    1
    75    62    63    1
    76    63    64    2
