@<TRIPOS>MOLECULE
tmp/4d1aA00.pdb
 154 145 0 0 0
SMALL
GASTEIGER

@<TRIPOS>ATOM
      1  N         -3.4860   13.6000   32.5140 N.3    30  ALA30      -0.1245
      2  CA        -3.1030   12.2100   32.7490 C.3    30  ALA30       0.1562
      3  C         -4.0760   11.2430   32.0900 C.2    30  ALA30       0.2260
      4  O         -3.7140   10.1150   31.7570 O.2    30  ALA30      -0.2867
      5  CB        -3.0150   11.9300   34.2420 C.3    30  ALA30       0.0290
      6  N         -5.4010    9.8300   29.2520 N.3    32  GLN32      -0.1245
      7  CA        -5.1060    9.7200   27.8290 C.3    32  GLN32       0.1566
      8  C         -4.7190    8.2960   27.4330 C.2    32  GLN32       0.2260
      9  O         -3.9910    7.6140   28.1550 O.2    32  GLN32      -0.2867
     10  CB        -3.9980   10.7040   27.4450 C.3    32  GLN32       0.0367
     11  CG        -2.7680   10.6390   28.3310 C.3    32  GLN32       0.0905
     12  CD        -1.6980    9.7450   27.7530 C.2    32  GLN32       0.2608
     13  OE1       -1.6630    9.5120   26.5460 O.2    32  GLN32      -0.2717
     14  NE2       -0.8190    9.2370   28.6080 N.am   32  GLN32      -0.0878
     15  N         -2.6690    6.4050   25.9450 N.3    34  ALA34      -0.1231
     16  CA        -1.3760    5.7320   26.0680 C.3    34  ALA34       0.1694
     17  C         -1.2260    4.8920   27.3380 C.2    34  ALA34       0.2591
     18  O         -0.6120    3.8270   27.3060 O.2    34  ALA34      -0.2718
     19  CB        -0.2550    6.7520   25.9880 C.3    34  ALA34       0.0304
     20  N         -1.7890    5.3590   28.4480 N.am   35  ILE35      -0.1980
     21  CA        -1.6440    4.6350   29.7060 C.3    35  ILE35       0.1595
     22  C         -2.4880    3.3570   29.7170 C.2    35  ILE35       0.2287
     23  O         -2.2000    2.4270   30.4750 O.2    35  ILE35      -0.2864
     24  CB        -2.0120    5.5110   30.9220 C.3    35  ILE35       0.0276
     25  CG1       -1.5540    4.8320   32.2160 C.3    35  ILE35       0.0022
     26  CG2       -3.5040    5.8070   30.9440 C.3    35  ILE35       0.0022
     27  CD1       -1.6500    5.7000   33.4290 C.3    35  ILE35       0.0001
     28  N          0.1550    0.9900   28.2130 N.3    38  ALA38      -0.1245
     29  CA         1.2500    0.7240   29.1320 C.3    38  ALA38       0.1562
     30  C          0.7800   -0.1850   30.2530 C.2    38  ALA38       0.2260
     31  O          1.3880   -1.2170   30.5060 O.2    38  ALA38      -0.2867
     32  CB         1.8030    2.0130   29.6900 C.3    38  ALA38       0.0290
     33  N          5.5140   12.5220   20.4530 N.3   107  TRP107     -0.1241
     34  CA         4.2660   12.2650   21.1640 C.3   107  TRP107      0.1605
     35  C          3.0890   13.0150   20.5440 C.2   107  TRP107      0.2264
     36  O          1.9540   12.5400   20.5780 O.2   107  TRP107     -0.2867
     37  CB         4.3940   12.6450   22.6380 C.3   107  TRP107      0.0550
     38  CG         5.1620   11.6640   23.4550 C.ar  107  TRP107      0.0003
     39  CD1        6.3570   11.8750   24.0760 C.ar  107  TRP107      0.0946
     40  CD2        4.7910   10.3110   23.7440 C.ar  107  TRP107      0.0152
     41  NE1        6.7540   10.7380   24.7370 N.ar  107  TRP107     -0.2442
     42  CE2        5.8110    9.7620   24.5470 C.ar  107  TRP107      0.0810
     43  CE3        3.6980    9.5090   23.4010 C.ar  107  TRP107      0.0012
     44  CZ2        5.7690    8.4500   25.0130 C.ar  107  TRP107      0.0191
     45  CZ3        3.6580    8.2060   23.8650 C.ar  107  TRP107      0.0001
     46  CH2        4.6890    7.6900   24.6610 C.ar  107  TRP107      0.0015
     47  N         -0.4380   11.1630   19.4460 N.3   111  GLN111     -0.1245
     48  CA        -1.7690   11.3930   19.9860 C.3   111  GLN111      0.1566
     49  C         -2.7200   12.0260   18.9730 C.2   111  GLN111      0.2260
     50  O         -3.9340   11.8220   19.0520 O.2   111  GLN111     -0.2867
     51  CB        -1.6840   12.2450   21.2520 C.3   111  GLN111      0.0367
     52  CG        -0.6850   11.7010   22.2640 C.3   111  GLN111      0.0905
     53  CD        -1.3420   11.2390   23.5510 C.2   111  GLN111      0.2608
     54  OE1       -2.5110   10.8470   23.5600 O.2   111  GLN111     -0.2717
     55  NE2       -0.5900   11.2780   24.6480 N.am  111  GLN111     -0.0878
     56  N          6.5970    3.9260   34.1840 N.3   206  PHE206     -0.1241
     57  CA         5.5920    4.9610   34.3850 C.3   206  PHE206      0.1605
     58  C          6.2320    6.3190   34.6810 C.2   206  PHE206      0.2264
     59  O          5.6250    7.3620   34.4360 O.2   206  PHE206     -0.2867
     60  CB         4.6260    4.5470   35.4970 C.3   206  PHE206      0.0534
     61  CG         3.7100    3.4240   35.0990 C.ar  206  PHE206     -0.0203
     62  CD1        2.7130    3.6320   34.1590 C.ar  206  PHE206     -0.0042
     63  CD2        3.8650    2.1550   35.6340 C.ar  206  PHE206     -0.0042
     64  CE1        1.8740    2.6020   33.7730 C.ar  206  PHE206     -0.0003
     65  CE2        3.0270    1.1180   35.2540 C.ar  206  PHE206     -0.0003
     66  CZ         2.0320    1.3420   34.3200 C.ar  206  PHE206     -0.0000
     67  N          7.2220    7.4850   31.2860 N.3   209  GLY209     -0.1210
     68  CA         6.0920    8.0150   30.5480 C.3   209  GLY209      0.1956
     69  C          6.0350    9.5290   30.5660 C.2   209  GLY209      0.2612
     70  O          5.7620   10.1640   29.5470 O.2   209  GLY209     -0.2717
     71  N          6.3050   10.1130   31.7260 N.am  210  TRP210     -0.1962
     72  CA         6.1500   11.5500   31.8960 C.3   210  TRP210      0.1771
     73  C          7.4670   12.3100   31.9670 C.2   210  TRP210      0.2619
     74  O          7.4700   13.5100   32.2470 O.2   210  TRP210     -0.2715
     75  CB         5.3450   11.8450   33.1610 C.3   210  TRP210      0.0590
     76  CG         3.8890   11.5420   33.0480 C.ar  210  TRP210      0.0006
     77  CD1        3.1800   10.6500   33.7950 C.ar  210  TRP210      0.0946
     78  CD2        2.9550   12.1330   32.1350 C.ar  210  TRP210      0.0152
     79  NE1        1.8630   10.6490   33.4080 N.ar  210  TRP210     -0.2442
     80  CE2        1.6980   11.5530   32.3920 C.ar  210  TRP210      0.0810
     81  CE3        3.0600   13.0980   31.1270 C.ar  210  TRP210      0.0012
     82  CZ2        0.5550   11.8990   31.6730 C.ar  210  TRP210      0.0191
     83  CZ3        1.9230   13.4420   30.4160 C.ar  210  TRP210      0.0001
     84  CH2        0.6880   12.8440   30.6930 C.ar  210  TRP210      0.0015
     85  N          8.5780   11.6230   31.7200 N.am  211  ILE211     -0.1963
     86  CA         9.8950   12.2340   31.8910 C.3   211  ILE211      0.1727
     87  C         10.0560   13.5080   31.0610 C.2   211  ILE211      0.2616
     88  O         10.5920   14.5000   31.5490 O.2   211  ILE211     -0.2715
     89  CB        11.0290   11.2420   31.5390 C.3   211  ILE211      0.0290
     90  CG1       12.3920   11.9360   31.6050 C.3   211  ILE211      0.0022
     91  CG2       10.8090   10.6240   30.1680 C.3   211  ILE211      0.0023
     92  CD1       12.7540   12.4570   32.9790 C.3   211  ILE211      0.0001
     93  N          9.5640   13.4900   29.8260 N.am  212  ALA212     -0.1963
     94  CA         9.6790   14.6460   28.9420 C.3   212  ALA212      0.1728
     95  C          8.9150   15.8470   29.4910 C.2   212  ALA212      0.2616
     96  O          9.4160   16.9690   29.4910 O.2   212  ALA212     -0.2715
     97  CB         9.1840   14.2970   27.5490 C.3   212  ALA212      0.0334
     98  N          7.7010   15.6050   29.9660 N.am  213  VAL213     -0.1977
     99  CA         6.8930   16.6740   30.5290 C.3   213  VAL213      0.1596
    100  C          7.5180   17.2060   31.8150 C.2   213  VAL213      0.2287
    101  O          7.6520   18.4180   31.9920 O.2   213  VAL213     -0.2864
    102  CB         5.4550   16.2040   30.8020 C.3   213  VAL213      0.0276
    103  CG1        4.7080   17.2220   31.6500 C.3   213  VAL213      0.0022
    104  CG2        4.7290   15.9640   29.4880 C.3   213  VAL213      0.0022
    105  N         -4.4850    8.8220   36.7680 N.3   254  SER254     -0.1217
    106  CA        -3.8110    7.7740   36.0170 C.3   254  SER254      0.1889
    107  C         -3.9670    6.3960   36.6620 C.2   254  SER254      0.2288
    108  O         -3.7420    5.3760   36.0140 O.2   254  SER254     -0.2866
    109  CB        -2.3290    8.1220   35.8660 C.3   254  SER254      0.2089
    110  OG        -1.6030    7.7610   37.0260 O.3   254  SER254     -0.2183
    111  N         -4.5320   16.5410   26.7380 N.3   303  THR303     -0.1218
    112  CA        -3.1470   16.1540   26.9630 C.3   303  THR303      0.1862
    113  C         -2.1850   16.6460   25.8870 C.2   303  THR303      0.2287
    114  O         -1.1910   17.3030   26.1950 O.2   303  THR303     -0.2866
    115  CB        -3.0210   14.6230   27.0630 C.3   303  THR303      0.1770
    116  OG1       -3.6960   14.1580   28.2400 O.3   303  THR303     -0.2211
    117  CG2       -1.5570   14.2090   27.1120 C.3   303  THR303      0.0375
    118  N          0.9880   19.1440   26.7790 N.3   307  ALA307     -0.1231
    119  CA         2.1220   18.2730   27.0760 C.3   307  ALA307      0.1694
    120  C          3.1130   18.0930   25.9320 C.2   307  ALA307      0.2592
    121  O          4.2870   17.8140   26.1690 O.2   307  ALA307     -0.2718
    122  CB         1.6150   16.9140   27.5260 C.3   307  ALA307      0.0304
    123  N          2.6480   18.2310   24.6960 N.am  308  ASN308     -0.1974
    124  CA         3.4760   17.8570   23.5530 C.3   308  ASN308      0.1688
    125  C          3.8170   18.9650   22.5630 C.2   308  ASN308      0.2292
    126  O          4.8140   18.8710   21.8480 O.2   308  ASN308     -0.2864
    127  CB         2.8020   16.7160   22.7950 C.3   308  ASN308      0.1181
    128  CG         2.7450   15.4440   23.6060 C.2   308  ASN308      0.2629
    129  OD1        3.6550   15.1550   24.3850 O.2   308  ASN308     -0.2716
    130  ND2        1.6840   14.6660   23.4210 N.am  308  ASN308     -0.0877
    131  N          5.4980    0.4450   23.9050 N.3   349  LEU349     -0.1245
    132  CA         5.7430    1.7390   24.5220 C.3   349  LEU349      0.1561
    133  C          6.6920    1.5160   25.6800 C.2   349  LEU349      0.2260
    134  O          7.6860    2.2120   25.8090 O.2   349  LEU349     -0.2867
    135  CB         4.4540    2.3970   25.0090 C.3   349  LEU349      0.0270
    136  CG         3.3430    2.6470   23.9920 C.3   349  LEU349      0.0019
    137  CD1        2.0960    3.1360   24.7040 C.3   349  LEU349      0.0001
    138  CD2        3.7980    3.6480   22.9450 C.3   349  LEU349      0.0001
    139  N          9.4480    3.7050   26.7960 N.3   353  LEU353     -0.1245
    140  CA         9.3780    4.4860   28.0190 C.3   353  LEU353      0.1561
    141  C         10.6510    4.2110   28.8150 C.2   353  LEU353      0.2260
    142  O         11.1810    5.0990   29.4840 O.2   353  LEU353     -0.2867
    143  CB         8.1430    4.0850   28.8160 C.3   353  LEU353      0.0270
    144  CG         6.7960    4.5070   28.2270 C.3   353  LEU353      0.0019
    145  CD1        5.6430    4.2240   29.1790 C.3   353  LEU353      0.0001
    146  CD2        6.7930    5.9500   27.7780 C.3   353  LEU353      0.0001
    147  N         13.0670    6.4720   27.1330 N.3   356  LEU356     -0.1245
    148  CA        12.8810    7.8540   27.5480 C.3   356  LEU356      0.1561
    149  C         13.4610    8.1880   28.9220 C.2   356  LEU356      0.2260
    150  O         14.0580    9.2510   29.0880 O.2   356  LEU356     -0.2867
    151  CB        11.3940    8.1940   27.5440 C.3   356  LEU356      0.0270
    152  CG        10.6480    8.0440   26.2200 C.3   356  LEU356      0.0019
    153  CD1        9.1510    8.1550   26.4240 C.3   356  LEU356      0.0001
    154  CD2       11.1230    9.0490   25.1930 C.3   356  LEU356      0.0001
@<TRIPOS>BOND
     1    49    50    2
     2    49    48    1
     3    47    48    1
     4    48    51    1
     5    33    34    1
     6    35    36    2
     7    35    34    1
     8    34    37    1
     9    51    52    1
    10   126   125    2
    11    52    53    1
    12   125   124    1
    13    37    38    1
    14   127   124    1
    15   127   128    1
    16   138   136    1
    17    43    40   ar
    18    43    45   ar
    19   130   128   am
    20    38    40   ar
    21    38    39   ar
    22    53    54    2
    23    53    55   am
    24   124   123    1
    25   128   129    2
    26    40    42   ar
    27    45    46   ar
    28   131   132    1
    29   136   137    1
    30   136   135    1
    31    39    41   ar
    32   132   135    1
    33   132   133    1
    34    42    41   ar
    35    42    44   ar
    36    46    44   ar
    37   123   120   am
    38   154   152    1
    39   133   134    2
    40   113   114    2
    41   113   112    1
    42   120   121    2
    43   120   119    1
    44    15    16    1
    45    19    16    1
    46    16    17    1
    47   152   153    1
    48   152   151    1
    49    13    12    2
    50   111   112    1
    51   118   119    1
    52   139   140    1
    53   112   115    1
    54   115   117    1
    55   115   116    1
    56   119   122    1
    57   147   148    1
    58    18    17    2
    59    17    20   am
    60     8     7    1
    61     8     9    2
    62    10     7    1
    63    10    11    1
    64   151   148    1
    65   148   149    1
    66    97    94    1
    67    12    11    1
    68    12    14   am
    69   146   144    1
    70     7     6    1
    71   140   141    1
    72   140   143    1
    73    28    29    1
    74   144   143    1
    75   144   145    1
    76    20    21    1
    77   141   142    2
    78   149   150    2
    79    94    95    1
    80    94    93    1
    81    29    32    1
    82    29    30    1
    83   104   102    1
    84    96    95    2
    85    95    98   am
    86    70    69    2
    87    21    22    1
    88    21    24    1
    89    22    23    2
    90    93    87   am
    91    98    99    1
    92    91    89    1
    93    30    31    2
    94    83    84   ar
    95    83    81   ar
    96    99   102    1
    97    99   100    1
    98    68    69    1
    99    68    67    1
   100    69    71   am
   101    84    82   ar
   102   102   103    1
   103    24    26    1
   104    24    25    1
   105    87    88    2
   106    87    86    1
   107    81    78   ar
   108    89    90    1
   109    89    86    1
   110    90    92    1
   111    82    80   ar
   112    85    86    1
   113    85    73   am
   114    71    72    1
   115     4     3    2
   116   100   101    2
   117    72    73    1
   118    72    75    1
   119    73    74    2
   120     3     2    1
   121    78    80   ar
   122    78    76   ar
   123    25    27    1
   124    80    79   ar
   125     1     2    1
   126     2     5    1
   127    76    75    1
   128    76    77   ar
   129    79    77   ar
   130    64    62   ar
   131    64    66   ar
   132    62    61   ar
   133    56    57    1
   134    66    65   ar
   135    57    58    1
   136    57    60    1
   137    59    58    2
   138    61    60    1
   139    61    63   ar
   140    65    63   ar
   141   109   106    1
   142   109   110    1
   143   108   107    2
   144   106   107    1
   145   106   105    1
