@<TRIPOS>MOLECULE
tmp/4d1cA00.pdb
 127 120 0 0 0
SMALL
GASTEIGER

@<TRIPOS>ATOM
      1  N         -5.3520   10.1690  -23.9750 N.3    32  GLN32      -0.1245
      2  CA        -4.8910   10.0710  -25.3520 C.3    32  GLN32       0.1566
      3  C         -4.5630    8.6290  -25.7430 C.2    32  GLN32       0.2260
      4  O         -4.1060    7.8360  -24.9240 O.2    32  GLN32      -0.2867
      5  CB        -3.6810   10.9840  -25.5670 C.3    32  GLN32       0.0367
      6  CG        -2.6460   10.9270  -24.4590 C.3    32  GLN32       0.0905
      7  CD        -1.5140    9.9770  -24.7800 C.2    32  GLN32       0.2608
      8  OE1       -1.2790    9.6490  -25.9420 O.2    32  GLN32      -0.2717
      9  NE2       -0.8040    9.5270  -23.7510 N.am   32  GLN32      -0.0878
     10  N         -2.3460    6.7520  -27.1290 N.3    34  ALA34      -0.1231
     11  CA        -1.0910    6.0220  -26.9400 C.3    34  ALA34       0.1694
     12  C         -1.0190    5.2640  -25.6140 C.2    34  ALA34       0.2591
     13  O         -0.2930    4.2790  -25.5040 O.2    34  ALA34      -0.2718
     14  CB         0.0840    6.9750  -27.0540 C.3    34  ALA34       0.0304
     15  N         -1.7730    5.7080  -24.6140 N.am   35  ILE35      -0.1980
     16  CA        -1.7410    5.0450  -23.3150 C.3    35  ILE35       0.1595
     17  C         -2.5640    3.7580  -23.3440 C.2    35  ILE35       0.2287
     18  O         -2.3890    2.8810  -22.4960 O.2    35  ILE35      -0.2864
     19  CB        -2.2510    5.9590  -22.1880 C.3    35  ILE35       0.0276
     20  CG1       -1.7490    5.4440  -20.8390 C.3    35  ILE35       0.0022
     21  CG2       -3.7660    6.0630  -22.2190 C.3    35  ILE35       0.0022
     22  CD1       -2.4100    6.0890  -19.6600 C.3    35  ILE35       0.0001
     23  N          0.2270    1.2410  -24.6290 N.3    38  ALA38      -0.1245
     24  CA         1.2200    0.9290  -23.6120 C.3    38  ALA38       0.1562
     25  C          0.6470    0.0260  -22.5320 C.2    38  ALA38       0.2260
     26  O          1.1840   -1.0440  -22.2790 O.2    38  ALA38      -0.2867
     27  CB         1.7640    2.2020  -22.9960 C.3    38  ALA38       0.0290
     28  N          6.0980   13.0940  -31.6160 N.3   107  TRP107     -0.1241
     29  CA         4.7890   12.7950  -31.0470 C.3   107  TRP107      0.1605
     30  C          3.6770   13.5290  -31.7900 C.2   107  TRP107      0.2264
     31  O          2.5570   13.0320  -31.8900 O.2   107  TRP107     -0.2867
     32  CB         4.7430   13.1550  -29.5620 C.3   107  TRP107      0.0550
     33  CG         5.4580   12.1900  -28.6690 C.ar  107  TRP107      0.0003
     34  CD1        6.5580   12.4430  -27.9030 C.ar  107  TRP107      0.0946
     35  CD2        5.1200   10.8170  -28.4440 C.ar  107  TRP107      0.0152
     36  NE1        6.9260   11.3130  -27.2140 N.ar  107  TRP107     -0.2442
     37  CE2        6.0590   10.3000  -27.5300 C.ar  107  TRP107      0.0810
     38  CE3        4.1150    9.9730  -28.9280 C.ar  107  TRP107      0.0012
     39  CZ2        6.0240    8.9800  -27.0900 C.ar  107  TRP107      0.0191
     40  CZ3        4.0820    8.6610  -28.4900 C.ar  107  TRP107      0.0001
     41  CH2        5.0310    8.1780  -27.5800 C.ar  107  TRP107      0.0015
     42  N          0.2850   11.7060  -33.2960 N.3   111  GLN111     -0.1245
     43  CA        -1.0890   11.9870  -32.9020 C.3   111  GLN111      0.1566
     44  C         -1.9380   12.6620  -33.9790 C.2   111  GLN111      0.2260
     45  O         -3.1540   12.4800  -34.0020 O.2   111  GLN111     -0.2867
     46  CB        -1.1030   12.8460  -31.6370 C.3   111  GLN111      0.0367
     47  CG        -0.2480   12.2950  -30.5080 C.3   111  GLN111      0.0905
     48  CD        -1.0770   11.8920  -29.3050 C.2   111  GLN111      0.2608
     49  OE1       -2.3030   11.7980  -29.3840 O.2   111  GLN111     -0.2717
     50  NE2       -0.4110   11.6500  -28.1820 N.am  111  GLN111     -0.0878
     51  N          6.0220    4.3990  -18.2050 N.3   206  PHE206     -0.1241
     52  CA         5.0760    5.5020  -18.1050 C.3   206  PHE206      0.1605
     53  C          5.7800    6.8120  -17.7500 C.2   206  PHE206      0.2264
     54  O          5.3430    7.8850  -18.1660 O.2   206  PHE206     -0.2867
     55  CB         3.9850    5.1750  -17.0850 C.3   206  PHE206      0.0534
     56  CG         3.1230    4.0130  -17.4870 C.ar  206  PHE206     -0.0203
     57  CD1        2.2130    4.1380  -18.5240 C.ar  206  PHE206     -0.0042
     58  CD2        3.2300    2.7950  -16.8380 C.ar  206  PHE206     -0.0042
     59  CE1        1.4220    3.0730  -18.9040 C.ar  206  PHE206     -0.0003
     60  CE2        2.4400    1.7240  -17.2130 C.ar  206  PHE206     -0.0003
     61  CZ         1.5360    1.8630  -18.2490 C.ar  206  PHE206     -0.0000
     62  N          7.2350    8.1630  -20.8030 N.3   209  GLY209     -0.1210
     63  CA         6.2190    8.6310  -21.7250 C.3   209  GLY209      0.1956
     64  C          6.0830   10.1410  -21.7510 C.2   209  GLY209      0.2611
     65  O          6.0540   10.7510  -22.8200 O.2   209  GLY209     -0.2717
     66  N          6.0040   10.7450  -20.5700 N.am  210  TRP210     -0.1976
     67  CA         5.7730   12.1810  -20.4560 C.3   210  TRP210      0.1640
     68  C          7.0470   12.9920  -20.2530 C.2   210  TRP210      0.2290
     69  O          6.9740   14.2080  -20.0670 O.2   210  TRP210     -0.2864
     70  CB         4.8210   12.4790  -19.2940 C.3   210  TRP210      0.0576
     71  CG         3.3880   12.1300  -19.5450 C.ar  210  TRP210      0.0006
     72  CD1        2.6170   11.2730  -18.8160 C.ar  210  TRP210      0.0946
     73  CD2        2.5480   12.6370  -20.5890 C.ar  210  TRP210      0.0152
     74  NE1        1.3500   11.2120  -19.3430 N.ar  210  TRP210     -0.2442
     75  CE2        1.2820   12.0410  -20.4320 C.ar  210  TRP210      0.0810
     76  CE3        2.7450   13.5340  -21.6440 C.ar  210  TRP210      0.0012
     77  CZ2        0.2180   12.3100  -21.2900 C.ar  210  TRP210      0.0191
     78  CZ3        1.6880   13.8020  -22.4940 C.ar  210  TRP210      0.0001
     79  CH2        0.4400   13.1920  -22.3120 C.ar  210  TRP210      0.0015
     80  N          9.4330   14.1760  -22.0410 N.3   212  ALA212     -0.1231
     81  CA         9.6050   15.3310  -22.9130 C.3   212  ALA212      0.1694
     82  C          8.8040   16.5200  -22.3900 C.2   212  ALA212      0.2591
     83  O          9.3290   17.6210  -22.2430 O.2   212  ALA212     -0.2718
     84  CB         9.1910   14.9900  -24.3350 C.3   212  ALA212      0.0304
     85  N          7.5330   16.2780  -22.0910 N.am  213  VAL213     -0.1980
     86  CA         6.6630   17.3090  -21.5400 C.3   213  VAL213      0.1595
     87  C          7.1440   17.7660  -20.1660 C.2   213  VAL213      0.2287
     88  O          7.2140   18.9630  -19.8930 O.2   213  VAL213     -0.2864
     89  CB         5.2060   16.8100  -21.4360 C.3   213  VAL213      0.0276
     90  CG1        4.4030   17.6730  -20.4730 C.3   213  VAL213      0.0022
     91  CG2        4.5610   16.7820  -22.8100 C.3   213  VAL213      0.0022
     92  N         -4.5190   16.7600  -26.2410 N.3   303  THR303     -0.1218
     93  CA        -3.1570   16.3900  -25.8810 C.3   303  THR303      0.1862
     94  C         -2.0890   16.9240  -26.8340 C.2   303  THR303      0.2287
     95  O         -1.1390   17.5810  -26.4040 O.2   303  THR303     -0.2866
     96  CB        -3.0100   14.8560  -25.8130 C.3   303  THR303      0.1770
     97  OG1       -3.8020   14.3390  -24.7350 O.3   303  THR303     -0.2211
     98  CG2       -1.5540   14.4580  -25.6190 C.3   303  THR303      0.0375
     99  N          1.0640   19.6170  -25.7250 N.3   307  ALA307     -0.1231
    100  CA         2.2060   18.7800  -25.3880 C.3   307  ALA307      0.1694
    101  C          3.2590   18.6740  -26.4910 C.2   307  ALA307      0.2592
    102  O          4.4340   18.4480  -26.2010 O.2   307  ALA307     -0.2718
    103  CB         1.7220   17.3880  -25.0050 C.3   307  ALA307      0.0304
    104  N          2.8530   18.8330  -27.7470 N.am  308  ASN308     -0.1974
    105  CA         3.7580   18.5240  -28.8510 C.3   308  ASN308      0.1688
    106  C          4.1100   19.6800  -29.7870 C.2   308  ASN308      0.2292
    107  O          5.1480   19.6450  -30.4490 O.2   308  ASN308     -0.2864
    108  CB         3.1700   17.3810  -29.6790 C.3   308  ASN308      0.1181
    109  CG         3.1120   16.0810  -28.9080 C.2   308  ASN308      0.2629
    110  OD1        3.9830   15.7950  -28.0860 O.2   308  ASN308     -0.2716
    111  ND2        2.0850   15.2830  -29.1720 N.am  308  ASN308     -0.0877
    112  N          5.8310    1.0580  -28.4480 N.3   349  LEU349     -0.1245
    113  CA         6.0550    2.3290  -27.7750 C.3   349  LEU349      0.1561
    114  C          6.9270    2.1040  -26.5480 C.2   349  LEU349      0.2260
    115  O          7.9040    2.8130  -26.3480 O.2   349  LEU349     -0.2867
    116  CB         4.7330    2.9900  -27.3800 C.3   349  LEU349      0.0270
    117  CG         3.7350    3.2720  -28.5040 C.3   349  LEU349      0.0019
    118  CD1        2.4120    3.7580  -27.9340 C.3   349  LEU349      0.0001
    119  CD2        4.3020    4.2860  -29.4880 C.3   349  LEU349      0.0001
    120  N          9.5690    4.3740  -25.2400 N.3   353  LEU353     -0.1245
    121  CA         9.3460    5.1560  -24.0390 C.3   353  LEU353      0.1561
    122  C         10.5070    4.9050  -23.0770 C.2   353  LEU353      0.2260
    123  O         10.9300    5.8040  -22.3500 O.2   353  LEU353     -0.2867
    124  CB         8.0190    4.7480  -23.3900 C.3   353  LEU353      0.0270
    125  CG         6.7110    5.1320  -24.0960 C.3   353  LEU353      0.0019
    126  CD1        5.4950    4.8130  -23.2340 C.3   353  LEU353      0.0001
    127  CD2        6.6950    6.5810  -24.5320 C.3   353  LEU353      0.0001
@<TRIPOS>BOND
     1    45    44    2
     2    44    43    1
     3    42    43    1
     4    43    46    1
     5    31    30    2
     6    30    29    1
     7    46    47    1
     8    28    29    1
     9    29    32    1
    10    47    48    1
    11   107   106    2
    12   106   105    1
    13   108   109    1
    14   108   105    1
    15    32    33    1
    16   119   117    1
    17    49    48    2
    18    48    50   am
    19   111   109   am
    20    38    40   ar
    21    38    35   ar
    22   109   110    2
    23   105   104    1
    24    33    35   ar
    25    33    34   ar
    26   117   118    1
    27   117   116    1
    28    40    41   ar
    29   112   113    1
    30    35    37   ar
    31    34    36   ar
    32   113   116    1
    33   113   114    1
    34   104   101   am
    35    41    39   ar
    36    37    36   ar
    37    37    39   ar
    38    10    11    1
    39    14    11    1
    40    11    12    1
    41    94    95    2
    42    94    93    1
    43   114   115    2
    44   101   102    2
    45   101   100    1
    46    92    93    1
    47     8     7    2
    48    93    96    1
    49    96    98    1
    50    96    97    1
    51     3     2    1
    52     3     4    2
    53    99   100    1
    54    12    13    2
    55    12    15   am
    56     5     2    1
    57     5     6    1
    58   100   103    1
    59     2     1    1
    60   120   121    1
    61     7     6    1
    62     7     9   am
    63    23    24    1
    64    15    16    1
    65   127   125    1
    66    84    81    1
    67   125   124    1
    68   125   126    1
    69   121   124    1
    70   121   122    1
    71    24    27    1
    72    24    25    1
    73    17    16    1
    74    17    18    2
    75    16    19    1
    76   122   123    2
    77    81    82    1
    78    81    80    1
    79    65    64    2
    80    91    89    1
    81    25    26    2
    82    78    79   ar
    83    78    76   ar
    84    82    83    2
    85    82    85   am
    86    79    77   ar
    87    21    19    1
    88    19    20    1
    89    85    86    1
    90    64    63    1
    91    64    66   am
    92    63    62    1
    93    76    73   ar
    94    86    89    1
    95    86    87    1
    96    89    90    1
    97    77    75   ar
    98    20    22    1
    99    73    75   ar
   100    73    71   ar
   101    66    67    1
   102    67    68    1
   103    67    70    1
   104    75    74   ar
   105    68    69    2
   106    87    88    2
   107    71    70    1
   108    71    72   ar
   109    74    72   ar
   110    59    57   ar
   111    59    61   ar
   112    57    56   ar
   113    61    60   ar
   114    51    52    1
   115    54    53    2
   116    52    53    1
   117    52    55    1
   118    56    55    1
   119    56    58   ar
   120    60    58   ar
