@<TRIPOS>MOLECULE
tmp/4d1dA01.pdb
 125 119 0 0 0
SMALL
GASTEIGER

@<TRIPOS>ATOM
      1  N         -5.5580    9.5310  -23.5130 N.3    32  GLN32      -0.1245
      2  CA        -5.0310    9.4140  -24.8670 C.3    32  GLN32       0.1566
      3  C         -4.7560    7.9610  -25.2430 C.2    32  GLN32       0.2260
      4  O         -4.5360    7.1050  -24.3720 O.2    32  GLN32      -0.2867
      5  CB        -3.7540   10.2100  -24.9870 C.3    32  GLN32       0.0367
      6  CG        -2.9080   10.0720  -23.7530 C.3    32  GLN32       0.0905
      7  CD        -1.7060    9.2240  -23.9830 C.2    32  GLN32       0.2608
      8  OE1       -1.2090    9.1470  -25.1040 O.2    32  GLN32      -0.2717
      9  NE2       -1.2200    8.5850  -22.9360 N.am   32  GLN32      -0.0878
     10  N         -2.2390    6.2390  -26.6340 N.3    34  ALA34      -0.1231
     11  CA        -0.9630    5.5780  -26.3480 C.3    34  ALA34       0.1694
     12  C         -0.8160    4.9450  -24.9550 C.2    34  ALA34       0.2591
     13  O          0.1310    4.1910  -24.7360 O.2    34  ALA34      -0.2718
     14  CB         0.1700    6.5600  -26.5730 C.3    34  ALA34       0.0304
     15  N         -1.7130    5.2320  -24.0120 N.am   35  ILE35      -0.1980
     16  CA        -1.6600    4.5050  -22.7370 C.3    35  ILE35       0.1595
     17  C         -2.3840    3.1620  -22.8760 C.2    35  ILE35       0.2287
     18  O         -2.0440    2.1900  -22.1950 O.2    35  ILE35      -0.2864
     19  CB        -2.2610    5.2920  -21.5550 C.3    35  ILE35       0.0276
     20  CG1       -1.7370    4.7040  -20.2400 C.3    35  ILE35       0.0022
     21  CG2       -3.7890    5.2790  -21.5850 C.3    35  ILE35       0.0022
     22  CD1       -2.4450    5.1940  -19.0180 C.3    35  ILE35       0.0001
     23  N          0.2160    0.9530  -24.1360 N.3    38  ALA38      -0.1245
     24  CA         1.1590    0.7310  -23.0560 C.3    38  ALA38       0.1562
     25  C          0.5800   -0.1910  -22.0020 C.2    38  ALA38       0.2260
     26  O          1.2370   -1.1410  -21.6200 O.2    38  ALA38      -0.2867
     27  CB         1.5610    2.0370  -22.4370 C.3    38  ALA38       0.0290
     28  N          9.5330   15.3900  -28.9810 N.3   104  SER104     -0.1217
     29  CA         8.2840   16.1300  -28.8750 C.3   104  SER104      0.1889
     30  C          7.6270   16.1700  -30.2570 C.2   104  SER104      0.2288
     31  O          6.4250   15.9380  -30.4080 O.2   104  SER104     -0.2866
     32  CB         8.5350   17.5230  -28.3110 C.3   104  SER104      0.2089
     33  OG         8.2830   17.5310  -26.9170 O.3   104  SER104     -0.2183
     34  N          6.2360   12.6420  -31.2980 N.3   107  TRP107     -0.1241
     35  CA         4.9340   12.4080  -30.6500 C.3   107  TRP107      0.1605
     36  C          3.7610   13.1840  -31.2560 C.2   107  TRP107      0.2264
     37  O          2.6090   12.7520  -31.1790 O.2   107  TRP107     -0.2867
     38  CB         5.0030   12.7540  -29.1610 C.3   107  TRP107      0.0550
     39  CG         5.5050   11.6690  -28.2520 C.ar  107  TRP107      0.0003
     40  CD1        6.4010   11.8130  -27.2310 C.ar  107  TRP107      0.0946
     41  CD2        5.1260   10.2840  -28.2590 C.ar  107  TRP107      0.0152
     42  NE1        6.6030   10.6130  -26.6060 N.ar  107  TRP107     -0.2442
     43  CE2        5.8380    9.6560  -27.2220 C.ar  107  TRP107      0.0810
     44  CE3        4.2610    9.5120  -29.0480 C.ar  107  TRP107      0.0012
     45  CZ2        5.7160    8.2880  -26.9580 C.ar  107  TRP107      0.0191
     46  CZ3        4.1420    8.1600  -28.7830 C.ar  107  TRP107      0.0001
     47  CH2        4.8630    7.5620  -27.7470 C.ar  107  TRP107      0.0015
     48  N          0.3340   11.2320  -32.8220 N.3   111  GLN111     -0.1245
     49  CA        -1.0550   11.4990  -32.4420 C.3   111  GLN111      0.1566
     50  C         -1.8800   12.2020  -33.5280 C.2   111  GLN111      0.2260
     51  O         -3.1080   12.0890  -33.5300 O.2   111  GLN111     -0.2867
     52  CB        -1.1270   12.2600  -31.1190 C.3   111  GLN111      0.0367
     53  CG        -0.3140   11.5930  -30.0130 C.3   111  GLN111      0.0905
     54  CD        -1.1920   11.0770  -28.8760 C.2   111  GLN111      0.2608
     55  OE1       -2.4070   10.9130  -29.0350 O.2   111  GLN111     -0.2717
     56  NE2       -0.5770   10.8060  -27.7290 N.am  111  GLN111     -0.0878
     57  N          8.2240    2.5620  -17.2440 N.3   205  ILE205     -0.1231
     58  CA         7.6270    2.7540  -18.5630 C.3   205  ILE205      0.1692
     59  C          6.5620    3.8680  -18.5450 C.2   205  ILE205      0.2592
     60  O          6.4040    4.5990  -19.5290 O.2   205  ILE205     -0.2718
     61  CB         7.0160    1.4280  -19.0970 C.3   205  ILE205      0.0266
     62  CG1        8.1150    0.5440  -19.6860 C.3   205  ILE205      0.0019
     63  CG2        5.9810    1.6760  -20.1790 C.3   205  ILE205      0.0020
     64  CD1        7.8800   -0.9250  -19.5010 C.3   205  ILE205      0.0001
     65  N          5.8650    4.0220  -17.4210 N.am  206  PHE206     -0.1976
     66  CA         4.8290    5.0510  -17.2940 C.3   206  PHE206      0.1639
     67  C          5.3870    6.4320  -16.9370 C.2   206  PHE206      0.2290
     68  O          4.8760    7.4550  -17.3990 O.2   206  PHE206     -0.2864
     69  CB         3.7860    4.6220  -16.2630 C.3   206  PHE206      0.0560
     70  CG         2.8480    3.5790  -16.7750 C.ar  206  PHE206     -0.0200
     71  CD1        1.9340    3.8880  -17.7690 C.ar  206  PHE206     -0.0042
     72  CD2        2.8980    2.2910  -16.2970 C.ar  206  PHE206     -0.0042
     73  CE1        1.0750    2.9380  -18.2650 C.ar  206  PHE206     -0.0003
     74  CE2        2.0390    1.3320  -16.7870 C.ar  206  PHE206     -0.0003
     75  CZ         1.1270    1.6560  -17.7790 C.ar  206  PHE206     -0.0000
     76  N          7.0310    7.7540  -20.1700 N.3   209  GLY209     -0.1210
     77  CA         6.1100    8.1330  -21.2310 C.3   209  GLY209      0.1956
     78  C          5.9390    9.6420  -21.2370 C.2   209  GLY209      0.2611
     79  O          5.9120   10.3040  -22.2800 O.2   209  GLY209     -0.2717
     80  N          5.8400   10.1840  -20.0340 N.am  210  TRP210     -0.1976
     81  CA         5.7190   11.6100  -19.8450 C.3   210  TRP210      0.1640
     82  C          7.0670   12.2470  -19.5300 C.2   210  TRP210      0.2290
     83  O          7.1340   13.2990  -18.9020 O.2   210  TRP210     -0.2864
     84  CB         4.7330   11.9000  -18.7210 C.3   210  TRP210      0.0576
     85  CG         3.3390   11.4530  -19.0010 C.ar  210  TRP210      0.0006
     86  CD1        2.6200   10.5300  -18.3020 C.ar  210  TRP210      0.0946
     87  CD2        2.4830   11.9180  -20.0530 C.ar  210  TRP210      0.0152
     88  NE1        1.3680   10.3900  -18.8510 N.ar  210  TRP210     -0.2442
     89  CE2        1.2590   11.2340  -19.9270 C.ar  210  TRP210      0.0810
     90  CE3        2.6320   12.8470  -21.0890 C.ar  210  TRP210      0.0012
     91  CZ2        0.1890   11.4510  -20.8000 C.ar  210  TRP210      0.0191
     92  CZ3        1.5710   13.0590  -21.9520 C.ar  210  TRP210      0.0001
     93  CH2        0.3660   12.3660  -21.8020 C.ar  210  TRP210      0.0015
     94  N          9.2290   13.4330  -21.6740 N.3   212  ALA212     -0.1231
     95  CA         9.4100   14.5940  -22.5310 C.3   212  ALA212      0.1694
     96  C          8.6410   15.7770  -21.9610 C.2   212  ALA212      0.2591
     97  O          9.1750   16.8740  -21.8160 O.2   212  ALA212     -0.2718
     98  CB         8.9550   14.2880  -23.9530 C.3   212  ALA212      0.0304
     99  N          7.3820   15.5310  -21.6260 N.am  213  VAL213     -0.1980
    100  CA         6.5240   16.5410  -21.0320 C.3   213  VAL213      0.1595
    101  C          7.0740   17.0620  -19.7060 C.2   213  VAL213      0.2287
    102  O          7.1950   18.2700  -19.5300 O.2   213  VAL213     -0.2864
    103  CB         5.0980   15.9940  -20.8170 C.3   213  VAL213      0.0276
    104  CG1        4.3960   16.7230  -19.6900 C.3   213  VAL213      0.0022
    105  CG2        4.3010   16.0940  -22.0990 C.3   213  VAL213      0.0022
    106  N         -4.5490   16.2530  -25.7660 N.3   303  THR303     -0.1218
    107  CA        -3.2030   15.8350  -25.3820 C.3   303  THR303      0.1862
    108  C         -2.1200   16.2980  -26.3560 C.2   303  THR303      0.2287
    109  O         -1.1260   16.8870  -25.9190 O.2   303  THR303     -0.2866
    110  CB        -3.1250   14.3080  -25.2340 C.3   303  THR303      0.1770
    111  OG1       -3.8940   13.9060  -24.0980 O.3   303  THR303     -0.2211
    112  CG2       -1.6870   13.8650  -25.0190 C.3   303  THR303      0.0375
    113  N          1.0280   19.1030  -25.2010 N.3   307  ALA307     -0.1231
    114  CA         2.1890   18.3450  -24.7790 C.3   307  ALA307      0.1694
    115  C          3.3180   18.2880  -25.8230 C.2   307  ALA307      0.2592
    116  O          4.4940   18.2270  -25.4660 O.2   307  ALA307     -0.2718
    117  CB         1.7540   16.9560  -24.3920 C.3   307  ALA307      0.0304
    118  N          2.9790   18.4030  -27.1010 N.am  308  ASN308     -0.1974
    119  CA         3.9470   18.1260  -28.1700 C.3   308  ASN308      0.1688
    120  C          4.2950   19.2750  -29.0930 C.2   308  ASN308      0.2292
    121  O          5.3390   19.2330  -29.7470 O.2   308  ASN308     -0.2864
    122  CB         3.4500   16.9770  -29.0610 C.3   308  ASN308      0.1181
    123  CG         3.3980   15.6500  -28.3430 C.2   308  ASN308      0.2629
    124  OD1        4.2330   15.3620  -27.4870 O.2   308  ASN308     -0.2716
    125  ND2        2.4200   14.8230  -28.7000 N.am  308  ASN308     -0.0877
@<TRIPOS>BOND
     1    51    50    2
     2    50    49    1
     3    48    49    1
     4    49    52    1
     5    34    35    1
     6    36    37    2
     7    36    35    1
     8    52    53    1
     9    35    38    1
    10    31    30    2
    11    30    29    1
    12    53    54    1
    13   121   120    2
    14    38    39    1
    15   120   119    1
    16   122   123    1
    17   122   119    1
    18    44    46   ar
    19    44    41   ar
    20    55    54    2
    21    28    29    1
    22    54    56   am
    23    29    32    1
    24    46    47   ar
    25   125   123   am
    26   123   124    2
    27    32    33    1
    28    41    39   ar
    29    41    43   ar
    30    39    40   ar
    31   119   118    1
    32    47    45   ar
    33    40    42   ar
    34    43    45   ar
    35    43    42   ar
    36   118   115   am
    37    10    11    1
    38    14    11    1
    39   108   109    2
    40   108   107    1
    41    11    12    1
    42   115   116    2
    43   115   114    1
    44   106   107    1
    45   107   110    1
    46     3     2    1
    47     3     4    2
    48   110   112    1
    49   110   111    1
    50   113   114    1
    51     8     7    2
    52     5     2    1
    53     5     6    1
    54    12    13    2
    55    12    15   am
    56     2     1    1
    57   114   117    1
    58    23    24    1
    59    15    16    1
    60     7     6    1
    61     7     9   am
    62    98    95    1
    63    24    27    1
    64    24    25    1
    65    17    16    1
    66    17    18    2
    67    16    19    1
    68    95    96    1
    69    95    94    1
    70    79    78    2
    71   105   103    1
    72    25    26    2
    73    96    97    2
    74    96    99   am
    75    92    93   ar
    76    92    90   ar
    77    93    91   ar
    78    99   100    1
    79    21    19    1
    80    19    20    1
    81    78    77    1
    82    78    80   am
    83    77    76    1
    84    90    87   ar
    85   100   103    1
    86   100   101    1
    87   103   104    1
    88    91    89   ar
    89    20    22    1
    90    63    61    1
    91    87    89   ar
    92    87    85   ar
    93    80    81    1
    94    89    88   ar
    95    81    82    1
    96    81    84    1
    97   101   102    2
    98    62    64    1
    99    62    61    1
   100    82    83    2
   101    60    59    2
   102    61    58    1
   103    85    84    1
   104    85    86   ar
   105    88    86   ar
   106    58    59    1
   107    58    57    1
   108    59    65   am
   109    73    75   ar
   110    73    71   ar
   111    75    74   ar
   112    71    70   ar
   113    65    66    1
   114    68    67    2
   115    66    67    1
   116    66    69    1
   117    74    72   ar
   118    70    72   ar
   119    70    69    1
