@<TRIPOS>MOLECULE
tmp/4d1jD00.pdb
 122 115 0 0 0
SMALL
GASTEIGER

@<TRIPOS>ATOM
      1  N          4.4220   21.4670   91.0910 N.3    29  GLN29      -0.1245
      2  CA         4.3670   21.0790   89.6880 C.3    29  GLN29       0.1566
      3  C          4.4820   19.5760   89.5820 C.2    29  GLN29       0.2260
      4  O          5.2860   18.9360   90.2660 O.2    29  GLN29      -0.2867
      5  CB         5.4040   21.7800   88.8130 C.3    29  GLN29       0.0367
      6  CG         5.3120   21.3550   87.3640 C.3    29  GLN29       0.0905
      7  CD         6.1590   22.1580   86.3650 C.2    29  GLN29       0.2608
      8  OE1        6.4960   23.3190   86.5770 O.2    29  GLN29      -0.2717
      9  NE2        6.4410   21.5300   85.2650 N.am   29  GLN29      -0.0878
     10  N          6.4410   15.2750   84.3040 N.3    32  ASN32      -0.1240
     11  CA         6.1520   15.6430   82.9180 C.3    32  ASN32       0.1653
     12  C          5.1290   14.7200   82.2270 C.2    32  ASN32       0.2266
     13  O          4.6250   15.0680   81.1600 O.2    32  ASN32      -0.2867
     14  CB         7.4470   15.5610   82.0980 C.3    32  ASN32       0.1155
     15  CG         8.3830   16.7550   82.2170 C.2    32  ASN32       0.2627
     16  OD1        9.5150   16.6650   81.7040 O.2    32  ASN32      -0.2716
     17  ND2        7.9630   17.8490   82.8130 N.am   32  ASN32      -0.0877
     18  N          2.8190   22.8550   76.4820 N.3    95  PHE95      -0.1241
     19  CA         3.9380   22.1160   75.9340 C.3    95  PHE95       0.1605
     20  C          3.6380   21.9330   74.4380 C.2    95  PHE95       0.2264
     21  O          2.7580   21.1690   74.0610 O.2    95  PHE95      -0.2867
     22  CB         4.0810   20.7450   76.5740 C.3    95  PHE95       0.0534
     23  CG         4.7140   20.7180   77.9470 C.ar   95  PHE95      -0.0203
     24  CD1        4.9140   21.8590   78.7180 C.ar   95  PHE95      -0.0042
     25  CD2        5.0230   19.4830   78.5260 C.ar   95  PHE95      -0.0042
     26  CE1        5.4800   21.7810   79.9980 C.ar   95  PHE95      -0.0003
     27  CE2        5.5980   19.4020   79.7830 C.ar   95  PHE95      -0.0003
     28  CZ         5.8160   20.5530   80.5220 C.ar   95  PHE95      -0.0000
     29  N          9.4600   22.1640   74.2070 N.3    99  LYS99      -0.1231
     30  CA         9.5390   21.6690   75.5990 C.3    99  LYS99       0.1693
     31  C         11.0000   21.2490   75.7610 C.2    99  LYS99       0.2592
     32  O         11.4610   20.2950   75.1060 O.2    99  LYS99      -0.2718
     33  CB         8.5860   20.5080   75.8100 C.3    99  LYS99       0.0285
     34  CG         8.3100   20.1660   77.2870 C.3    99  LYS99       0.0035
     35  CD         9.4940   19.4690   77.9210 C.3    99  LYS99       0.0206
     36  CE         9.1750   19.0160   79.3600 C.3    99  LYS99       0.1093
     37  NZ        10.4490   18.5910   80.0040 N.3    99  LYS99      -0.1314
     38  N         11.7340   21.9670   76.6040 N.am  100  ASN100     -0.1974
     39  CA        13.1810   21.7210   76.7920 C.3   100  ASN100      0.1688
     40  C         13.8860   21.7020   75.4290 C.2   100  ASN100      0.2292
     41  O         14.6600   20.8010   75.1120 O.2   100  ASN100     -0.2864
     42  CB        13.4730   20.4130   77.5200 C.3   100  ASN100      0.1181
     43  CG        12.9900   20.4020   78.9790 C.2   100  ASN100      0.2629
     44  OD1       12.0560   21.0870   79.3710 O.2   100  ASN100     -0.2716
     45  ND2       13.6370   19.5690   79.7840 N.am  100  ASN100     -0.0877
     46  N          7.6700   25.5460   77.1000 N.3   169  ASN169     -0.1225
     47  CA         8.4230   25.1740   78.2400 C.3   169  ASN169      0.1785
     48  C          9.9290   25.1250   77.9190 C.2   169  ASN169      0.2597
     49  O         10.3640   24.3120   77.0970 O.2   169  ASN169     -0.2718
     50  CB         7.9670   23.8250   78.7450 C.3   169  ASN169      0.1169
     51  CG         8.5810   23.4830   80.0650 C.2   169  ASN169      0.2627
     52  OD1        8.1010   23.9200   81.1110 O.2   169  ASN169     -0.2716
     53  ND2        9.6920   22.7630   80.0370 N.am  169  ASN169     -0.0877
     54  N         10.6940   26.0050   78.5420 N.am  170  GLU170     -0.1979
     55  CA        12.1480   26.1110   78.3270 C.3   170  GLU170      0.1602
     56  C         12.5040   26.1210   76.8270 C.2   170  GLU170      0.2287
     57  O         13.0840   25.1730   76.2630 O.2   170  GLU170     -0.2864
     58  CB        12.9070   25.0360   79.0930 C.3   170  GLU170      0.0415
     59  CG        12.8060   25.2130   80.6180 C.3   170  GLU170      0.1163
     60  CD        13.8610   24.4530   81.4210 C.2   170  GLU170      0.3649
     61  OE1       14.4670   23.5120   80.8720 O.co2 170  GLU170     -0.2457
     62  OE2       14.0810   24.7820   82.6150 O.co2 170  GLU170     -0.2457
     63  N         17.5420   25.0070   89.6290 N.3   289  TYR289     -0.1241
     64  CA        18.0380   23.7170   90.0500 C.3   289  TYR289      0.1605
     65  C         19.4790   23.7770   90.5380 C.2   289  TYR289      0.2264
     66  O         20.0270   22.7520   90.8990 O.2   289  TYR289     -0.2867
     67  CB        17.8940   22.6880   88.9040 C.3   289  TYR289      0.0534
     68  CG        16.4680   22.3940   88.5270 C.ar  289  TYR289     -0.0201
     69  CD1       15.7230   21.4410   89.2210 C.ar  289  TYR289     -0.0009
     70  CD2       15.8210   23.1260   87.5350 C.ar  289  TYR289     -0.0009
     71  CE1       14.3980   21.1730   88.8790 C.ar  289  TYR289      0.0417
     72  CE2       14.5000   22.8850   87.2030 C.ar  289  TYR289      0.0417
     73  CZ        13.7980   21.8900   87.8640 C.ar  289  TYR289      0.1957
     74  OH        12.4930   21.6540   87.5450 O.3   289  TYR289     -0.2866
     75  N          9.7740   26.8960   88.5860 N.3   314  GLU314     -0.1245
     76  CA        10.2200   25.5640   88.9470 C.3   314  GLU314      0.1567
     77  C         11.3590   25.7010   89.9070 C.2   314  GLU314      0.2260
     78  O         12.2010   26.6010   89.7750 O.2   314  GLU314     -0.2867
     79  CB        10.7510   24.8110   87.7540 C.3   314  GLU314      0.0388
     80  CG         9.7490   24.4870   86.6830 C.3   314  GLU314      0.1160
     81  CD        10.3900   23.7780   85.4970 C.2   314  GLU314      0.3649
     82  OE1       11.4170   23.0860   85.6970 O.co2 314  GLU314     -0.2457
     83  OE2        9.8740   23.9640   84.3640 O.co2 314  GLU314     -0.2457
     84  N          9.2240   21.2860   91.6310 N.3   339  PHE339     -0.1241
     85  CA         8.9890   20.4040   90.5350 C.3   339  PHE339      0.1605
     86  C          8.9760   18.9300   90.9560 C.2   339  PHE339      0.2264
     87  O          9.8730   18.4690   91.6830 O.2   339  PHE339     -0.2867
     88  CB        10.0520   20.6020   89.4650 C.3   339  PHE339      0.0534
     89  CG         9.8530   19.7220   88.2700 C.ar  339  PHE339     -0.0203
     90  CD1       10.3590   18.4560   88.2330 C.ar  339  PHE339     -0.0042
     91  CD2        9.1120   20.1730   87.1920 C.ar  339  PHE339     -0.0042
     92  CE1       10.1190   17.6270   87.1520 C.ar  339  PHE339     -0.0003
     93  CE2        8.8760   19.3490   86.1070 C.ar  339  PHE339     -0.0003
     94  CZ         9.3670   18.0750   86.0990 C.ar  339  PHE339     -0.0000
     95  N          8.6850    8.4930   89.7210 N.3   346  TYR346     -0.1241
     96  CA         9.7560    9.1750   89.0300 C.3   346  TYR346      0.1605
     97  C         10.4320   10.1560   89.9500 C.2   346  TYR346      0.2264
     98  O          9.7720   10.8330   90.7380 O.2   346  TYR346     -0.2867
     99  CB         9.2480    9.9540   87.7870 C.3   346  TYR346      0.0534
    100  CG        10.3870   10.4320   86.9250 C.ar  346  TYR346     -0.0201
    101  CD1       10.9550    9.5850   85.9910 C.ar  346  TYR346     -0.0009
    102  CD2       10.9270   11.7140   87.0650 C.ar  346  TYR346     -0.0009
    103  CE1       12.0480    9.9660   85.2430 C.ar  346  TYR346      0.0417
    104  CE2       11.9980   12.1270   86.2810 C.ar  346  TYR346      0.0417
    105  CZ        12.5510   11.2490   85.3720 C.ar  346  TYR346      0.1957
    106  OH        13.6100   11.6190   84.5920 O.3   346  TYR346     -0.2866
    107  N         13.7470   13.0950   89.4300 N.3   348  ASN348     -0.1240
    108  CA        14.7620   13.6870   88.5770 C.3   348  ASN348      0.1653
    109  C         16.1290   13.8650   89.2700 C.2   348  ASN348      0.2266
    110  O         16.9670   14.6470   88.8150 O.2   348  ASN348     -0.2867
    111  CB        14.2660   14.9910   87.9660 C.3   348  ASN348      0.1155
    112  CG        14.0360   16.0690   88.9800 C.2   348  ASN348      0.2627
    113  OD1       14.1930   15.8890   90.1800 O.2   348  ASN348     -0.2716
    114  ND2       13.6540   17.2420   88.4890 N.am  348  ASN348     -0.0877
    115  N         18.9350   16.2030   90.0960 N.3   351  LEU351     -0.1245
    116  CA        18.3770   17.5550   90.2550 C.3   351  LEU351      0.1561
    117  C         17.4940   17.7000   91.4990 C.2   351  LEU351      0.2260
    118  O         17.6400   18.6610   92.2530 O.2   351  LEU351     -0.2867
    119  CB        17.5660   17.9630   89.0500 C.3   351  LEU351      0.0270
    120  CG        18.3250   18.0370   87.7490 C.3   351  LEU351      0.0019
    121  CD1       17.3980   18.5870   86.6880 C.3   351  LEU351      0.0001
    122  CD2       19.5670   18.9270   87.8910 C.3   351  LEU351      0.0001
@<TRIPOS>BOND
     1    21    20    2
     2    29    30    1
     3    20    19    1
     4    32    31    2
     5    41    40    2
     6    40    39    1
     7    30    31    1
     8    30    33    1
     9    31    38   am
    10    33    34    1
    11    19    18    1
    12    19    22    1
    13    57    56    2
    14    22    23    1
    15    38    39    1
    16    39    42    1
    17    56    55    1
    18    49    48    2
    19    46    47    1
    20    34    35    1
    21    42    43    1
    22    48    47    1
    23    48    54   am
    24    35    36    1
    25    23    25   ar
    26    23    24   ar
    27    47    50    1
    28    55    54    1
    29    55    58    1
    30    25    27   ar
    31    24    26   ar
    32    50    51    1
    33    43    44    2
    34    43    45   am
    35    58    59    1
    36    36    37    1
    37    27    28   ar
    38    26    28   ar
    39    53    51   am
    40    51    52    2
    41    59    60    1
    42    61    60   ar
    43    13    12    2
    44    60    62   ar
    45    16    15    2
    46    14    15    1
    47    14    11    1
    48    15    17   am
    49    12    11    1
    50    11    10    1
    51    83    81   ar
    52   106   105    1
    53   103   105   ar
    54   103   101   ar
    55     9     7   am
    56   105   104   ar
    57    81    82   ar
    58    81    80    1
    59   101   100   ar
    60    94    93   ar
    61    94    92   ar
    62    93    91   ar
    63   104   102   ar
    64     7     8    2
    65     7     6    1
    66    80    79    1
    67   121   120    1
    68   100   102   ar
    69   100    99    1
    70    92    90   ar
    71    91    89   ar
    72    72    70   ar
    73    72    73   ar
    74     6     5    1
    75    70    68   ar
    76    74    73    1
    77   120   122    1
    78   120   119    1
    79    79    76    1
    80    99    96    1
    81    73    71   ar
    82   111   108    1
    83   111   112    1
    84    90    89   ar
    85    89    88    1
    86   114   112   am
    87    68    67    1
    88    68    69   ar
    89   108   109    1
    90   108   107    1
    91    75    76    1
    92     5     2    1
    93   110   109    2
    94    71    69   ar
    95    67    64    1
    96    76    77    1
    97   112   113    2
    98    96    95    1
    99    96    97    1
   100   119   116    1
   101    88    85    1
   102     3     2    1
   103     3     4    2
   104    63    64    1
   105     2     1    1
   106    78    77    2
   107    97    98    2
   108    64    65    1
   109   115   116    1
   110   116   117    1
   111    85    86    1
   112    85    84    1
   113    65    66    2
   114    86    87    2
   115   117   118    2
