@<TRIPOS>MOLECULE
tmp/4d1sA00.pdb
 199 190 0 0 0
SMALL
GASTEIGER

@<TRIPOS>ATOM
      1  N          3.7980   -4.3100   -3.9750 N.3    13  GLN13      -0.1231
      2  CA         4.9780   -3.5410   -3.5780 C.3    13  GLN13       0.1698
      3  C          4.8440   -3.1810   -2.0970 C.2    13  GLN13       0.2592
      4  O          3.7650   -2.8070   -1.6450 O.2    13  GLN13      -0.2718
      5  CB         5.1620   -2.2930   -4.4810 C.3    13  GLN13       0.0381
      6  CG         6.1540   -2.5200   -5.6240 C.3    13  GLN13       0.0905
      7  CD         7.5560   -2.1710   -5.1720 C.2    13  GLN13       0.2608
      8  OE1        7.7900   -1.9430   -3.9730 O.2    13  GLN13      -0.2717
      9  NE2        8.4910   -2.0780   -6.1220 N.am   13  GLN13      -0.0878
     10  N          5.9430   -3.3420   -1.3220 N.am   14  LEU14      -0.1966
     11  CA         5.9060   -3.0200    0.1140 C.3    14  LEU14       0.1728
     12  C          6.6930   -1.7620    0.5070 C.2    14  LEU14       0.2617
     13  O          6.3710   -1.1420    1.5590 O.2    14  LEU14      -0.2715
     14  CB         6.4730   -4.2000    0.9320 C.3    14  LEU14       0.0311
     15  CG         5.6490   -5.4800    0.7620 C.3    14  LEU14       0.0022
     16  CD1        6.3850   -6.5820    1.5110 C.3    14  LEU14       0.0001
     17  CD2        4.2260   -5.3420    1.3660 C.3    14  LEU14       0.0001
     18  N          7.7200   -1.4110   -0.2500 N.am   15  GLY15      -0.1940
     19  CA         8.5100   -0.2050    0.0710 C.3    15  GLY15       0.2014
     20  C          9.5390    0.0340   -1.0180 C.2    15  GLY15       0.2639
     21  O          9.9390   -0.8840   -1.7310 O.2    15  GLY15      -0.2714
     22  N          9.9540    1.3010   -1.1820 N.am   16  LYS16      -0.1963
     23  CA        10.9070    1.7000   -2.1870 C.3    16  LYS16       0.1728
     24  C         11.8010    2.7700   -1.5130 C.2    16  LYS16       0.2616
     25  O         11.3050    3.5550   -0.7450 O.2    16  LYS16      -0.2715
     26  CB        10.1710    2.2850   -3.4280 C.3    16  LYS16       0.0311
     27  CG        11.0420    2.3360   -4.6840 C.3    16  LYS16       0.0038
     28  CD        11.0860    3.7270   -5.3160 C.3    16  LYS16       0.0206
     29  CE        12.3180    3.9580   -6.2000 C.3    16  LYS16       0.1093
     30  NZ        12.2820    3.1160   -7.4370 N.3    16  LYS16      -0.1314
     31  N         13.1040    2.7170   -1.7190 N.am   17  GLY17      -0.1955
     32  CA        14.0270    3.8300   -1.3520 C.3    17  GLY17       0.1869
     33  C         14.8830    4.2460   -2.5630 C.2    17  GLY17       0.2309
     34  O         14.6270    3.7570   -3.6910 O.2    17  GLY17      -0.2863
     35  N         16.9840    0.5430   -3.2130 N.3    19  GLY19      -0.1210
     36  CA        16.3570   -0.7680   -3.3390 C.3    19  GLY19       0.1956
     37  C         14.8790   -0.7410   -3.0540 C.2    19  GLY19       0.2613
     38  O         14.2760    0.3160   -2.8210 O.2    19  GLY19      -0.2717
     39  N         14.2310   -1.9030   -3.1110 N.am   20  SER20      -0.1938
     40  CA        12.7710   -1.9250   -2.8890 C.3    20  SER20       0.2055
     41  C         12.4740   -3.3240   -2.3960 C.2    20  SER20       0.2642
     42  O         13.2670   -4.2500   -2.5720 O.2    20  SER20      -0.2714
     43  CB        11.8720   -1.7480   -4.1430 C.3    20  SER20       0.2130
     44  OG        12.1950   -2.7240   -5.1100 O.3    20  SER20      -0.2179
     45  N         11.3030   -3.4160   -1.8080 N.am   21  VAL21      -0.1977
     46  CA        10.8530   -4.7610   -1.3280 C.3    21  VAL21       0.1596
     47  C          9.4210   -5.0150   -1.8160 C.2    21  VAL21       0.2287
     48  O          8.5490   -4.1300   -1.7380 O.2    21  VAL21      -0.2864
     49  CB        10.9160   -4.8180    0.2450 C.3    21  VAL21       0.0276
     50  CG1       10.2720   -6.1200    0.7920 C.3    21  VAL21       0.0022
     51  CG2       12.3680   -4.6460    0.7010 C.3    21  VAL21       0.0022
     52  N          8.8290  -11.9390    1.5520 N.3    38  ALA38      -0.1245
     53  CA         9.2080  -10.5830    1.1840 C.3    38  ALA38       0.1562
     54  C         10.4940  -10.6760    0.4210 C.2    38  ALA38       0.2260
     55  O         11.4010  -11.4330    0.7980 O.2    38  ALA38      -0.2867
     56  CB         9.3760   -9.6680    2.4210 C.3    38  ALA38       0.0290
     57  N         13.6370   -8.5460   -1.3630 N.3    40  LYS40      -0.1245
     58  CA        14.3690   -7.2810   -1.4610 C.3    40  LYS40       0.1561
     59  C         15.2790   -7.3010   -2.7170 C.2    40  LYS40       0.2260
     60  O         15.9920   -8.2220   -2.9730 O.2    40  LYS40      -0.2867
     61  CB        15.2330   -7.0920   -0.2040 C.3    40  LYS40       0.0271
     62  CG        15.9260   -5.7180   -0.2050 C.3    40  LYS40       0.0035
     63  CD        16.3180   -5.4000    1.2770 C.3    40  LYS40       0.0206
     64  CE        17.0530   -4.0710    1.3410 C.3    40  LYS40       0.1093
     65  NZ        17.3920   -3.7550    2.7700 N.3    40  LYS40      -0.1314
     66  N         25.0680   -7.6430    3.4070 N.3    56  GLU56      -0.1301
     67  CA        23.7730   -7.5740    4.1390 C.3    56  GLU56       0.1252
     68  C         23.1140   -8.9540    4.1700 C.3    56  GLU56       0.2009
     69  O         22.5970   -9.4480    5.2440 O.3    56  GLU56      -0.2188
     70  CB        22.8430   -6.5550    3.4580 C.3    56  GLU56       0.0335
     71  CG        21.4010   -6.5980    4.0340 C.3    56  GLU56       0.1156
     72  CD        20.4790   -5.5890    3.3360 C.2    56  GLU56       0.3649
     73  OE1       20.9720   -4.8210    2.4780 O.co2  56  GLU56      -0.2457
     74  OE2       19.2650   -5.5470    3.6860 O.co2  56  GLU56      -0.2457
     75  N         14.0590  -10.3320   11.7570 N.3    69  VAL69      -0.1245
     76  CA        13.3640  -10.9080   10.5830 C.3    69  VAL69       0.1561
     77  C         14.0940  -12.1260    9.9700 C.2    69  VAL69       0.2260
     78  O         15.2900  -12.0980    9.8690 O.2    69  VAL69      -0.2867
     79  CB        13.1470   -9.7820    9.5160 C.3    69  VAL69       0.0252
     80  CG1       14.4170   -9.2480    8.9550 C.3    69  VAL69       0.0019
     81  CG2       12.2210  -10.2710    8.3750 C.3    69  VAL69       0.0019
     82  N         13.0380  -13.0310    2.3890 N.3    87  MET87      -0.1230
     83  CA        12.8090  -13.0110    3.8750 C.3    87  MET87       0.1702
     84  C         11.3780  -13.3910    4.1590 C.2    87  MET87       0.2592
     85  O         10.4960  -13.4370    3.2800 O.2    87  MET87      -0.2718
     86  CB        12.8940  -11.5080    4.3800 C.3    87  MET87       0.0401
     87  CG        14.2380  -10.8640    4.3270 C.3    87  MET87       0.0596
     88  SD        13.7600   -9.1290    4.6880 S.3    87  MET87      -0.1393
     89  CE        13.7250   -8.4510    3.0420 C.3    87  MET87       0.0692
     90  N         11.1380  -13.7580    5.4200 N.am   88  GLU88      -0.1966
     91  CA         9.6810  -13.9350    5.7970 C.3    88  GLU88       0.1733
     92  C          8.9520  -12.6150    5.6160 C.2    88  GLU88       0.2616
     93  O          9.5650  -11.5560    5.6580 O.2    88  GLU88      -0.2715
     94  CB         9.5430  -14.4270    7.2470 C.3    88  GLU88       0.0429
     95  CG        10.0160  -13.4080    8.2600 C.3    88  GLU88       0.1163
     96  CD         9.8120  -13.8630    9.7010 C.2    88  GLU88       0.3649
     97  OE1        8.9370  -14.7330   10.0200 O.co2  88  GLU88      -0.2457
     98  OE2       10.4920  -13.2980   10.5550 O.co2  88  GLU88      -0.2457
     99  N          7.6170  -12.7470    5.4330 N.am   89  TYR89      -0.1960
    100  CA         6.7080  -11.6270    5.2310 C.3    89  TYR89       0.1771
    101  C          6.0230  -11.3550    6.6100 C.2    89  TYR89       0.2619
    102  O          5.4680  -12.2870    7.2410 O.2    89  TYR89      -0.2715
    103  CB         5.6720  -11.9610    4.1810 C.3    89  TYR89       0.0574
    104  CG         4.6590  -10.8520    4.0880 C.ar   89  TYR89      -0.0198
    105  CD1        5.0790   -9.5330    3.6730 C.ar   89  TYR89      -0.0009
    106  CD2        3.3930  -11.0430    4.5960 C.ar   89  TYR89      -0.0009
    107  CE1        4.1730   -8.4730    3.6020 C.ar   89  TYR89       0.0417
    108  CE2        2.4900   -9.9920    4.5870 C.ar   89  TYR89       0.0417
    109  CZ         2.9020   -8.7040    4.1160 C.ar   89  TYR89       0.1957
    110  OH         1.9830   -7.6560    4.1090 O.3    89  TYR89      -0.2866
    111  N          6.1810  -10.1300    7.0950 N.am   90  LEU90      -0.1964
    112  CA         5.5650   -9.7320    8.3690 C.3    90  LEU90       0.1713
    113  C          4.3980   -8.8140    8.0350 C.2    90  LEU90       0.2458
    114  O          4.5870   -7.7360    7.4590 O.2    90  LEU90      -0.2730
    115  CB         6.6270   -9.0430    9.2540 C.3    90  LEU90       0.0310
    116  CG         7.8040  -10.0200    9.6120 C.3    90  LEU90       0.0022
    117  CD1        8.8180   -9.2570   10.4650 C.3    90  LEU90       0.0001
    118  CD2        7.4240  -11.3710   10.2190 C.3    90  LEU90       0.0001
    119  N          3.1640   -9.2090    8.3750 N.am   91  PRO91      -0.2716
    120  CA         2.0140   -8.4950    7.7660 C.3    91  PRO91       0.1536
    121  C          1.7700   -7.0750    8.1720 C.2    91  PRO91       0.2599
    122  O          1.1270   -6.3650    7.4050 O.2    91  PRO91      -0.2715
    123  CB         0.7940   -9.3260    8.2440 C.3    91  PRO91       0.0310
    124  CG         1.3030  -10.6670    8.5320 C.3    91  PRO91       0.0237
    125  CD         2.7630  -10.4380    9.0640 C.3    91  PRO91       0.0939
    126  N          2.3020   -6.5820    9.3130 N.am   92  TYR92      -0.1960
    127  CA         1.8750   -5.2810    9.7240 C.3    92  TYR92       0.1771
    128  C          2.9020   -4.2040    9.4080 C.2    92  TYR92       0.2620
    129  O          2.6810   -3.0510    9.7930 O.2    92  TYR92      -0.2715
    130  CB         1.4920   -5.3350   11.2170 C.3    92  TYR92       0.0574
    131  CG         0.2070   -6.0430   11.4060 C.ar   92  TYR92      -0.0198
    132  CD1       -0.9810   -5.3610   11.1830 C.ar   92  TYR92      -0.0009
    133  CD2        0.1870   -7.3700   11.7220 C.ar   92  TYR92      -0.0009
    134  CE1       -2.1800   -6.0070   11.3780 C.ar   92  TYR92       0.0417
    135  CE2       -1.0360   -8.0630   11.8690 C.ar   92  TYR92       0.0417
    136  CZ        -2.1770   -7.3460   11.6910 C.ar   92  TYR92       0.1957
    137  OH        -3.3520   -8.0290   11.8770 O.3    92  TYR92      -0.2866
    138  N          3.9490   -4.5270    8.6720 N.am   93  GLY93      -0.1940
    139  CA         4.8760   -3.4960    8.1070 C.3    93  GLY93       0.2014
    140  C          5.7330   -2.8590    9.1720 C.2    93  GLY93       0.2636
    141  O          6.0160   -3.5060   10.1930 O.2    93  GLY93      -0.2714
    142  N          6.2030   -1.6460    8.8970 N.am   94  SER94      -0.2003
    143  CA         7.1510   -1.0690    9.8420 C.3    94  SER94       0.1610
    144  C          6.4280   -0.6420   11.1070 C.3    94  SER94       0.2063
    145  O          5.2100   -0.2320   11.1440 O.3    94  SER94      -0.2184
    146  CB         7.8320    0.1900    9.2390 C.3    94  SER94       0.2063
    147  OG         6.9220    1.2970    9.1300 O.3    94  SER94      -0.2184
    148  N          4.9830    2.8330   10.8460 N.3    97  ASP97      -0.1239
    149  CA         3.6480    2.8700   10.1410 C.3    97  ASP97       0.1674
    150  C          2.5570    2.3140   11.0470 C.2    97  ASP97       0.2266
    151  O          1.4910    2.9110   11.1790 O.2    97  ASP97      -0.2867
    152  CB         3.7050    2.1320    8.8260 C.3    97  ASP97       0.1410
    153  CG         4.4300    2.9200    7.7520 C.2    97  ASP97       0.3668
    154  OD1        4.7380    4.1220    7.9770 O.co2  97  ASP97      -0.2456
    155  OD2        4.6790    2.3220    6.7000 O.co2  97  ASP97      -0.2456
    156  N         -0.7290    4.2120   12.5060 N.3   101  LYS101     -0.1245
    157  CA        -2.0510    3.8180   11.9650 C.3   101  LYS101      0.1561
    158  C         -2.9470    3.2100   13.0420 C.2   101  LYS101      0.2260
    159  O         -4.1210    3.5600   13.1260 O.2   101  LYS101     -0.2867
    160  CB        -1.9490    2.9190   10.7360 C.3   101  LYS101      0.0271
    161  CG        -1.5590    3.7530    9.5170 C.3   101  LYS101      0.0035
    162  CD        -1.1430    2.9380    8.3050 C.3   101  LYS101      0.0206
    163  CE        -0.0410    3.7130    7.5870 C.3   101  LYS101      0.1093
    164  NZ        -0.2490    3.8120    6.1260 N.3   101  LYS101     -0.1314
    165  N         11.2250    2.9640   11.8200 N.3   138  ARG138     -0.1231
    166  CA        11.0680    2.6730   10.3850 C.3   138  ARG138      0.1694
    167  C         11.7210    1.3230    9.9900 C.2   138  ARG138      0.2592
    168  O         11.3750    0.7430    8.9490 O.2   138  ARG138     -0.2718
    169  CB        11.6160    3.8780    9.5340 C.3   138  ARG138      0.0321
    170  CG        13.1270    4.0710    9.5480 C.3   138  ARG138      0.0489
    171  CD        13.5930    5.2160    8.5780 C.3   138  ARG138      0.2205
    172  NE        14.3650    6.0320    9.5260 N.pl3 138  ARG138     -0.0865
    173  CZ        15.6810    6.0630    9.7680 C.cat 138  ARG138      0.5346
    174  NH1       16.5560    5.4370    8.9750 N.pl3 138  ARG138      0.1354
    175  NH2       16.1240    6.8440   10.7970 N.pl3 138  ARG138      0.1354
    176  N         12.6550    0.8240   10.7890 N.am  139  ASN139     -0.1974
    177  CA        13.4770   -0.3580   10.4430 C.3   139  ASN139      0.1688
    178  C         13.1180   -1.5150   11.2940 C.2   139  ASN139      0.2292
    179  O         13.8010   -2.5560   11.2160 O.2   139  ASN139     -0.2864
    180  CB        14.9580   -0.0310   10.5820 C.3   139  ASN139      0.1181
    181  CG        15.4570    0.8290    9.3940 C.2   139  ASN139      0.2629
    182  OD1       14.9330    0.7340    8.2370 O.2   139  ASN139     -0.2716
    183  ND2       16.4100    1.6970    9.6580 N.am  139  ASN139     -0.0877
    184  N         10.0250   -4.2220   12.1830 N.3   141  LEU141     -0.1245
    185  CA         8.8490   -4.7640   11.5050 C.3   141  LEU141      0.1561
    186  C          7.9150   -5.4390   12.4660 C.2   141  LEU141      0.2260
    187  O          8.3680   -5.9340   13.4950 O.2   141  LEU141     -0.2867
    188  CB         9.3010   -5.7610   10.4140 C.3   141  LEU141      0.0270
    189  CG        10.1390   -5.0890    9.3030 C.3   141  LEU141      0.0019
    190  CD1       10.7790   -6.2620    8.5420 C.3   141  LEU141      0.0001
    191  CD2        9.2570   -4.2370    8.3920 C.3   141  LEU141      0.0001
    192  N         16.2470   -4.5370    8.3160 N.3   152  ASP152     -0.1239
    193  CA        17.1440   -3.7170    7.5900 C.3   152  ASP152      0.1674
    194  C         18.5790   -3.6500    8.0330 C.2   152  ASP152      0.2266
    195  O         19.0640   -2.6970    8.6100 O.2   152  ASP152     -0.2867
    196  CB        16.6100   -2.3670    7.2640 C.3   152  ASP152      0.1410
    197  CG        17.3130   -1.7770    6.0550 C.2   152  ASP152      0.3668
    198  OD1       18.4150   -2.1700    5.7750 O.co2 152  ASP152     -0.2456
    199  OD2       16.7370   -0.9430    5.3950 O.co2 152  ASP152     -0.2456
@<TRIPOS>BOND
     1    30    29    1
     2    29    28    1
     3     9     7   am
     4     6     7    1
     5     6     5    1
     6    28    27    1
     7     7     8    2
     8    44    43    1
     9    27    26    1
    10     5     2    1
    11    43    40    1
    12     1     2    1
    13    34    33    2
    14     2     3    1
    15    26    23    1
    16    36    35    1
    17    36    37    1
    18    39    37   am
    19    39    40    1
    20    37    38    2
    21    60    59    2
    22    40    41    1
    23    59    58    1
    24    42    41    2
    25    33    32    1
    26    41    45   am
    27    23    24    1
    28    23    22    1
    29     3     4    2
    30     3    10   am
    31    47    48    2
    32    47    46    1
    33    45    46    1
    34    21    20    2
    35    31    24   am
    36    31    32    1
    37    24    25    2
    38    58    57    1
    39    58    61    1
    40    46    49    1
    41    10    11    1
    42    22    20   am
    43    20    19    1
    44    18    19    1
    45    18    12   am
    46    62    61    1
    47    62    63    1
    48    11    12    1
    49    11    14    1
    50    49    51    1
    51    49    50    1
    52    54    55    2
    53    54    53    1
    54    12    13    2
    55    15    14    1
    56    15    17    1
    57    15    16    1
    58    53    52    1
    59    53    56    1
    60    63    64    1
    61    64    65    1
    62    82    83    1
    63    73    72   ar
    64    89    88    1
    65    85    84    2
    66    72    74   ar
    67    72    71    1
    68    66    67    1
    69    70    71    1
    70    70    67    1
    71   107   105   ar
    72   107   109   ar
    73   105   104   ar
    74    83    84    1
    75    83    86    1
    76   104   103    1
    77   104   106   ar
    78   110   109    1
    79   109   108   ar
    80    67    68    1
    81    84    90   am
    82    68    69    1
    83   103   100    1
    84    87    86    1
    85    87    88    1
    86   108   106   ar
    87   100    99    1
    88   100   101    1
    89   199   197   ar
    90    90    91    1
    91    99    92   am
    92    92    93    2
    93    92    91    1
    94   198   197   ar
    95    91    94    1
    96   197   196    1
    97   164   163    1
    98   101   111   am
    99   101   102    2
   100   155   153   ar
   101   111   112    1
   102    94    95    1
   103   196   193    1
   104   122   121    2
   105   114   113    2
   106   163   162    1
   107   193   194    1
   108   193   192    1
   109   153   154   ar
   110   153   152    1
   111   120   121    1
   112   120   123    1
   113   120   119    1
   114   194   195    2
   115   113   112    1
   116   113   119   am
   117   139   138    1
   118   139   140    1
   119   121   126   am
   120   182   181    2
   121   123   124    1
   122    95    96    1
   123   162   161    1
   124   112   115    1
   125   119   125    1
   126    81    79    1
   127   191   189    1
   128   124   125    1
   129   190   189    1
   130   171   172    1
   131   171   170    1
   132   138   128   am
   133   152   149    1
   134   142   140   am
   135   142   143    1
   136   168   167    2
   137    80    79    1
   138   174   173    1
   139   147   146    1
   140   140   141    2
   141   146   143    1
   142   115   116    1
   143   189   188    1
   144   126   127    1
   145   181   183   am
   146   181   180    1
   147   128   127    1
   148   128   129    2
   149    79    76    1
   150   161   160    1
   151   172   173    2
   152   169   170    1
   153   169   166    1
   154   116   118    1
   155   116   117    1
   156    96    97   ar
   157    96    98   ar
   158   127   130    1
   159   173   175    1
   160   143   144    1
   161    78    77    2
   162    77    76    1
   163   167   166    1
   164   167   176   am
   165   149   148    1
   166   149   150    1
   167   166   165    1
   168   188   185    1
   169   177   180    1
   170   177   176    1
   171   177   178    1
   172    76    75    1
   173   160   157    1
   174   150   151    2
   175   144   145    1
   176   132   134   ar
   177   132   131   ar
   178   179   178    2
   179   130   131    1
   180   134   136   ar
   181   131   133   ar
   182   185   184    1
   183   185   186    1
   184   136   135   ar
   185   136   137    1
   186   133   135   ar
   187   157   156    1
   188   157   158    1
   189   186   187    2
   190   158   159    2
