@<TRIPOS>MOLECULE
tmp/4d1xA00.pdb
 166 158 0 0 0
SMALL
GASTEIGER

@<TRIPOS>ATOM
      1  N         -0.4980  -11.4570  -31.4390 N.3     8  ILE8       -0.1231
      2  CA         0.4340  -11.0130  -30.4050 C.3     8  ILE8        0.1692
      3  C          0.2970  -11.9220  -29.1870 C.2     8  ILE8        0.2593
      4  O          1.2860  -12.2600  -28.5310 O.2     8  ILE8       -0.2718
      5  CB         0.1950   -9.5320  -30.0040 C.3     8  ILE8        0.0266
      6  CG1        0.3740   -8.6090  -31.2130 C.3     8  ILE8        0.0019
      7  CG2        1.1380   -9.1130  -28.8850 C.3     8  ILE8        0.0020
      8  CD1        0.1560   -7.1340  -30.9090 C.3     8  ILE8        0.0001
      9  N         -0.9360  -12.3320  -28.9030 N.am    9  GLY9       -0.1942
     10  CA        -1.1810  -13.3020  -27.8540 C.3     9  GLY9        0.2014
     11  C         -2.6250  -13.3990  -27.4080 C.2     9  GLY9        0.2639
     12  O         -3.5430  -12.9750  -28.1130 O.2     9  GLY9       -0.2714
     13  N         -2.8180  -13.9700  -26.2250 N.am   10  GLU10      -0.1963
     14  CA        -4.1410  -14.1120  -25.6360 C.3    10  GLU10       0.1733
     15  C         -4.1500  -13.4290  -24.2760 C.2    10  GLU10       0.2617
     16  O         -3.4300  -13.8380  -23.3650 O.2    10  GLU10      -0.2715
     17  CB        -4.5020  -15.5900  -25.4860 C.3    10  GLU10       0.0429
     18  CG        -5.7630  -15.7570  -24.6370 C.3    10  GLU10       0.1163
     19  CD        -6.4090  -17.1290  -24.7020 C.2    10  GLU10       0.3649
     20  OE1       -5.8720  -18.0230  -25.3810 O.co2  10  GLU10      -0.2457
     21  OE2       -7.4760  -17.2970  -24.0700 O.co2  10  GLU10      -0.2457
     22  N         -4.9630  -12.3870  -24.1400 N.am   11  GLY11      -0.1940
     23  CA        -4.9620  -11.5790  -22.9340 C.3    11  GLY11       0.2014
     24  C         -5.7640  -12.1590  -21.7870 C.2    11  GLY11       0.2640
     25  O         -5.8690  -13.3770  -21.6400 O.2    11  GLY11      -0.2714
     26  N         -6.3240  -11.2730  -20.9680 N.am   12  THR12      -0.1936
     27  CA        -7.1470  -11.6710  -19.8310 C.3    12  THR12       0.2028
     28  C         -8.6240  -11.4120  -20.1340 C.2    12  THR12       0.2642
     29  O         -9.5090  -11.9010  -19.4300 O.2    12  THR12      -0.2714
     30  CB        -6.7450  -10.9110  -18.5470 C.3    12  THR12       0.1808
     31  OG1       -5.4830  -10.2580  -18.7440 O.3    12  THR12      -0.2208
     32  CG2       -6.6400  -11.8660  -17.3650 C.3    12  THR12       0.0379
     33  N         -8.8740  -10.6390  -21.1880 N.am   13  TYR13      -0.1973
     34  CA       -10.2290  -10.3240  -21.6250 C.3    13  TYR13       0.1639
     35  C        -10.4890  -10.9540  -22.9860 C.2    13  TYR13       0.2290
     36  O        -11.6050  -11.3850  -23.2830 O.2    13  TYR13      -0.2864
     37  CB       -10.4200   -8.8080  -21.7160 C.3    13  TYR13       0.0560
     38  CG        -9.9040   -8.0550  -20.5130 C.ar   13  TYR13      -0.0198
     39  CD1      -10.6600   -7.9650  -19.3530 C.ar   13  TYR13      -0.0009
     40  CD2       -8.6630   -7.4330  -20.5380 C.ar   13  TYR13      -0.0009
     41  CE1      -10.1940   -7.2810  -18.2510 C.ar   13  TYR13       0.0417
     42  CE2       -8.1890   -6.7470  -19.4400 C.ar   13  TYR13       0.0417
     43  CZ        -8.9590   -6.6730  -18.3000 C.ar   13  TYR13       0.1957
     44  OH        -8.4920   -5.9910  -17.2020 O.3    13  TYR13      -0.2866
     45  N         -5.2620  -10.8160  -28.6460 N.3    16  VAL16      -0.1245
     46  CA        -4.5790   -9.6080  -29.1040 C.3    16  VAL16       0.1561
     47  C         -3.9520   -9.8180  -30.4830 C.2    16  VAL16       0.2260
     48  O         -3.3020  -10.8360  -30.7280 O.2    16  VAL16      -0.2867
     49  CB        -3.4990   -9.1540  -28.0990 C.3    16  VAL16       0.0252
     50  CG1       -3.0010   -7.7680  -28.4430 C.3    16  VAL16       0.0019
     51  CG2       -4.0560   -9.1550  -26.6890 C.3    16  VAL16       0.0019
     52  N         -2.2320   -2.3240  -32.2450 N.3    29  ALA29      -0.1245
     53  CA        -2.5560   -3.5400  -31.5130 C.3    29  ALA29       0.1562
     54  C         -4.0580   -3.5640  -31.2710 C.2    29  ALA29       0.2260
     55  O         -4.6350   -2.5790  -30.8020 O.2    29  ALA29      -0.2867
     56  CB        -1.8040   -3.5920  -30.2020 C.3    29  ALA29       0.0290
     57  N         -7.3440   -5.4600  -29.4950 N.3    31  LYS31      -0.1245
     58  CA        -7.8420   -6.4030  -28.5080 C.3    31  LYS31       0.1561
     59  C         -9.3310   -6.6000  -28.7110 C.2    31  LYS31       0.2260
     60  O        -10.1010   -5.6390  -28.7100 O.2    31  LYS31      -0.2867
     61  CB        -7.5460   -5.9150  -27.0910 C.3    31  LYS31       0.0271
     62  CG        -6.1180   -5.4470  -26.9260 C.3    31  LYS31       0.0035
     63  CD        -5.6040   -5.6560  -25.5190 C.3    31  LYS31       0.0206
     64  CE        -4.1700   -5.1730  -25.4180 C.3    31  LYS31       0.1093
     65  NZ        -3.5730   -5.4490  -24.0870 N.3    31  LYS31      -0.1314
     66  N          0.7030    2.8420  -22.4140 N.3    51  VAL51      -0.1245
     67  CA         0.3580    2.4640  -23.7830 C.3    51  VAL51       0.1561
     68  C         -0.9290    3.1640  -24.2000 C.2    51  VAL51       0.2260
     69  O         -1.9750    2.9780  -23.5770 O.2    51  VAL51      -0.2867
     70  CB         0.1810    0.9430  -23.9180 C.3    51  VAL51       0.0252
     71  CG1       -0.2070    0.5780  -25.3410 C.3    51  VAL51       0.0019
     72  CG2        1.4560    0.2290  -23.5090 C.3    51  VAL51       0.0019
     73  N         -4.9760   -0.1660  -29.6870 N.3    67  PHE67      -0.1227
     74  CA        -3.8550    0.3500  -28.9070 C.3    67  PHE67       0.1736
     75  C         -2.6630    0.7580  -29.7640 C.2    67  PHE67       0.2595
     76  O         -2.4740    0.2580  -30.8730 O.2    67  PHE67      -0.2718
     77  CB        -3.3950   -0.6840  -27.8750 C.3    67  PHE67       0.0547
     78  CG        -4.3610   -0.8890  -26.7460 C.ar   67  PHE67      -0.0202
     79  CD1       -4.3870   -0.0120  -25.6700 C.ar   67  PHE67      -0.0042
     80  CD2       -5.2320   -1.9660  -26.7520 C.ar   67  PHE67      -0.0042
     81  CE1       -5.2720   -0.2000  -24.6240 C.ar   67  PHE67      -0.0003
     82  CE2       -6.1160   -2.1630  -25.7100 C.ar   67  PHE67      -0.0003
     83  CZ        -6.1390   -1.2790  -24.6450 C.ar   67  PHE67      -0.0000
     84  N         -1.8750    1.6870  -29.2350 N.am   68  GLU68      -0.1965
     85  CA        -0.5570    2.0000  -29.7650 C.3    68  GLU68       0.1733
     86  C          0.2440    0.7030  -29.8270 C.2    68  GLU68       0.2616
     87  O          0.2050   -0.0910  -28.8880 O.2    68  GLU68      -0.2715
     88  CB         0.1130    3.0010  -28.8240 C.3    68  GLU68       0.0429
     89  CG         1.6010    3.2060  -29.0190 C.3    68  GLU68       0.1163
     90  CD         2.2080    4.0120  -27.8910 C.2    68  GLU68       0.3649
     91  OE1        1.4870    4.2950  -26.9100 O.co2  68  GLU68      -0.2457
     92  OE2        3.4010    4.3630  -27.9820 O.co2  68  GLU68      -0.2457
     93  N          0.9540    0.4740  -30.9280 N.am   69  PHE69      -0.1960
     94  CA         1.7090   -0.7670  -31.0820 C.3    69  PHE69       0.1771
     95  C          3.1710   -0.6480  -30.6710 C.2    69  PHE69       0.2619
     96  O          3.8790    0.2670  -31.0960 O.2    69  PHE69      -0.2715
     97  CB         1.6220   -1.3070  -32.5120 C.3    69  PHE69       0.0574
     98  CG         2.3970   -2.5820  -32.7220 C.ar   69  PHE69      -0.0200
     99  CD1        1.8450   -3.8070  -32.3770 C.ar   69  PHE69      -0.0042
    100  CD2        3.6790   -2.5540  -33.2560 C.ar   69  PHE69      -0.0042
    101  CE1        2.5560   -4.9800  -32.5620 C.ar   69  PHE69      -0.0003
    102  CE2        4.3950   -3.7230  -33.4420 C.ar   69  PHE69      -0.0003
    103  CZ         3.8340   -4.9370  -33.0950 C.ar   69  PHE69      -0.0000
    104  N          3.6100   -1.5930  -29.8450 N.am   70  LEU70      -0.1977
    105  CA         5.0180   -1.7320  -29.4970 C.3    70  LEU70       0.1596
    106  C          5.4590   -3.1680  -29.7780 C.2    70  LEU70       0.2287
    107  O          4.6760   -4.1070  -29.6260 O.2    70  LEU70      -0.2864
    108  CB         5.2680   -1.3440  -28.0360 C.3    70  LEU70       0.0297
    109  CG         5.2090    0.1520  -27.7000 C.3    70  LEU70       0.0022
    110  CD1        3.7810    0.6360  -27.4910 C.3    70  LEU70       0.0001
    111  CD2        6.0580    0.4680  -26.4830 C.3    70  LEU70       0.0001
    112  N          7.6030   -7.1430  -25.3820 N.3    73  ASP73      -0.1239
    113  CA         7.2740   -6.9820  -23.9680 C.3    73  ASP73       0.1674
    114  C          8.4670   -7.2980  -23.0690 C.2    73  ASP73       0.2266
    115  O          9.4930   -7.7940  -23.5380 O.2    73  ASP73      -0.2867
    116  CB         6.0410   -7.8120  -23.5680 C.3    73  ASP73       0.1410
    117  CG         6.2290   -9.3080  -23.7810 C.2    73  ASP73       0.3668
    118  OD1        7.3080   -9.8470  -23.4590 O.co2  73  ASP73      -0.2456
    119  OD2        5.2750   -9.9580  -24.2580 O.co2  73  ASP73      -0.2456
    120  N          1.9560   -7.4470  -14.9350 N.3   116  LYS116     -0.1245
    121  CA         2.8350   -8.5830  -15.2080 C.3   116  LYS116      0.1561
    122  C          3.7190   -8.2430  -16.4070 C.2   116  LYS116      0.2260
    123  O          3.3730   -7.3560  -17.1860 O.2   116  LYS116     -0.2867
    124  CB         2.0220   -9.8640  -15.4490 C.3   116  LYS116      0.0271
    125  CG         0.8920   -9.7340  -16.4530 C.3   116  LYS116      0.0035
    126  CD         0.0330  -10.9930  -16.4600 C.3   116  LYS116      0.0206
    127  CE        -1.1950  -10.8210  -17.3410 C.3   116  LYS116      0.1093
    128  NZ        -1.9520   -9.5910  -16.9890 N.3   116  LYS116     -0.1314
    129  N          4.0930   -9.3330  -19.2550 N.3   118  GLN118     -0.1231
    130  CA         3.4740   -9.4060  -20.5770 C.3   118  GLN118      0.1698
    131  C          2.7320   -8.1290  -20.9780 C.2   118  GLN118      0.2592
    132  O          2.5190   -7.8850  -22.1670 O.2   118  GLN118     -0.2718
    133  CB         2.5370  -10.6130  -20.6780 C.3   118  GLN118      0.0381
    134  CG         3.2090  -11.9630  -20.4690 C.3   118  GLN118      0.0905
    135  CD         3.1770  -12.4170  -19.0210 C.2   118  GLN118      0.2608
    136  OE1        3.7870  -11.7980  -18.1490 O.2   118  GLN118     -0.2717
    137  NE2        2.4590  -13.5020  -18.7580 N.am  118  GLN118     -0.0878
    138  N          2.3300   -7.3230  -19.9960 N.am  119  ASN119     -0.1974
    139  CA         1.6950   -6.0380  -20.3010 C.3   119  ASN119      0.1688
    140  C          2.5960   -4.8290  -20.0260 C.2   119  ASN119      0.2292
    141  O          2.1240   -3.6960  -19.8940 O.2   119  ASN119     -0.2864
    142  CB         0.3070   -5.9010  -19.6460 C.3   119  ASN119      0.1181
    143  CG         0.3370   -6.0720  -18.1380 C.2   119  ASN119      0.2629
    144  OD1        1.2690   -5.6360  -17.4660 O.2   119  ASN119     -0.2716
    145  ND2       -0.7020   -6.7000  -17.5970 N.am  119  ASN119     -0.0877
    146  N          5.5080   -2.9930  -22.0320 N.3   121  LEU121     -0.1245
    147  CA         6.0350   -2.9610  -23.3910 C.3   121  LEU121      0.1561
    148  C          7.2090   -2.0010  -23.5260 C.2   121  LEU121      0.2260
    149  O          7.2260   -0.9340  -22.9160 O.2   121  LEU121     -0.2867
    150  CB         4.9270   -2.5820  -24.3700 C.3   121  LEU121      0.0270
    151  CG         3.7460   -3.5500  -24.3820 C.3   121  LEU121      0.0019
    152  CD1        2.5300   -2.8890  -24.9810 C.3   121  LEU121      0.0001
    153  CD2        4.1000   -4.8080  -25.1560 C.3   121  LEU121      0.0001
    154  N          0.5200   -1.3730  -20.1100 N.3   131  ALA131     -0.1231
    155  CA        -0.6860   -1.6380  -20.8890 C.3   131  ALA131      0.1694
    156  C         -1.7860   -2.2200  -20.0080 C.2   131  ALA131      0.2592
    157  O         -1.4970   -2.8880  -19.0140 O.2   131  ALA131     -0.2718
    158  CB        -0.3820   -2.5700  -22.0510 C.3   131  ALA131      0.0304
    159  N         -3.0360   -1.9470  -20.3890 N.am  132  ASP132     -0.1974
    160  CA        -4.2520   -2.4600  -19.7320 C.3   132  ASP132      0.1709
    161  C         -4.6780   -1.7470  -18.4420 C.2   132  ASP132      0.2293
    162  O         -5.3770   -2.3330  -17.6150 O.2   132  ASP132     -0.2864
    163  CB        -4.1840   -3.9780  -19.4890 C.3   132  ASP132      0.1436
    164  CG        -4.0960   -4.7750  -20.7720 C.2   132  ASP132      0.3671
    165  OD1       -4.2230   -4.1720  -21.8550 O.co2 132  ASP132     -0.2456
    166  OD2       -3.9130   -6.0080  -20.6950 O.co2 132  ASP132     -0.2456
@<TRIPOS>BOND
     1   102   100   ar
     2   102   103   ar
     3   100    98   ar
     4   103   101   ar
     5    98    97    1
     6    98    99   ar
     7   101    99   ar
     8    97    94    1
     9    52    53    1
    10    53    54    1
    11    53    56    1
    12     1     2    1
    13    54    55    2
    14     6     8    1
    15     6     5    1
    16    96    95    2
    17    94    93    1
    18    94    95    1
    19    93    86   am
    20    76    75    2
    21    48    47    2
    22    95   104   am
    23    47    46    1
    24     2     5    1
    25     2     3    1
    26     5     7    1
    27   104   105    1
    28    86    85    1
    29    86    87    2
    30   106   107    2
    31   106   105    1
    32    85    84    1
    33    85    88    1
    34    75    84   am
    35    75    74    1
    36    73    74    1
    37   105   108    1
    38    57    58    1
    39     3     9   am
    40     3     4    2
    41    46    45    1
    42    46    49    1
    43    89    88    1
    44    89    90    1
    45    74    77    1
    46     9    10    1
    47    59    60    2
    48    59    58    1
    49    58    61    1
    50    50    49    1
    51    12    11    2
    52    49    51    1
    53   108   109    1
    54    92    90   ar
    55    90    91   ar
    56    77    78    1
    57    10    11    1
    58   109   110    1
    59   109   111    1
    60    11    13   am
    61    61    62    1
    62    62    63    1
    63    80    78   ar
    64    80    82   ar
    65    78    79   ar
    66    13    14    1
    67    82    83   ar
    68    79    81   ar
    69    14    17    1
    70    14    15    1
    71    63    64    1
    72    17    18    1
    73    64    65    1
    74   112   113    1
    75    20    19   ar
    76    71    70    1
    77   153   151    1
    78   152   151    1
    79    19    18    1
    80    19    21   ar
    81    83    81   ar
    82   151   150    1
    83   150   147    1
    84    15    22   am
    85    15    16    2
    86   119   117   ar
    87    68    67    1
    88    68    69    2
    89    22    23    1
    90   113   116    1
    91   113   114    1
    92    70    67    1
    93    70    72    1
    94    67    66    1
    95   117   116    1
    96   117   118   ar
    97   115   114    2
    98   148   147    1
    99   148   149    2
   100   147   146    1
   101    36    35    2
   102    35    34    1
   103    23    24    1
   104   132   131    2
   105   158   155    1
   106   165   164   ar
   107    24    25    2
   108    24    26   am
   109    37    34    1
   110    37    38    1
   111    34    33    1
   112    33    28   am
   113   131   130    1
   114   131   138   am
   115    26    27    1
   116   155   154    1
   117   155   156    1
   118   164   166   ar
   119   164   163    1
   120   133   130    1
   121   133   134    1
   122   130   129    1
   123    40    38   ar
   124    40    42   ar
   125    38    39   ar
   126   134   135    1
   127   159   156   am
   128   159   160    1
   129   139   140    1
   130   139   138    1
   131   139   142    1
   132    28    27    1
   133    28    29    2
   134   140   141    2
   135   156   157    2
   136    27    30    1
   137   160   163    1
   138   160   161    1
   139   142   143    1
   140    42    43   ar
   141    39    41   ar
   142   135   137   am
   143   135   136    2
   144    31    30    1
   145    30    32    1
   146   161   162    2
   147    43    41   ar
   148    43    44    1
   149   143   145   am
   150   143   144    2
   151   127   128    1
   152   127   126    1
   153   123   122    2
   154   126   125    1
   155   125   124    1
   156   122   121    1
   157   124   121    1
   158   121   120    1
