@<TRIPOS>MOLECULE
tmp/4d1zA00.pdb
 153 146 0 0 0
SMALL
GASTEIGER

@<TRIPOS>ATOM
      1  N         14.2050  -12.5940    6.9340 N.3     8  ILE8       -0.1231
      2  CA        13.0320  -11.8090    7.3240 C.3     8  ILE8        0.1692
      3  C         13.2400  -10.3000    7.2320 C.2     8  ILE8        0.2592
      4  O         12.3000   -9.5370    7.4400 O.2     8  ILE8       -0.2718
      5  CB        12.5680  -12.1710    8.7570 C.3     8  ILE8        0.0266
      6  CG1       13.6950  -11.9390    9.7680 C.3     8  ILE8        0.0019
      7  CG2       12.0960  -13.6150    8.7940 C.3     8  ILE8        0.0020
      8  CD1       13.2780  -12.1190   11.2210 C.3     8  ILE8        0.0001
      9  N         14.4600   -9.8680    6.9230 N.am    9  GLY9       -0.1957
     10  CA        14.7430   -8.4490    6.7900 C.3     9  GLY9        0.1869
     11  C         16.1990   -8.1460    6.4950 C.2     9  GLY9        0.2309
     12  O         16.9710   -9.0330    6.1310 O.2     9  GLY9       -0.2863
     13  N         18.8750  -10.0560    8.3710 N.3    12  VAL12      -0.1245
     14  CA        18.2020  -10.6550    9.5180 C.3    12  VAL12       0.1561
     15  C         17.4740  -11.9340    9.1050 C.2    12  VAL12       0.2260
     16  O         16.7820  -11.9630    8.0910 O.2    12  VAL12      -0.2867
     17  CB        17.1790   -9.6780   10.1410 C.3    12  VAL12       0.0252
     18  CG1       16.6120  -10.2490   11.4300 C.3    12  VAL12       0.0019
     19  CG2       17.8220   -8.3190   10.4060 C.3    12  VAL12       0.0019
     20  N         15.5270  -13.9420   16.1900 N.3    25  ALA25      -0.1245
     21  CA        15.8750  -13.1890   15.0010 C.3    25  ALA25       0.1562
     22  C         17.3710  -12.9950   15.0640 C.2    25  ALA25       0.2260
     23  O         17.8800  -12.4920   16.0460 O.2    25  ALA25      -0.2867
     24  CB        15.1380  -11.8380   14.9660 C.3    25  ALA25       0.0290
     25  N         20.6990  -11.3710   13.3480 N.3    27  LYS27      -0.1245
     26  CA        21.1700  -10.3300   12.4320 C.3    27  LYS27       0.1561
     27  C         22.6720  -10.4630   12.2270 C.2    27  LYS27       0.2260
     28  O         23.4370  -10.3890   13.1840 O.2    27  LYS27      -0.2867
     29  CB        20.8260   -8.9350   12.9760 C.3    27  LYS27       0.0271
     30  CG        21.2480   -7.7570   12.0960 C.3    27  LYS27       0.0035
     31  CD        20.7490   -6.4410   12.7010 C.3    27  LYS27       0.0206
     32  CE        20.5890   -5.3400   11.6660 C.3    27  LYS27       0.1093
     33  NZ        21.8800   -4.9540   11.0370 N.3    27  LYS27      -0.1314
     34  N         12.6650   -4.1350   21.2590 N.3    46  VAL46      -0.1245
     35  CA        13.0160   -5.5230   20.9960 C.3    46  VAL46       0.1561
     36  C         14.2570   -5.8700   21.8190 C.2    46  VAL46       0.2260
     37  O         15.2230   -5.1210   21.8530 O.2    46  VAL46      -0.2867
     38  CB        13.2480   -5.7740   19.5010 C.3    46  VAL46       0.0252
     39  CG1       13.7280   -7.1910   19.2410 C.3    46  VAL46       0.0019
     40  CG2       11.9690   -5.5130   18.7320 C.3    46  VAL46       0.0019
     41  N         18.3510  -11.4750   18.5630 N.3    60  PHE60      -0.1227
     42  CA        17.2190  -10.7460   19.1040 C.3    60  PHE60       0.1736
     43  C         16.0570  -11.6880   19.3580 C.2    60  PHE60       0.2595
     44  O         15.9430  -12.7430   18.7230 O.2    60  PHE60      -0.2718
     45  CB        16.7510   -9.7070   18.0990 C.3    60  PHE60       0.0547
     46  CG        17.7270   -8.6090   17.8570 C.ar   60  PHE60      -0.0202
     47  CD1       17.7540   -7.4970   18.6830 C.ar   60  PHE60      -0.0042
     48  CD2       18.5920   -8.6630   16.7840 C.ar   60  PHE60      -0.0042
     49  CE1       18.6330   -6.4720   18.4500 C.ar   60  PHE60      -0.0003
     50  CE2       19.4740   -7.6360   16.5500 C.ar   60  PHE60      -0.0003
     51  CZ        19.4940   -6.5400   17.3870 C.ar   60  PHE60      -0.0000
     52  N         15.1880  -11.2990   20.2880 N.am   61  GLU61      -0.1965
     53  CA        13.9110  -11.9810   20.4410 C.3    61  GLU61       0.1733
     54  C         13.1680  -11.8680   19.1120 C.2    61  GLU61       0.2616
     55  O         13.3670  -10.9110   18.3640 O.2    61  GLU61      -0.2715
     56  CB        13.0860  -11.3450   21.5510 C.3    61  GLU61       0.0429
     57  CG        12.6870   -9.9330   21.2640 C.3    61  GLU61       0.1163
     58  CD        11.6370   -9.4080   22.2150 C.2    61  GLU61       0.3649
     59  OE1       10.6360  -10.1120   22.4590 O.co2  61  GLU61      -0.2457
     60  OE2       11.8140   -8.2780   22.7070 O.co2  61  GLU61      -0.2457
     61  N         12.3280  -12.8500   18.8180 N.am   62  PHE62      -0.1960
     62  CA        11.6020  -12.8700   17.5590 C.3    62  PHE62       0.1771
     63  C         10.1630  -12.4540   17.7940 C.2    62  PHE62       0.2619
     64  O          9.5090  -12.9660   18.6950 O.2    62  PHE62      -0.2715
     65  CB        11.6470  -14.2740   16.9710 C.3    62  PHE62       0.0574
     66  CG        10.8650  -14.4290   15.7090 C.ar   62  PHE62      -0.0200
     67  CD1       11.3770  -13.9790   14.4990 C.ar   62  PHE62      -0.0042
     68  CD2        9.6270  -15.0540   15.7210 C.ar   62  PHE62      -0.0042
     69  CE1       10.6610  -14.1300   13.3290 C.ar   62  PHE62      -0.0003
     70  CE2        8.9050  -15.2140   14.5500 C.ar   62  PHE62      -0.0003
     71  CZ         9.4210  -14.7500   13.3560 C.ar   62  PHE62      -0.0000
     72  N          9.6700  -11.5290   16.9820 N.am   63  LEU63      -0.1963
     73  CA         8.2900  -11.0820   17.1040 C.3    63  LEU63       0.1728
     74  C          7.5050  -11.4770   15.8800 C.2    63  LEU63       0.2616
     75  O          8.0810  -11.8610   14.8740 O.2    63  LEU63      -0.2715
     76  CB         8.2190   -9.5820   17.3260 C.3    63  LEU63       0.0311
     77  CG         8.0710   -9.2390   18.8080 C.3    63  LEU63       0.0022
     78  CD1        9.4310   -9.1490   19.4900 C.3    63  LEU63       0.0001
     79  CD2        7.2700   -7.9690   18.9800 C.3    63  LEU63       0.0001
     80  N          6.1880  -11.3560   15.9720 N.am   64  HIS64      -0.1959
     81  CA         5.2910  -11.8900   14.9590 C.3    64  HIS64       0.1787
     82  C          5.5330  -11.3460   13.5550 C.2    64  HIS64       0.2620
     83  O          5.8440  -12.1000   12.6350 O.2    64  HIS64      -0.2715
     84  CB         3.8390  -11.6340   15.3620 C.3    64  HIS64       0.0785
     85  CG         2.9310  -12.7690   15.0230 C.ar   64  HIS64       0.0821
     86  ND1        1.8390  -12.6390   14.1890 N.ar   64  HIS64      -0.2267
     87  CD2        2.9800  -14.0730   15.3780 C.ar   64  HIS64       0.1154
     88  CE1        1.2430  -13.8100   14.0670 C.ar   64  HIS64       0.1986
     89  NE2        1.9170  -14.6990   14.7770 N.ar   64  HIS64      -0.2212
     90  N          5.3750  -10.0360   13.3990 N.am   65  GLN65      -0.1963
     91  CA         5.5500   -9.3850   12.1080 C.3    65  GLN65       0.1733
     92  C          5.8210   -7.9160   12.3390 C.2    65  GLN65       0.2616
     93  O          5.8440   -7.4680   13.4820 O.2    65  GLN65      -0.2715
     94  CB         4.3100   -9.5490   11.2280 C.3    65  GLN65       0.0408
     95  CG         3.0510   -8.9090   11.7690 C.3    65  GLN65       0.0908
     96  CD         1.9040   -8.9390   10.7600 C.2    65  GLN65       0.2608
     97  OE1        1.1490   -7.9790   10.6320 O.2    65  GLN65      -0.2717
     98  NE2        1.7680  -10.0500   10.0490 N.am   65  GLN65      -0.0878
     99  N          6.0350   -7.1840   11.2520 N.am   66  ASP66      -0.1971
    100  CA         6.3220   -5.7550   11.3310 C.3    66  ASP66       0.1709
    101  C          5.1020   -4.9390   10.9270 C.2    66  ASP66       0.2293
    102  O          4.1430   -5.4600   10.3520 O.2    66  ASP66      -0.2864
    103  CB         7.5680   -5.3830   10.5090 C.3    66  ASP66       0.1436
    104  CG         7.3630   -5.5030    9.0080 C.2    66  ASP66       0.3671
    105  OD1        6.3720   -4.9640    8.4780 O.co2  66  ASP66      -0.2456
    106  OD2        8.2190   -6.1270    8.3510 O.co2  66  ASP66      -0.2456
    107  N          3.8960   -4.7070    7.1020 N.3    69  LYS69      -0.1245
    108  CA         3.0320   -5.8140    6.7110 C.3    69  LYS69       0.1561
    109  C          1.6030   -5.6520    7.2320 C.2    69  LYS69       0.2260
    110  O          0.6300   -5.8670    6.4970 O.2    69  LYS69      -0.2867
    111  CB         3.6430   -7.1230    7.2030 C.3    69  LYS69       0.0271
    112  CG         5.0370   -7.3650    6.6410 C.3    69  LYS69       0.0035
    113  CD         5.7170   -8.5730    7.2620 C.3    69  LYS69       0.0206
    114  CE         7.1250   -8.7840    6.6850 C.3    69  LYS69       0.1093
    115  NZ         7.1450   -8.9470    5.1960 N.3    69  LYS69      -0.1314
    116  N          8.9380   -0.8270    8.7590 N.3   111  GLN111     -0.1231
    117  CA         9.6180   -2.1120    8.6260 C.3   111  GLN111      0.1698
    118  C         10.4540   -2.4460    9.8830 C.2   111  GLN111      0.2592
    119  O         10.8280   -3.6030   10.1170 O.2   111  GLN111     -0.2718
    120  CB        10.5190   -2.0730    7.3790 C.3   111  GLN111      0.0381
    121  CG         9.7720   -1.9250    6.0300 C.3   111  GLN111      0.0905
    122  CD         9.1700   -0.5270    5.7620 C.2   111  GLN111      0.2608
    123  OE1        9.4340    0.4520    6.4690 O.2   111  GLN111     -0.2717
    124  NE2        8.3510   -0.4450    4.7210 N.am  111  GLN111     -0.0878
    125  N         10.7460   -1.4230   10.6830 N.am  112  ASN112     -0.1974
    126  CA        11.5600   -1.5640   11.8960 C.3   112  ASN112      0.1688
    127  C         10.7160   -1.6120   13.1830 C.2   112  ASN112      0.2292
    128  O         11.2680   -1.6010   14.2870 O.2   112  ASN112     -0.2864
    129  CB        12.5480   -0.3870   12.0060 C.3   112  ASN112      0.1181
    130  CG        13.6810   -0.4640   11.0070 C.2   112  ASN112      0.2629
    131  OD1       13.9330   -1.5070   10.3990 O.2   112  ASN112     -0.2716
    132  ND2       14.3880    0.6490   10.8370 N.am  112  ASN112     -0.0877
    133  N          7.9440   -3.7460   15.2700 N.3   114  LEU114     -0.1245
    134  CA         7.4870   -5.1320   15.3380 C.3   114  LEU114      0.1561
    135  C          6.3140   -5.2760   16.2930 C.2   114  LEU114      0.2260
    136  O          6.3090   -4.6930   17.3640 O.2   114  LEU114     -0.2867
    137  CB         8.6280   -6.0450   15.7940 C.3   114  LEU114      0.0270
    138  CG         9.9450   -5.9090   15.0320 C.3   114  LEU114      0.0019
    139  CD1       10.9140   -6.9300   15.5570 C.3   114  LEU114      0.0001
    140  CD2        9.7560   -6.0680   13.5260 C.3   114  LEU114      0.0001
    141  N         12.8430   -1.7030   16.8220 N.3   124  ALA124     -0.1231
    142  CA        13.8970   -2.6250   16.4200 C.3   124  ALA124      0.1694
    143  C         14.8640   -1.9290   15.4630 C.2   124  ALA124      0.2592
    144  O         14.5450   -0.8870   14.9190 O.2   124  ALA124     -0.2718
    145  CB        13.2780   -3.8120   15.7400 C.3   124  ALA124      0.0304
    146  N         16.0190   -2.5440   15.2230 N.am  125  ASP125     -0.1974
    147  CA        17.0300   -2.0340   14.2820 C.3   125  ASP125      0.1709
    148  C         17.4620   -0.5990   14.5340 C.2   125  ASP125      0.2293
    149  O         17.3030    0.2690   13.6730 O.2   125  ASP125     -0.2864
    150  CB        16.5500   -2.1390   12.8350 C.3   125  ASP125      0.1436
    151  CG        17.6890   -1.9530   11.8280 C.2   125  ASP125      0.3671
    152  OD1       18.8710   -1.9540   12.2400 O.co2 125  ASP125     -0.2456
    153  OD2       17.3940   -1.7970   10.6260 O.co2 125  ASP125     -0.2456
@<TRIPOS>BOND
     1   124   122   am
     2   115   114    1
     3   122   121    1
     4   122   123    2
     5   121   120    1
     6    12    11    2
     7    11    10    1
     8   110   109    2
     9   112   111    1
    10   112   113    1
    11   114   113    1
    12   108   107    1
    13   108   111    1
    14   108   109    1
    15    10     9    1
    16     9     3   am
    17     1     2    1
    18     3     2    1
    19     3     4    2
    20     2     5    1
    21   120   117    1
    22    16    15    2
    23   106   104   ar
    24    13    14    1
    25   105   104   ar
    26   117   116    1
    27   117   118    1
    28     5     7    1
    29     5     6    1
    30   104   103    1
    31    15    14    1
    32    14    17    1
    33     6     8    1
    34   118   119    2
    35   118   125   am
    36    98    96   am
    37    17    19    1
    38    17    18    1
    39   102   101    2
    40   131   130    2
    41   103   100    1
    42   153   151   ar
    43    97    96    2
    44   125   126    1
    45    96    95    1
    46   132   130   am
    47   101   100    1
    48   130   129    1
    49    33    32    1
    50    94    95    1
    51    94    91    1
    52    99   100    1
    53    99    92   am
    54    32    31    1
    55   151   152   ar
    56   151   150    1
    57   126   129    1
    58   126   127    1
    59    30    31    1
    60    30    29    1
    61    91    92    1
    62    91    90    1
    63    27    26    1
    64    27    28    2
    65    92    93    2
    66    26    29    1
    67    26    25    1
    68    83    82    2
    69   150   147    1
    70   127   128    2
    71    69    71   ar
    72    69    67   ar
    73    71    70   ar
    74    90    82   am
    75   140   138    1
    76    82    81    1
    77   149   148    2
    78    88    86   ar
    79    88    89   ar
    80    86    85   ar
    81   147   148    1
    82   147   146    1
    83    67    66   ar
    84    70    68   ar
    85    89    87   ar
    86    75    74    2
    87   144   143    2
    88    81    84    1
    89    81    80    1
    90    24    21    1
    91    21    22    1
    92    21    20    1
    93    85    84    1
    94    85    87   ar
    95   138   139    1
    96   138   137    1
    97    22    23    2
    98   146   143   am
    99   133   134    1
   100   134   137    1
   101   134   135    1
   102   143   142    1
   103    66    68   ar
   104    66    65    1
   105   145   142    1
   106    74    80   am
   107    74    73    1
   108   135   136    2
   109   142   141    1
   110    50    48   ar
   111    50    51   ar
   112    48    46   ar
   113    65    62    1
   114    72    73    1
   115    72    63   am
   116    73    76    1
   117    76    77    1
   118    51    49   ar
   119    62    63    1
   120    62    61    1
   121    63    64    2
   122    46    45    1
   123    46    47   ar
   124    45    42    1
   125    55    54    2
   126    49    47   ar
   127    41    42    1
   128    44    43    2
   129    40    38    1
   130    77    79    1
   131    77    78    1
   132    61    54   am
   133    42    43    1
   134    54    53    1
   135    39    38    1
   136    43    52   am
   137    38    35    1
   138    52    53    1
   139    53    56    1
   140    35    34    1
   141    35    36    1
   142    57    56    1
   143    57    58    1
   144    36    37    2
   145    58    59   ar
   146    58    60   ar
