@<TRIPOS>MOLECULE
tmp/4d1zA01.pdb
 124 123 0 0 0
SMALL
GASTEIGER

@<TRIPOS>ATOM
      1  N          4.4980   21.5250    3.9720 N.3   182  LEU182     -0.1231
      2  CA         4.5990   22.2700    5.2120 C.3   182  LEU182      0.1693
      3  C          5.0740   23.6990    4.9810 C.2   182  LEU182      0.2593
      4  O          5.1430   24.4890    5.9200 O.2   182  LEU182     -0.2718
      5  CB         5.5110   21.5470    6.1970 C.3   182  LEU182      0.0284
      6  CG         5.1260   20.1130    6.5590 C.3   182  LEU182      0.0019
      7  CD1        6.1480   19.5370    7.5250 C.3   182  LEU182      0.0001
      8  CD2        3.7180   20.0510    7.1770 C.3   182  LEU182      0.0001
      9  N          5.4020   24.0240    3.7300 N.am  183  GLY183     -0.1942
     10  CA         5.9460   25.3250    3.3880 C.3   183  GLY183      0.2014
     11  C          7.4640   25.3010    3.4180 C.2   183  GLY183      0.2640
     12  O          8.0690   24.5640    4.2130 O.2   183  GLY183     -0.2714
     13  N          8.0970   26.0760    2.5440 N.am  184  THR184     -0.1937
     14  CA         9.5620   26.1310    2.5440 C.3   184  THR184      0.2013
     15  C          9.9860   26.8290    3.8320 C.2   184  THR184      0.2484
     16  O          9.5400   27.9370    4.1100 O.2   184  THR184     -0.2729
     17  CB        10.1380   26.8730    1.3250 C.3   184  THR184      0.1807
     18  OG1        9.7490   26.2150    0.1100 O.3   184  THR184     -0.2208
     19  CG2       11.6690   26.9290    1.3900 C.3   184  THR184      0.0379
     20  N         10.8450   26.1860    4.6310 N.am  185  PRO185     -0.2715
     21  CA        11.1760   26.8190    5.9130 C.3   185  PRO185      0.1536
     22  C         12.0350   28.0760    5.7350 C.2   185  PRO185      0.2598
     23  O         12.7350   28.1970    4.7200 O.2   185  PRO185     -0.2715
     24  CB        11.9550   25.7150    6.6460 C.3   185  PRO185      0.0310
     25  CG        12.5970   24.9260    5.5580 C.3   185  PRO185      0.0237
     26  CD        11.6150   24.9480    4.4070 C.3   185  PRO185      0.0939
     27  N         11.9720   28.9900    6.7080 N.am  186  ASP186     -0.1972
     28  CA        12.7990   30.1990    6.7230 C.3   186  ASP186      0.1709
     29  C         13.3160   30.4670    8.1420 C.2   186  ASP186      0.2293
     30  O         13.0690   29.6780    9.0550 O.2   186  ASP186     -0.2864
     31  CB        11.9980   31.4030    6.2200 C.3   186  ASP186      0.1436
     32  CG        10.7280   31.6430    7.0330 C.2   186  ASP186      0.3671
     33  OD1       10.7150   31.3240    8.2450 O.co2 186  ASP186     -0.2456
     34  OD2        9.7350   32.1440    6.4570 O.co2 186  ASP186     -0.2456
     35  N         10.5340   30.5600   11.2180 N.3   189  VAL189     -0.1245
     36  CA        10.0560   29.3120   11.7980 C.3   189  VAL189      0.1561
     37  C         11.2000   28.4050   12.2560 C.2   189  VAL189      0.2260
     38  O         11.0070   27.5530   13.1340 O.2   189  VAL189     -0.2867
     39  CB         9.0810   28.5660   10.8410 C.3   189  VAL189      0.0252
     40  CG1        7.9380   29.4860   10.4410 C.3   189  VAL189      0.0019
     41  CG2        9.7820   28.0470    9.6020 C.3   189  VAL189      0.0019
     42  N          7.6390   27.5810   -1.3670 N.3   206  TRP206     -0.1227
     43  CA         6.2610   27.0980   -1.3630 C.3   206  TRP206      0.1737
     44  C          5.5310   27.5500   -0.1050 C.2   206  TRP206      0.2595
     45  O          6.1300   27.6350    0.9650 O.2   206  TRP206     -0.2718
     46  CB         6.2380   25.5690   -1.4150 C.3   206  TRP206      0.0564
     47  CG         6.5560   24.9840   -2.7730 C.ar  206  TRP206      0.0003
     48  CD1        5.7490   24.9880   -3.8780 C.ar  206  TRP206      0.0946
     49  CD2        7.7570   24.3000   -3.1580 C.ar  206  TRP206      0.0152
     50  NE1        6.3760   24.3520   -4.9270 N.ar  206  TRP206     -0.2442
     51  CE2        7.6100   23.9260   -4.5150 C.ar  206  TRP206      0.0810
     52  CE3        8.9410   23.9680   -2.4890 C.ar  206  TRP206      0.0012
     53  CZ2        8.6040   23.2360   -5.2150 C.ar  206  TRP206      0.0191
     54  CZ3        9.9260   23.2840   -3.1840 C.ar  206  TRP206      0.0001
     55  CH2        9.7480   22.9200   -4.5320 C.ar  206  TRP206      0.0015
     56  N          4.2360   27.8250   -0.2400 N.am  207  ALA207     -0.1966
     57  CA         3.3790   28.1240    0.9040 C.3   207  ALA207      0.1728
     58  C          2.9750   26.8450    1.6260 C.2   207  ALA207      0.2616
     59  O          2.9520   25.7630    1.0320 O.2   207  ALA207     -0.2715
     60  CB         2.1430   28.8750    0.4540 C.3   207  ALA207      0.0334
     61  N          2.6620   26.9740    2.9140 N.am  208  ARG208     -0.1977
     62  CA         2.2500   25.8400    3.7350 C.3   208  ARG208      0.1597
     63  C          0.8230   25.4440    3.3600 C.2   208  ARG208      0.2287
     64  O          0.0010   26.3050    3.0550 O.2   208  ARG208     -0.2864
     65  CB         2.3230   26.2240    5.2190 C.3   208  ARG208      0.0334
     66  CG         1.8470   25.1500    6.2090 C.3   208  ARG208      0.0492
     67  CD         2.2570   25.5170    7.6310 C.3   208  ARG208      0.2205
     68  NE         1.9330   24.4870    8.6190 N.pl3 208  ARG208     -0.0865
     69  CZ         2.8120   23.6520    9.1680 C.cat 208  ARG208      0.5346
     70  NH1        4.0950   23.6940    8.8360 N.pl3 208  ARG208      0.1354
     71  NH2        2.4030   22.7690   10.0600 N.pl3 208  ARG208      0.1354
     72  N          1.1940   17.9640   14.3270 N.3   227  SER227     -0.1217
     73  CA         1.8300   19.2320   13.9850 C.3   227  SER227      0.1889
     74  C          3.0010   19.5310   14.9240 C.2   227  SER227      0.2288
     75  O          4.0120   20.1150   14.5080 O.2   227  SER227     -0.2866
     76  CB         0.8200   20.3920   13.9760 C.3   227  SER227      0.2089
     77  OG         0.4700   20.8040   15.2950 O.3   227  SER227     -0.2183
     78  N          5.9760   17.4950   13.8560 N.3   230  LEU230     -0.1231
     79  CA         6.5280   17.8750   12.5530 C.3   230  LEU230      0.1693
     80  C          6.9530   19.3570   12.4710 C.2   230  LEU230      0.2592
     81  O          7.0590   19.9250   11.3690 O.2   230  LEU230     -0.2718
     82  CB         5.5140   17.5520   11.4540 C.3   230  LEU230      0.0284
     83  CG         5.1960   16.0620   11.2540 C.3   230  LEU230      0.0019
     84  CD1        4.2300   15.8860   10.1020 C.3   230  LEU230      0.0001
     85  CD2        6.4430   15.2230   11.0330 C.3   230  LEU230      0.0001
     86  N          7.2120   19.9720   13.6250 N.am  231  HIS231     -0.1962
     87  CA         7.7830   21.3200   13.6380 C.3   231  HIS231      0.1787
     88  C          9.1210   21.2230   12.9030 C.2   231  HIS231      0.2620
     89  O          9.8740   20.2610   13.0820 O.2   231  HIS231     -0.2715
     90  CB         8.0350   21.8430   15.0620 C.3   231  HIS231      0.0785
     91  CG         6.8210   22.3920   15.7510 C.ar  231  HIS231      0.0821
     92  ND1        5.8540   23.1200   15.1010 N.ar  231  HIS231     -0.2267
     93  CD2        6.4370   22.3310   17.0500 C.ar  231  HIS231      0.1154
     94  CE1        4.9180   23.4850   15.9660 C.ar  231  HIS231      0.1986
     95  NE2        5.2510   23.0200   17.1540 N.ar  231  HIS231     -0.2212
     96  N          9.4200   22.2180   12.0830 N.am  232  TYR232     -0.1960
     97  CA        10.6810   22.2260   11.3410 C.3   232  TYR232      0.1771
     98  C         11.8700   22.2960   12.2780 C.2   232  TYR232      0.2619
     99  O         12.8220   21.5380   12.1410 O.2   232  TYR232     -0.2715
    100  CB        10.7330   23.4280   10.4010 C.3   232  TYR232      0.0574
    101  CG        10.2360   23.1280    9.0140 C.ar  232  TYR232     -0.0198
    102  CD1       10.8420   22.1260    8.2410 C.ar  232  TYR232     -0.0009
    103  CD2        9.1790   23.8410    8.4590 C.ar  232  TYR232     -0.0009
    104  CE1       10.4080   21.8400    6.9780 C.ar  232  TYR232      0.0417
    105  CE2        8.7300   23.5560    7.1570 C.ar  232  TYR232      0.0417
    106  CZ         9.3560   22.5510    6.4340 C.ar  232  TYR232      0.1957
    107  OH         8.9470   22.2430    5.1640 O.3   232  TYR232     -0.2866
    108  N         11.8040   23.2380   13.2130 N.am  233  ASP233     -0.1971
    109  CA        12.8880   23.5050   14.1460 C.3   233  ASP233      0.1709
    110  C         12.9160   22.3380   15.1330 C.2   233  ASP233      0.2293
    111  O         11.9380   22.1280   15.8540 O.2   233  ASP233     -0.2864
    112  CB        12.6220   24.8320   14.8710 C.3   233  ASP233      0.1436
    113  CG        13.7530   25.2510   15.7920 C.2   233  ASP233      0.3671
    114  OD1       14.6500   24.4380   16.0830 O.co2 233  ASP233     -0.2456
    115  OD2       13.7310   26.4210   16.2390 O.co2 233  ASP233     -0.2456
    116  N         11.9160   22.9450   18.6230 N.3   236  LYS236     -0.1245
    117  CA        10.5060   23.2190   18.9240 C.3   236  LYS236      0.1561
    118  C          9.6710   21.9430   18.8610 C.2   236  LYS236      0.2260
    119  O          8.5300   21.8990   19.3230 O.2   236  LYS236     -0.2867
    120  CB         9.9190   24.2360   17.9350 C.3   236  LYS236      0.0271
    121  CG        10.5990   25.5950   17.9500 C.3   236  LYS236      0.0035
    122  CD         9.7070   26.6770   17.3520 C.3   236  LYS236      0.0206
    123  CE        10.4450   28.0160   17.2880 C.3   236  LYS236      0.1093
    124  NZ        11.3930   28.0670   16.1310 N.3   236  LYS236     -0.1314
@<TRIPOS>BOND
     1    53    55   ar
     2    53    51   ar
     3    50    51   ar
     4    50    48   ar
     5    55    54   ar
     6    51    49   ar
     7    48    47   ar
     8    54    52   ar
     9    49    47   ar
    10    49    52   ar
    11    47    46    1
    12    46    43    1
    13    42    43    1
    14    43    44    1
    15    56    44   am
    16    56    57    1
    17    44    45    2
    18    18    17    1
    19    60    57    1
    20    57    58    1
    21    59    58    2
    22    17    19    1
    23    17    14    1
    24    58    61   am
    25    14    13    1
    26    14    15    1
    27    13    11   am
    28    61    62    1
    29    64    63    2
    30    63    62    1
    31    10    11    1
    32    10     9    1
    33    11    12    2
    34     9     3   am
    35    62    65    1
    36    15    16    2
    37    15    20   am
    38     1     2    1
    39    26    20    1
    40    26    25    1
    41    20    21    1
    42    23    22    2
    43     3     2    1
    44     3     4    2
    45   107   106    1
    46     2     5    1
    47    65    66    1
    48    25    24    1
    49    22    21    1
    50    22    27   am
    51    21    24    1
    52     5     6    1
    53    66    67    1
    54    31    28    1
    55    31    32    1
    56   106   104   ar
    57   106   105   ar
    58    34    32   ar
    59     6     8    1
    60     6     7    1
    61    27    28    1
    62    28    29    1
    63   104   102   ar
    64    32    33   ar
    65   105   103   ar
    66    67    68    1
    67    29    30    2
    68   102   101   ar
    69   103   101   ar
    70    68    69    2
    71    70    69    1
    72   101   100    1
    73    69    71    1
    74    41    39    1
    75    84    83    1
    76   100    97    1
    77    40    39    1
    78    39    36    1
    79    85    83    1
    80    35    36    1
    81    83    82    1
    82    97    96    1
    83    97    98    1
    84    81    80    2
    85    82    79    1
    86    36    37    1
    87    96    88   am
    88    99    98    2
    89    37    38    2
    90    98   108   am
    91    80    79    1
    92    80    86   am
    93    79    78    1
    94    88    89    2
    95    88    87    1
    96   108   109    1
    97    86    87    1
    98    87    90    1
    99    76    73    1
   100    76    77    1
   101    73    72    1
   102    73    74    1
   103   109   112    1
   104   109   110    1
   105    75    74    2
   106   112   113    1
   107    90    91    1
   108    92    91   ar
   109    92    94   ar
   110   110   111    2
   111    91    93   ar
   112   113   114   ar
   113   113   115   ar
   114    94    95   ar
   115   124   123    1
   116    93    95   ar
   117   123   122    1
   118   122   121    1
   119   120   121    1
   120   120   117    1
   121   116   117    1
   122   118   117    1
   123   118   119    2
