@<TRIPOS>MOLECULE
tmp/4d2cA00.pdb
 167 161 0 0 0
SMALL
GASTEIGER

@<TRIPOS>ATOM
      1  N         30.5000   10.8830   -4.3370 N.3    21  ARG21      -0.1245
      2  CA        29.4370   11.3960   -3.4800 C.3    21  ARG21       0.1563
      3  C         29.4020   10.6230   -2.1690 C.2    21  ARG21       0.2260
      4  O         29.0340   11.1620   -1.1270 O.2    21  ARG21      -0.2867
      5  CB        28.0770   11.3100   -4.1780 C.3    21  ARG21       0.0307
      6  CG        27.9100   12.2210   -5.3910 C.3    21  ARG21       0.0489
      7  CD        27.7970   13.6840   -4.9980 C.3    21  ARG21       0.2205
      8  NE        29.0980   14.2970   -4.7590 N.pl3  21  ARG21      -0.0865
      9  CZ        29.2640   15.5260   -4.2850 C.cat  21  ARG21       0.5346
     10  NH1       28.2070   16.2730   -4.0000 N.pl3  21  ARG21       0.1354
     11  NH2       30.4850   16.0090   -4.0960 N.pl3  21  ARG21       0.1354
     12  N         29.7900   12.8650    1.1990 N.3    25  TYR25      -0.1241
     13  CA        28.7140   12.9270    2.1840 C.3    25  TYR25       0.1605
     14  C         28.9620   12.0630    3.4180 C.2    25  TYR25       0.2264
     15  O         28.4060   12.3240    4.4840 O.2    25  TYR25      -0.2867
     16  CB        27.3680   12.5890    1.5420 C.3    25  TYR25       0.0534
     17  CG        26.8330   13.7160    0.6950 C.ar   25  TYR25      -0.0201
     18  CD1       26.4220   14.9050    1.2790 C.ar   25  TYR25      -0.0009
     19  CD2       26.7500   13.5990   -0.6860 C.ar   25  TYR25      -0.0009
     20  CE1       25.9380   15.9470    0.5150 C.ar   25  TYR25       0.0417
     21  CE2       26.2630   14.6340   -1.4610 C.ar   25  TYR25       0.0417
     22  CZ        25.8570   15.8060   -0.8550 C.ar   25  TYR25       0.1957
     23  OH        25.3750   16.8410   -1.6220 O.3    25  TYR25      -0.2866
     24  N         31.5100   24.2810   -4.2570 N.3    63  TYR63      -0.1241
     25  CA        30.7190   24.5540   -5.4520 C.3    63  TYR63       0.1605
     26  C         31.2400   25.7480   -6.2490 C.2    63  TYR63       0.2264
     27  O         31.1110   25.7890   -7.4710 O.2    63  TYR63      -0.2867
     28  CB        29.2540   24.7470   -5.0680 C.3    63  TYR63       0.0534
     29  CG        28.7070   23.5520   -4.3320 C.ar   63  TYR63      -0.0201
     30  CD1       29.0170   22.2670   -4.7480 C.ar   63  TYR63      -0.0009
     31  CD2       27.9070   23.7030   -3.2060 C.ar   63  TYR63      -0.0009
     32  CE1       28.5320   21.1630   -4.0750 C.ar   63  TYR63       0.0417
     33  CE2       27.4190   22.6060   -2.5260 C.ar   63  TYR63       0.0417
     34  CZ        27.7360   21.3380   -2.9640 C.ar   63  TYR63       0.1957
     35  OH        27.2450   20.2490   -2.2800 O.3    63  TYR63      -0.2866
     36  N         33.7240   17.1140  -10.1740 N.3   121  LYS121     -0.1245
     37  CA        32.2690   17.2860  -10.2460 C.3   121  LYS121      0.1561
     38  C         31.6900   17.8220  -11.5660 C.2   121  LYS121      0.2260
     39  O         30.7720   17.2180  -12.1200 O.2   121  LYS121     -0.2867
     40  CB        31.7620   18.1140   -9.0590 C.3   121  LYS121      0.0271
     41  CG        31.0590   17.2980   -7.9960 C.3   121  LYS121      0.0035
     42  CD        29.7730   16.7100   -8.5410 C.3   121  LYS121      0.0206
     43  CE        28.7070   16.6510   -7.4620 C.3   121  LYS121      0.1093
     44  NZ        27.4090   16.1470   -7.9820 N.3   121  LYS121     -0.1314
     45  N         21.8790   11.1370  -11.9360 N.3   147  VAL147     -0.1245
     46  CA        21.5580   11.8450  -10.6990 C.3   147  VAL147      0.1561
     47  C         21.1890   10.8430   -9.6130 C.2   147  VAL147      0.2260
     48  O         21.4400   11.0640   -8.4290 O.2   147  VAL147     -0.2867
     49  CB        20.4010   12.8530  -10.8920 C.3   147  VAL147      0.0252
     50  CG1       20.1120   13.6060   -9.5960 C.3   147  VAL147      0.0019
     51  CG2       20.7360   13.8320  -12.0020 C.3   147  VAL147      0.0019
     52  N         24.2480    9.5890   -7.9690 N.3   150  ILE150     -0.1231
     53  CA        24.7320   10.6280   -7.0740 C.3   150  ILE150      0.1692
     54  C         24.0350   10.5240   -5.7220 C.2   150  ILE150      0.2592
     55  O         24.6830   10.5480   -4.6730 O.2   150  ILE150     -0.2718
     56  CB        24.5050   12.0280   -7.6820 C.3   150  ILE150      0.0266
     57  CG1       25.5120   12.2830   -8.8090 C.3   150  ILE150      0.0019
     58  CG2       24.6000   13.1090   -6.6150 C.3   150  ILE150      0.0020
     59  CD1       25.3930   13.6520   -9.4450 C.3   150  ILE150      0.0001
     60  N         22.7130   10.3830   -5.7490 N.am  151  ASN151     -0.1974
     61  CA        21.9400   10.2750   -4.5150 C.3   151  ASN151      0.1688
     62  C         22.0440    8.9010   -3.8620 C.2   151  ASN151      0.2292
     63  O         21.8410    8.7610   -2.6600 O.2   151  ASN151     -0.2864
     64  CB        20.4780   10.6460   -4.7620 C.3   151  ASN151      0.1181
     65  CG        20.3140   12.0870   -5.1910 C.2   151  ASN151      0.2629
     66  OD1       20.3920   13.0030   -4.3720 O.2   151  ASN151     -0.2716
     67  ND2       20.0900   12.2980   -6.4820 N.am  151  ASN151     -0.0877
     68  N         25.1390    9.1470   -1.8300 N.3   154  ALA154     -0.1245
     69  CA        24.8300   10.0780   -0.7550 C.3   154  ALA154      0.1562
     70  C         23.9580    9.4220    0.3150 C.2   154  ALA154      0.2260
     71  O         23.8880    9.9020    1.4470 O.2   154  ALA154     -0.2867
     72  CB        24.1480   11.3180   -1.3160 C.3   154  ALA154      0.0290
     73  N         18.5530   26.6580   -1.7110 N.3   274  TRP274     -0.1241
     74  CA        19.7700   25.9090   -1.4200 C.3   274  TRP274      0.1605
     75  C         20.2860   26.2200   -0.0260 C.2   274  TRP274      0.2264
     76  O         20.8410   25.3520    0.6360 O.2   274  TRP274     -0.2867
     77  CB        20.8590   26.1670   -2.4690 C.3   274  TRP274      0.0550
     78  CG        20.5680   25.5280   -3.7970 C.ar  274  TRP274      0.0003
     79  CD1       20.4330   26.1580   -5.0030 C.ar  274  TRP274      0.0946
     80  CD2       20.3570   24.1310   -4.0510 C.ar  274  TRP274      0.0152
     81  NE1       20.1600   25.2390   -5.9890 N.ar  274  TRP274     -0.2442
     82  CE2       20.1070   23.9890   -5.4300 C.ar  274  TRP274      0.0810
     83  CE3       20.3630   22.9870   -3.2460 C.ar  274  TRP274      0.0012
     84  CZ2       19.8610   22.7480   -6.0200 C.ar  274  TRP274      0.0191
     85  CZ3       20.1190   21.7590   -3.8340 C.ar  274  TRP274      0.0001
     86  CH2       19.8710   21.6490   -5.2060 C.ar  274  TRP274      0.0015
     87  N         18.1200   24.0630    2.1700 N.3   277  GLU277     -0.1231
     88  CA        18.4200   22.6580    1.9180 C.3   277  GLU277      0.1699
     89  C         19.7990   22.2780    2.4500 C.2   277  GLU277      0.2592
     90  O         19.9860   21.1870    2.9860 O.2   277  GLU277     -0.2718
     91  CB        18.3050   22.3410    0.4210 C.3   277  GLU277      0.0402
     92  CG        18.5190   20.8740    0.0630 C.3   277  GLU277      0.1161
     93  CD        19.9820   20.5330   -0.1400 C.2   277  GLU277      0.3649
     94  OE1       20.7440   21.4350   -0.5450 O.co2 277  GLU277     -0.2457
     95  OE2       20.3740   19.3760    0.1220 O.co2 277  GLU277     -0.2457
     96  N         20.7600   23.1860    2.3090 N.am  278  GLU278     -0.1979
     97  CA        22.1330   22.9120    2.7270 C.3   278  GLU278      0.1602
     98  C         22.3110   22.9750    4.2430 C.2   278  GLU278      0.2287
     99  O         23.3340   22.5430    4.7680 O.2   278  GLU278     -0.2864
    100  CB        23.1080   23.8740    2.0440 C.3   278  GLU278      0.0415
    101  CG        24.5310   23.3430    1.9130 C.3   278  GLU278      0.1163
    102  CD        24.6050   22.0120    1.1810 C.2   278  GLU278      0.3649
    103  OE1       24.3500   21.9860   -0.0410 O.co2 278  GLU278     -0.2457
    104  OE2       24.9220   20.9900    1.8290 O.co2 278  GLU278     -0.2457
    105  N         17.7250   12.9680    3.3170 N.3   306  ASN306     -0.1226
    106  CA        17.7490   13.8490    2.1510 C.3   306  ASN306      0.1770
    107  C         17.8840   13.0840    0.8240 C.2   306  ASN306      0.2439
    108  O         17.0600   13.2640   -0.0710 O.2   306  ASN306     -0.2733
    109  CB        18.8340   14.9290    2.3100 C.3   306  ASN306      0.1168
    110  CG        18.9560   15.8400    1.0990 C.2   306  ASN306      0.2627
    111  OD1       19.3770   15.4140    0.0250 O.2   306  ASN306     -0.2716
    112  ND2       18.6300   17.1180    1.2850 N.am  306  ASN306     -0.0877
    113  N         18.9220   12.2330    0.6820 N.am  307  PRO307     -0.2729
    114  CA        18.9880   11.5040   -0.5900 C.3   307  PRO307      0.1401
    115  C         17.9800   10.3580   -0.6740 C.2   307  PRO307      0.2269
    116  O         17.6480    9.9240   -1.7770 O.2   307  PRO307     -0.2865
    117  CB        20.4200   10.9630   -0.6080 C.3   307  PRO307      0.0296
    118  CG        20.7880   10.8530    0.8240 C.3   307  PRO307      0.0237
    119  CD        20.1260   12.0020    1.5030 C.3   307  PRO307      0.0939
    120  N         14.8300   11.7570   -2.1890 N.3   310  ILE310     -0.1245
    121  CA        15.0700   12.0550   -3.5970 C.3   310  ILE310      0.1561
    122  C         14.8650   10.8030   -4.4510 C.2   310  ILE310      0.2260
    123  O         14.2070   10.8460   -5.4930 O.2   310  ILE310     -0.2867
    124  CB        16.4760   12.6470   -3.8380 C.3   310  ILE310      0.0252
    125  CG1       16.5160   14.1150   -3.4060 C.3   310  ILE310      0.0019
    126  CG2       16.8580   12.5370   -5.3030 C.3   310  ILE310      0.0019
    127  CD1       17.7680   14.8520   -3.8350 C.3   310  ILE310      0.0001
    128  N         12.7920   20.3810   -3.7100 N.3   373  GLU373     -0.1245
    129  CA        13.9470   20.1760   -4.5740 C.3   373  GLU373      0.1567
    130  C         13.5540   19.4860   -5.8730 C.2   373  GLU373      0.2260
    131  O         14.1880   19.6830   -6.9140 O.2   373  GLU373     -0.2867
    132  CB        15.0210   19.3670   -3.8510 C.3   373  GLU373      0.0388
    133  CG        16.3920   19.5080   -4.4760 C.3   373  GLU373      0.1160
    134  CD        17.4290   18.6460   -3.7930 C.2   373  GLU373      0.3649
    135  OE1       17.4320   18.5930   -2.5440 O.co2 373  GLU373     -0.2457
    136  OE2       18.2400   18.0200   -4.5060 O.co2 373  GLU373     -0.2457
    137  N         24.7550   26.8430  -11.7930 N.3   384  TRP384     -0.1227
    138  CA        24.0390   25.9510  -10.8950 C.3   384  TRP384      0.1737
    139  C         24.8670   25.7460   -9.6350 C.2   384  TRP384      0.2595
    140  O         24.3270   25.6120   -8.5370 O.2   384  TRP384     -0.2718
    141  CB        23.7580   24.6150  -11.5830 C.3   384  TRP384      0.0564
    142  CG        22.7720   23.7540  -10.8510 C.ar  384  TRP384      0.0003
    143  CD1       22.9980   22.5170  -10.3110 C.ar  384  TRP384      0.0946
    144  CD2       21.4030   24.0700  -10.5680 C.ar  384  TRP384      0.0152
    145  NE1       21.8520   22.0440   -9.7160 N.ar  384  TRP384     -0.2442
    146  CE2       20.8590   22.9780   -9.8590 C.ar  384  TRP384      0.0810
    147  CE3       20.5840   25.1680  -10.8470 C.ar  384  TRP384      0.0012
    148  CZ2       19.5310   22.9570   -9.4250 C.ar  384  TRP384      0.0191
    149  CZ3       19.2710   25.1440  -10.4160 C.ar  384  TRP384      0.0001
    150  CH2       18.7570   24.0490   -9.7130 C.ar  384  TRP384      0.0015
    151  N         26.1850   25.7330   -9.8080 N.am  385  PHE385     -0.1976
    152  CA        27.1140   25.6300   -8.6900 C.3   385  PHE385      0.1639
    153  C         27.2030   26.9730   -7.9710 C.2   385  PHE385      0.2290
    154  O         27.6530   27.0440   -6.8280 O.2   385  PHE385     -0.2864
    155  CB        28.5090   25.2240   -9.1810 C.3   385  PHE385      0.0560
    156  CG        28.6420   23.7650   -9.5330 C.ar  385  PHE385     -0.0200
    157  CD1       27.8680   23.2020  -10.5320 C.ar  385  PHE385     -0.0042
    158  CD2       29.5670   22.9640   -8.8810 C.ar  385  PHE385     -0.0042
    159  CE1       27.9950   21.8640  -10.8630 C.ar  385  PHE385     -0.0003
    160  CE2       29.7020   21.6240   -9.2100 C.ar  385  PHE385     -0.0003
    161  CZ        28.9140   21.0740  -10.2030 C.ar  385  PHE385     -0.0000
    162  N         24.0340   27.6630   -5.6680 N.3   388  SER388     -0.1217
    163  CA        24.2950   26.7520   -4.5640 C.3   388  SER388      0.1889
    164  C         25.3760   27.3080   -3.6390 C.2   388  SER388      0.2288
    165  O         25.2850   27.1950   -2.4170 O.2   388  SER388     -0.2866
    166  CB        24.7200   25.3870   -5.1060 C.3   388  SER388      0.2089
    167  OG        25.0270   24.4970   -4.0510 O.3   388  SER388     -0.2183
@<TRIPOS>BOND
     1    39    38    2
     2    51    49    1
     3    45    46    1
     4   137   138    1
     5   141   138    1
     6   141   142    1
     7    38    37    1
     8   138   139    1
     9    49    46    1
    10    49    50    1
    11   159   157   ar
    12   159   161   ar
    13   142   144   ar
    14   142   143   ar
    15   147   144   ar
    16   147   149   ar
    17    46    47    1
    18   144   146   ar
    19   157   156   ar
    20   149   150   ar
    21   143   145   ar
    22    37    36    1
    23    37    40    1
    24   161   160   ar
    25   146   145   ar
    26   146   148   ar
    27   151   139   am
    28   151   152    1
    29   150   148   ar
    30   139   140    2
    31    47    48    2
    32   156   155    1
    33   156   158   ar
    34    59    57    1
    35   160   158   ar
    36   155   152    1
    37    40    41    1
    38    57    56    1
    39   152   153    1
    40    42    41    1
    41    42    43    1
    42    44    43    1
    43   153   154    2
    44    52    53    1
    45    56    53    1
    46    56    58    1
    47    27    26    2
    48    53    54    1
    49   131   130    2
    50    67    65   am
    51    26    25    1
    52    84    82   ar
    53    84    86   ar
    54    81    82   ar
    55    81    79   ar
    56   130   129    1
    57    60    54   am
    58    60    61    1
    59    54    55    2
    60   162   163    1
    61   123   122    2
    62    25    28    1
    63    25    24    1
    64    82    80   ar
    65     6     7    1
    66     6     5    1
    67   126   124    1
    68    86    85   ar
    69    65    64    1
    70    65    66    2
    71   166   163    1
    72   166   167    1
    73    28    29    1
    74    79    78   ar
    75     7     8    1
    76    64    61    1
    77     8     9    2
    78    30    29   ar
    79    30    32   ar
    80   129   132    1
    81   129   128    1
    82   163   164    1
    83    61    62    1
    84   136   134   ar
    85   133   132    1
    86   133   134    1
    87   122   121    1
    88     1     2    1
    89    29    31   ar
    90     9    11    1
    91     9    10    1
    92     5     2    1
    93    32    34   ar
    94    80    78   ar
    95    80    83   ar
    96    62    63    2
    97   124   121    1
    98   124   125    1
    99   127   125    1
   100    85    83   ar
   101    78    77    1
   102   134   135   ar
   103   164   165    2
   104   121   120    1
   105     2     3    1
   106    31    33   ar
   107    34    33   ar
   108    34    35    1
   109    77    74    1
   110     3     4    2
   111    68    69    1
   112   116   115    2
   113    73    74    1
   114    23    22    1
   115    21    22   ar
   116    21    19   ar
   117    74    75    1
   118    72    69    1
   119    22    20   ar
   120    69    70    1
   121    19    17   ar
   122   115   114    1
   123   117   114    1
   124   117   118    1
   125   114   113    1
   126    94    93   ar
   127    93    92    1
   128    93    95   ar
   129   108   107    2
   130   103   102   ar
   131    75    76    2
   132   111   110    2
   133    92    91    1
   134    70    71    2
   135    91    88    1
   136    20    18   ar
   137   113   107   am
   138   113   119    1
   139    17    18   ar
   140    17    16    1
   141   107   106    1
   142   118   119    1
   143   110   112   am
   144   110   109    1
   145   102   104   ar
   146   102   101    1
   147    12    13    1
   148    16    13    1
   149   101   100    1
   150    88    87    1
   151    88    89    1
   152   100    97    1
   153   106   109    1
   154   106   105    1
   155    13    14    1
   156    96    89   am
   157    96    97    1
   158    89    90    2
   159    97    98    1
   160    14    15    2
   161    98    99    2
