@<TRIPOS>MOLECULE
tmp/4d2dA00.pdb
 196 187 0 0 0
SMALL
GASTEIGER

@<TRIPOS>ATOM
      1  N        -30.5270  -10.7690   -4.4500 N.3    21  ARG21      -0.1245
      2  CA       -29.4840  -11.3430   -3.6090 C.3    21  ARG21       0.1563
      3  C        -29.4270  -10.6110   -2.2710 C.2    21  ARG21       0.2260
      4  O        -29.1350  -11.2120   -1.2310 O.2    21  ARG21      -0.2867
      5  CB       -28.1250  -11.2820   -4.3100 C.3    21  ARG21       0.0307
      6  CG       -27.9800  -12.2260   -5.5080 C.3    21  ARG21       0.0489
      7  CD       -27.8320  -13.6870   -5.0900 C.3    21  ARG21       0.2205
      8  NE       -29.1200  -14.3610   -4.9430 N.pl3  21  ARG21      -0.0865
      9  CZ       -29.2660  -15.6230   -4.5510 C.cat  21  ARG21       0.5346
     10  NH1      -28.2020  -16.3590   -4.2570 N.pl3  21  ARG21       0.1354
     11  NH2      -30.4790  -16.1480   -4.4480 N.pl3  21  ARG21       0.1354
     12  N        -32.1400  -12.1100   -0.2830 N.3    24  TYR24      -0.1227
     13  CA       -31.8600  -13.4960    0.0610 C.3    24  TYR24       0.1736
     14  C        -30.8310  -13.6110    1.1810 C.2    24  TYR24       0.2595
     15  O        -31.0600  -14.3050    2.1720 O.2    24  TYR24      -0.2718
     16  CB       -31.3860  -14.2750   -1.1710 C.3    24  TYR24       0.0548
     17  CG       -31.0800  -15.7280   -0.8750 C.ar   24  TYR24      -0.0200
     18  CD1      -32.1040  -16.6410   -0.6520 C.ar   24  TYR24      -0.0009
     19  CD2      -29.7700  -16.1840   -0.8090 C.ar   24  TYR24      -0.0009
     20  CE1      -31.8330  -17.9660   -0.3710 C.ar   24  TYR24       0.0417
     21  CE2      -29.4880  -17.5090   -0.5280 C.ar   24  TYR24       0.0417
     22  CZ       -30.5240  -18.3940   -0.3120 C.ar   24  TYR24       0.1957
     23  OH       -30.2520  -19.7130   -0.0330 O.3    24  TYR24      -0.2866
     24  N        -29.7030  -12.9260    1.0350 N.am   25  TYR25      -0.1976
     25  CA       -28.6280  -13.0520    2.0150 C.3    25  TYR25       0.1639
     26  C        -28.8510  -12.1780    3.2430 C.2    25  TYR25       0.2290
     27  O        -28.3100  -12.4590    4.3130 O.2    25  TYR25      -0.2864
     28  CB       -27.2780  -12.7380    1.3690 C.3    25  TYR25       0.0560
     29  CG       -26.8140  -13.8570    0.4690 C.ar   25  TYR25      -0.0198
     30  CD1      -26.4500  -15.0850    1.0030 C.ar   25  TYR25      -0.0009
     31  CD2      -26.7600  -13.6980   -0.9100 C.ar   25  TYR25      -0.0009
     32  CE1      -26.0380  -16.1200    0.1980 C.ar   25  TYR25       0.0417
     33  CE2      -26.3420  -14.7340   -1.7290 C.ar   25  TYR25       0.0417
     34  CZ       -25.9820  -15.9430   -1.1650 C.ar   25  TYR25       0.1957
     35  OH       -25.5680  -16.9860   -1.9580 O.3    25  TYR25      -0.2866
     36  N        -30.8890  -14.5790    5.2100 N.3    28  ARG28      -0.1245
     37  CA       -30.0970  -15.6950    5.7200 C.3    28  ARG28       0.1563
     38  C        -29.0320  -15.2590    6.7230 C.2    28  ARG28       0.2260
     39  O        -28.4980  -16.0820    7.4640 O.2    28  ARG28      -0.2867
     40  CB       -29.4500  -16.4670    4.5700 C.3    28  ARG28       0.0307
     41  CG       -30.3950  -17.4840    3.9470 C.3    28  ARG28       0.0489
     42  CD       -29.6700  -18.4460    3.0370 C.3    28  ARG28       0.2205
     43  NE       -28.7020  -19.2670    3.7590 N.pl3  28  ARG28      -0.0865
     44  CZ       -28.9450  -20.4990    4.1950 C.cat  28  ARG28       0.5346
     45  NH1      -30.1320  -21.0570    3.9870 N.pl3  28  ARG28       0.1354
     46  NH2      -28.0000  -21.1750    4.8360 N.pl3  28  ARG28       0.1354
     47  N        -31.1710  -24.1920    2.1100 N.3    59  ALA59      -0.1245
     48  CA       -30.2400  -23.8550    1.0450 C.3    59  ALA59       0.1562
     49  C        -30.2710  -24.9200   -0.0490 C.2    59  ALA59       0.2260
     50  O        -30.3070  -24.6030   -1.2380 O.2    59  ALA59      -0.2867
     51  CB       -28.8360  -23.7040    1.5980 C.3    59  ALA59       0.0290
     52  N        -31.3490  -24.4000   -4.1400 N.3    63  TYR63      -0.1241
     53  CA       -30.4950  -24.7880   -5.2590 C.3    63  TYR63       0.1605
     54  C        -31.1670  -25.8420   -6.1420 C.2    63  TYR63       0.2264
     55  O        -30.9410  -25.8850   -7.3520 O.2    63  TYR63      -0.2867
     56  CB       -29.1530  -25.3200   -4.7440 C.3    63  TYR63       0.0534
     57  CG       -28.3120  -24.2870   -4.0270 C.ar   63  TYR63      -0.0201
     58  CD1      -28.1090  -23.0280   -4.5740 C.ar   63  TYR63      -0.0009
     59  CD2      -27.7280  -24.5690   -2.7960 C.ar   63  TYR63      -0.0009
     60  CE1      -27.3430  -22.0790   -3.9230 C.ar   63  TYR63       0.0417
     61  CE2      -26.9610  -23.6250   -2.1340 C.ar   63  TYR63       0.0417
     62  CZ       -26.7720  -22.3820   -2.7030 C.ar   63  TYR63       0.1957
     63  OH       -26.0100  -21.4360   -2.0540 O.3    63  TYR63      -0.2866
     64  N        -33.9240  -17.0400  -10.2610 N.3   121  LYS121     -0.1245
     65  CA       -32.4670  -17.1700  -10.3280 C.3   121  LYS121      0.1561
     66  C        -31.9160  -17.6580  -11.6780 C.2   121  LYS121      0.2260
     67  O        -31.0360  -17.0130  -12.2460 O.2   121  LYS121     -0.2867
     68  CB       -31.9770  -18.0970   -9.2070 C.3   121  LYS121      0.0271
     69  CG       -30.4940  -17.9810   -8.9060 C.3   121  LYS121      0.0035
     70  CD       -30.1790  -16.6960   -8.1550 C.3   121  LYS121      0.0206
     71  CE       -28.9080  -16.0460   -8.6850 C.3   121  LYS121      0.1093
     72  NZ       -27.7790  -17.0010   -8.8500 N.3   121  LYS121     -0.1314
     73  N        -24.3010   -9.2930   -8.1720 N.3   150  ILE150     -0.1231
     74  CA       -24.7550  -10.3700   -7.3100 C.3   150  ILE150      0.1692
     75  C        -23.9820  -10.3350   -5.9940 C.2   150  ILE150      0.2592
     76  O        -24.5770  -10.3460   -4.9160 O.2   150  ILE150     -0.2718
     77  CB       -24.5930  -11.7440   -7.9960 C.3   150  ILE150      0.0266
     78  CG1      -25.6410  -11.9030   -9.1000 C.3   150  ILE150      0.0019
     79  CG2      -24.7040  -12.8760   -6.9840 C.3   150  ILE150      0.0020
     80  CD1      -25.5870  -13.2320   -9.8270 C.3   150  ILE150      0.0001
     81  N        -22.6580  -10.2650   -6.0930 N.am  151  ASN151     -0.1974
     82  CA       -21.7960  -10.2210   -4.9160 C.3   151  ASN151      0.1688
     83  C        -21.9990   -8.9520   -4.0910 C.2   151  ASN151      0.2292
     84  O        -21.9140   -8.9750   -2.8620 O.2   151  ASN151     -0.2864
     85  CB       -20.3300  -10.3340   -5.3330 C.3   151  ASN151      0.1181
     86  CG       -20.0370  -11.6090   -6.0970 C.2   151  ASN151      0.2629
     87  OD1      -20.5920  -12.6640   -5.7980 O.2   151  ASN151     -0.2716
     88  ND2      -19.1640  -11.5150   -7.0950 N.am  151  ASN151     -0.0877
     89  N        -25.0840   -9.1440   -2.0370 N.3   154  ALA154     -0.1245
     90  CA       -24.8400  -10.1040   -0.9690 C.3   154  ALA154      0.1562
     91  C        -23.9330   -9.5200    0.1120 C.2   154  ALA154      0.2260
     92  O        -23.9030  -10.0170    1.2380 O.2   154  ALA154     -0.2867
     93  CB       -24.2320  -11.3770   -1.5360 C.3   154  ALA154      0.0290
     94  N        -18.5520  -27.2950   -1.6180 N.3   287  TRP287     -0.1241
     95  CA       -19.7780  -26.5480   -1.3780 C.3   287  TRP287      0.1605
     96  C        -20.2940  -26.7820    0.0310 C.2   287  TRP287      0.2264
     97  O        -20.8030  -25.8640    0.6590 O.2   287  TRP287     -0.2867
     98  CB       -20.8530  -26.9110   -2.4050 C.3   287  TRP287      0.0550
     99  CG       -20.5920  -26.3360   -3.7700 C.ar  287  TRP287      0.0003
    100  CD1      -20.5570  -27.0160   -4.9530 C.ar  287  TRP287      0.0946
    101  CD2      -20.3210  -24.9640   -4.0890 C.ar  287  TRP287      0.0152
    102  NE1      -20.2870  -26.1540   -5.9870 N.ar  287  TRP287     -0.2442
    103  CE2      -20.1370  -24.8890   -5.4830 C.ar  287  TRP287      0.0810
    104  CE3      -20.2190  -23.7920   -3.3310 C.ar  287  TRP287      0.0012
    105  CZ2      -19.8550  -23.6890   -6.1350 C.ar  287  TRP287      0.0191
    106  CZ3      -19.9390  -22.6050   -3.9790 C.ar  287  TRP287      0.0001
    107  CH2      -19.7600  -22.5610   -5.3670 C.ar  287  TRP287      0.0015
    108  N        -18.2200  -24.6080    2.2240 N.3   290  GLU290     -0.1231
    109  CA       -18.5140  -23.2340    1.8510 C.3   290  GLU290      0.1699
    110  C        -19.9170  -22.8170    2.3100 C.2   290  GLU290      0.2592
    111  O        -20.1150  -21.6870    2.7560 O.2   290  GLU290     -0.2718
    112  CB       -18.3510  -23.0720    0.3370 C.3   290  GLU290      0.0402
    113  CG       -18.2070  -21.6430   -0.1520 C.3   290  GLU290      0.1161
    114  CD       -19.5420  -20.9610   -0.3210 C.2   290  GLU290      0.3649
    115  OE1      -20.5230  -21.6750   -0.6140 O.co2 290  GLU290     -0.2457
    116  OE2      -19.6070  -19.7220   -0.1760 O.co2 290  GLU290     -0.2457
    117  N        -20.8800  -23.7320    2.2190 N.am  291  GLU291     -0.1979
    118  CA       -22.2510  -23.4490    2.6540 C.3   291  GLU291      0.1602
    119  C        -22.3730  -23.3750    4.1730 C.2   291  GLU291      0.2287
    120  O        -23.3370  -22.8140    4.6950 O.2   291  GLU291     -0.2864
    121  CB       -23.2250  -24.5080    2.1250 C.3   291  GLU291      0.0415
    122  CG       -23.4690  -24.4670    0.6220 C.3   291  GLU291      0.1163
    123  CD       -24.2290  -23.2350    0.1770 C.2   291  GLU291      0.3649
    124  OE1      -25.2950  -22.9490    0.7620 O.co2 291  GLU291     -0.2457
    125  OE2      -23.7630  -22.5540   -0.7610 O.co2 291  GLU291     -0.2457
    126  N        -20.6280  -21.6860    6.1060 N.3   293  GLY293     -0.1210
    127  CA       -20.2560  -20.3600    6.5600 C.3   293  GLY293      0.1956
    128  C        -21.4310  -19.6100    7.1570 C.2   293  GLY293      0.2612
    129  O        -21.2670  -18.7980    8.0670 O.2   293  GLY293     -0.2717
    130  N        -22.6240  -19.8940    6.6450 N.am  294  SER294     -0.1952
    131  CA       -23.8320  -19.2260    7.1100 C.3   294  SER294      0.1924
    132  C        -24.5220  -20.0190    8.2150 C.2   294  SER294      0.2314
    133  O        -25.5870  -19.6280    8.6960 O.2   294  SER294     -0.2863
    134  CB       -24.8020  -19.0070    5.9470 C.3   294  SER294      0.2116
    135  OG       -25.2740  -20.2440    5.4400 O.3   294  SER294     -0.2180
    136  N        -21.2660  -12.3790    7.7850 N.3   316  GLN316     -0.1245
    137  CA       -21.7310  -12.9750    6.5380 C.3   316  GLN316      0.1566
    138  C        -21.3800  -12.1240    5.3190 C.2   316  GLN316      0.2260
    139  O        -21.5830  -12.5510    4.1860 O.2   316  GLN316     -0.2867
    140  CB       -23.2420  -13.2090    6.5880 C.3   316  GLN316      0.0367
    141  CG       -23.6620  -14.1900    7.6650 C.3   316  GLN316      0.0905
    142  CD       -22.9310  -15.5140    7.5580 C.2   316  GLN316      0.2608
    143  OE1      -22.9190  -16.1510    6.5030 O.2   316  GLN316     -0.2717
    144  NE2      -22.2990  -15.9270    8.6490 N.am  316  GLN316     -0.0878
    145  N        -17.7710  -13.2610    3.0800 N.3   319  ASN319     -0.1226
    146  CA       -17.8080  -14.1680    1.9380 C.3   319  ASN319      0.1770
    147  C        -17.8990  -13.4030    0.6000 C.2   319  ASN319      0.2439
    148  O        -17.0140  -13.5500   -0.2430 O.2   319  ASN319     -0.2733
    149  CB       -18.9650  -15.1700    2.0950 C.3   319  ASN319      0.1168
    150  CG       -18.9830  -16.2290    1.0080 C.2   319  ASN319      0.2627
    151  OD1      -19.2830  -15.9420   -0.1530 O.2   319  ASN319     -0.2716
    152  ND2      -18.6920  -17.4680    1.3880 N.am  319  ASN319     -0.0877
    153  N        -18.9390  -12.5640    0.4030 N.am  320  PRO320     -0.2729
    154  CA       -18.9530  -11.8640   -0.8900 C.3   320  PRO320      0.1401
    155  C        -17.9200  -10.7380   -0.9970 C.2   320  PRO320      0.2269
    156  O        -17.6180  -10.2950   -2.1050 O.2   320  PRO320     -0.2865
    157  CB       -20.3730  -11.3010   -0.9650 C.3   320  PRO320      0.0296
    158  CG       -20.7670  -11.1110    0.4510 C.3   320  PRO320      0.0237
    159  CD       -20.1310  -12.2360    1.2100 C.3   320  PRO320      0.0939
    160  N        -14.7950  -12.4840   -2.3510 N.3   323  ILE323     -0.1245
    161  CA       -15.0610  -12.8280   -3.7440 C.3   323  ILE323      0.1561
    162  C        -14.7840  -11.6230   -4.6340 C.2   323  ILE323      0.2260
    163  O        -14.1580  -11.7490   -5.6840 O.2   323  ILE323     -0.2867
    164  CB       -16.5130  -13.3030   -3.9650 C.3   323  ILE323      0.0252
    165  CG1      -16.7530  -14.6500   -3.2850 C.3   323  ILE323      0.0019
    166  CG2      -16.8210  -13.4200   -5.4540 C.3   323  ILE323      0.0019
    167  CD1      -18.1360  -15.2230   -3.5500 C.3   323  ILE323      0.0001
    168  N        -12.5910  -17.4670    6.0460 N.3   384  TRP384     -0.1241
    169  CA       -13.3030  -17.0990    4.8250 C.3   384  TRP384      0.1605
    170  C        -12.3470  -16.6930    3.7100 C.2   384  TRP384      0.2264
    171  O        -12.6120  -16.9480    2.5390 O.2   384  TRP384     -0.2867
    172  CB       -14.3080  -15.9840    5.1230 C.3   384  TRP384      0.0550
    173  CG       -15.6820  -16.5320    5.3430 C.ar  384  TRP384      0.0003
    174  CD1      -16.3140  -17.4770    4.5870 C.ar  384  TRP384      0.0946
    175  CD2      -16.5580  -16.2480    6.4410 C.ar  384  TRP384      0.0152
    176  NE1      -17.5500  -17.7580    5.1160 N.ar  384  TRP384     -0.2442
    177  CE2      -17.7220  -17.0200    6.2580 C.ar  384  TRP384      0.0810
    178  CE3      -16.4790  -15.3970    7.5510 C.ar  384  TRP384      0.0012
    179  CZ2      -18.7980  -16.9720    7.1450 C.ar  384  TRP384      0.0191
    180  CZ3      -17.5510  -15.3500    8.4290 C.ar  384  TRP384      0.0001
    181  CH2      -18.6940  -16.1340    8.2210 C.ar  384  TRP384      0.0015
    182  N        -12.8050  -21.1440   -3.7060 N.3   391  GLU391     -0.1245
    183  CA       -13.9170  -20.9100   -4.6180 C.3   391  GLU391      0.1567
    184  C        -13.4150  -20.3450   -5.9370 C.2   391  GLU391      0.2260
    185  O        -13.8890  -20.7230   -7.0040 O.2   391  GLU391     -0.2867
    186  CB       -14.9500  -19.9660   -3.9940 C.3   391  GLU391      0.0388
    187  CG       -16.2620  -19.8940   -4.7720 C.3   391  GLU391      0.1160
    188  CD       -17.3750  -19.1970   -4.0070 C.2   391  GLU391      0.3649
    189  OE1      -17.5020  -19.4260   -2.7860 O.co2 391  GLU391     -0.2457
    190  OE2      -18.1330  -18.4270   -4.6350 O.co2 391  GLU391     -0.2457
    191  N        -23.9350  -28.1830   -5.5780 N.3   416  SER416     -0.1217
    192  CA       -24.2550  -27.1850   -4.5700 C.3   416  SER416      0.1889
    193  C        -25.3780  -27.6660   -3.6500 C.2   416  SER416      0.2288
    194  O        -25.3100  -27.5010   -2.4300 O.2   416  SER416     -0.2866
    195  CB       -24.6450  -25.8700   -5.2510 C.3   416  SER416      0.2089
    196  OG       -25.0650  -24.9040   -4.3080 O.3   416  SER416     -0.2183
@<TRIPOS>BOND
     1    67    66    2
     2    66    65    1
     3    65    64    1
     4    65    68    1
     5    80    78    1
     6    68    69    1
     7    78    77    1
     8    69    70    1
     9    72    71    1
    10    71    70    1
    11    73    74    1
    12    77    74    1
    13    77    79    1
    14    55    54    2
    15    74    75    1
    16    88    86   am
    17   185   184    2
    18    54    53    1
    19   105   103   ar
    20   105   107   ar
    21    86    87    2
    22    86    85    1
    23    81    75   am
    24    81    82    1
    25    75    76    2
    26   102   103   ar
    27   102   100   ar
    28   184   183    1
    29   163   162    2
    30   191   192    1
    31     6     7    1
    32     6     5    1
    33   103   101   ar
    34   166   164    1
    35   107   106   ar
    36    85    82    1
    37    53    56    1
    38    53    52    1
    39   195   192    1
    40   195   196    1
    41     7     8    1
    42   100    99   ar
    43     8     9    2
    44    82    83    1
    45   187   188    1
    46   187   186    1
    47    56    57    1
    48   190   188   ar
    49   162   161    1
    50   183   186    1
    51   183   182    1
    52    58    57   ar
    53    58    60   ar
    54   192   193    1
    55     9    11    1
    56     9    10    1
    57     1     2    1
    58     5     2    1
    59    83    84    2
    60   101    99   ar
    61   101   104   ar
    62    57    59   ar
    63   188   189   ar
    64   106   104   ar
    65   164   161    1
    66   164   165    1
    67    60    62   ar
    68    99    98    1
    69   161   160    1
    70   193   194    2
    71     2     3    1
    72   167   165    1
    73    59    61   ar
    74    62    61   ar
    75    62    63    1
    76    98    95    1
    77     3     4    2
    78   156   155    2
    79    89    90    1
    80    35    34    1
    81    33    34   ar
    82    33    31   ar
    83    94    95    1
    84    93    90    1
    85    95    96    1
    86    50    49    2
    87    16    17    1
    88    16    13    1
    89    34    32   ar
    90   155   154    1
    91    90    91    1
    92   157   154    1
    93   157   158    1
    94    31    29   ar
    95   154   153    1
    96    17    19   ar
    97    17    18   ar
    98    19    21   ar
    99   125   123   ar
   100    18    20   ar
   101   115   114   ar
   102    21    22   ar
   103    20    22   ar
   104   114   116   ar
   105   114   113    1
   106    22    23    1
   107    12    13    1
   108   148   147    2
   109   151   150    2
   110   113   112    1
   111    49    48    1
   112    96    97    2
   113    13    14    1
   114    91    92    2
   115   123   122    1
   116   123   124   ar
   117    32    30   ar
   118   112   109    1
   119   153   147   am
   120   153   159    1
   121   158   159    1
   122    29    30   ar
   123    29    28    1
   124   147   146    1
   125   122   121    1
   126   150   152   am
   127   150   149    1
   128    24    14   am
   129    24    25    1
   130    48    51    1
   131    48    47    1
   132    14    15    2
   133    28    25    1
   134   109   108    1
   135   109   110    1
   136   146   149    1
   137   146   145    1
   138    25    26    1
   139   121   118    1
   140   117   110   am
   141   117   118    1
   142   110   111    2
   143   171   170    2
   144   118   119    1
   145    42    43    1
   146    42    41    1
   147    26    27    2
   148   170   169    1
   149    43    44    2
   150    41    40    1
   151    45    44    1
   152   119   120    2
   153   139   138    2
   154    44    46    1
   155    40    37    1
   156   174   176   ar
   157   174   173   ar
   158   169   172    1
   159   169   168    1
   160   176   177   ar
   161   172   173    1
   162    36    37    1
   163   138   137    1
   164   173   175   ar
   165   135   134    1
   166    37    38    1
   167   134   131    1
   168   126   127    1
   169   177   175   ar
   170   177   179   ar
   171   175   178   ar
   172   143   142    2
   173   137   140    1
   174   137   136    1
   175   127   128    1
   176   140   141    1
   177   130   131    1
   178   130   128   am
   179    38    39    2
   180   131   132    1
   181   179   181   ar
   182   128   129    2
   183   178   180   ar
   184   142   141    1
   185   142   144   am
   186   132   133    2
   187   181   180   ar
