@<TRIPOS>MOLECULE
tmp/4d2eA03.pdb
 86 80 0 0 0
SMALL
GASTEIGER

@<TRIPOS>ATOM
      1  N          6.6750   23.1970   -8.4630 N.3    32  ALA32      -0.1245
      2  CA         6.1010   23.7370   -7.2390 C.3    32  ALA32       0.1562
      3  C          5.0810   22.7660   -6.6450 C.2    32  ALA32       0.2260
      4  O          5.0990   22.4830   -5.4490 O.2    32  ALA32      -0.2867
      5  CB         5.4560   25.1060   -7.5000 C.3    32  ALA32       0.0290
      6  N          6.8350   19.6280   -5.2900 N.3    35  LEU35      -0.1231
      7  CA         7.4750   19.9390   -4.0130 C.3    35  LEU35       0.1693
      8  C          6.4440   20.0290   -2.9020 C.2    35  LEU35       0.2592
      9  O          6.6790   19.5150   -1.8230 O.2    35  LEU35      -0.2718
     10  CB         8.2630   21.2420   -4.0770 C.3    35  LEU35       0.0284
     11  CG         9.6370   21.1800   -4.7320 C.3    35  LEU35       0.0019
     12  CD1       10.2090   22.5860   -4.8550 C.3    35  LEU35       0.0001
     13  CD2       10.5630   20.2780   -3.9260 C.3    35  LEU35       0.0001
     14  N          5.2930   20.6480   -3.1690 N.am   36  CYS36      -0.1970
     15  CA         4.2480   20.7660   -2.1390 C.3    36  CYS36       0.1712
     16  C          3.6540   19.4240   -1.7150 C.2    36  CYS36       0.2296
     17  O          3.4180   19.1980   -0.5230 O.2    36  CYS36      -0.2864
     18  CB         3.1190   21.6840   -2.6100 C.3    36  CYS36       0.0983
     19  SG         3.5820   23.4290   -2.6170 S.3    36  CYS36      -0.0798
     20  N          6.3090   17.7190    0.4120 N.3    39  ILE39      -0.1245
     21  CA         6.2780   18.3400    1.7320 C.3    39  ILE39       0.1561
     22  C          5.0500   17.9170    2.5550 C.2    39  ILE39       0.2260
     23  O          5.1700   17.5320    3.7240 O.2    39  ILE39      -0.2867
     24  CB         6.2970   19.8590    1.6190 C.3    39  ILE39       0.0252
     25  CG1        7.6860   20.3380    1.1810 C.3    39  ILE39       0.0019
     26  CG2        5.8930   20.4990    2.9510 C.3    39  ILE39       0.0019
     27  CD1        7.7040   21.7920    0.7520 C.3    39  ILE39       0.0001
     28  N          5.0530   15.9830    6.2080 N.3    43  LEU43      -0.1231
     29  CA         4.6810   16.8490    7.3190 C.3    43  LEU43       0.1693
     30  C          3.9730   16.0840    8.4360 C.2    43  LEU43       0.2592
     31  O          3.2490   15.1170    8.1820 O.2    43  LEU43      -0.2718
     32  CB         3.7810   17.9580    6.7930 C.3    43  LEU43       0.0284
     33  CG         3.9360   19.3970    7.2610 C.3    43  LEU43       0.0019
     34  CD1        5.3810   19.7300    7.4950 C.3    43  LEU43       0.0001
     35  CD2        3.3460   20.2980    6.1840 C.3    43  LEU43       0.0001
     36  N          4.1740   16.5270    9.6730 N.am   44  ASP44      -0.1974
     37  CA         3.5580   15.8970   10.8340 C.3    44  ASP44       0.1709
     38  C          2.2060   16.5300   11.1700 C.2    44  ASP44       0.2293
     39  O          2.0780   17.2840   12.1380 O.2    44  ASP44      -0.2864
     40  CB         4.4890   15.9820   12.0430 C.3    44  ASP44       0.1436
     41  CG         4.0030   15.1470   13.2050 C.2    44  ASP44       0.3671
     42  OD1        4.3700   13.9550   13.2750 O.co2  44  ASP44      -0.2456
     43  OD2        3.2450   15.6790   14.0440 O.co2  44  ASP44      -0.2456
     44  N         -2.6000   28.8790   -1.9970 N.3   104  VAL104     -0.1245
     45  CA        -1.6330   29.6210   -1.1960 C.3   104  VAL104      0.1561
     46  C         -2.2100   29.9310    0.1790 C.2   104  VAL104      0.2260
     47  O         -1.5520   29.7380    1.2100 O.2   104  VAL104     -0.2867
     48  CB        -1.2110   30.9400   -1.8940 C.3   104  VAL104      0.0252
     49  CG1       -0.4000   31.8100   -0.9590 C.3   104  VAL104      0.0019
     50  CG2       -0.4300   30.6370   -3.1620 C.3   104  VAL104      0.0019
     51  N         -2.6260   26.8480    2.3280 N.3   107  TRP107     -0.1241
     52  CA        -1.3540   26.4400    2.8970 C.3   107  TRP107      0.1605
     53  C         -0.9470   27.3430    4.0530 C.2   107  TRP107      0.2264
     54  O         -0.4990   26.8500    5.0860 O.2   107  TRP107     -0.2867
     55  CB        -0.2780   26.4050    1.8160 C.3   107  TRP107      0.0550
     56  CG        -0.2150   25.0510    1.1660 C.ar  107  TRP107      0.0003
     57  CD1       -1.1650   24.4660    0.3650 C.ar  107  TRP107      0.0946
     58  CD2        0.8420   24.0980    1.2980 C.ar  107  TRP107      0.0152
     59  NE1       -0.7480   23.2140   -0.0150 N.ar  107  TRP107     -0.2442
     60  CE2        0.4860   22.9710    0.5400 C.ar  107  TRP107      0.0810
     61  CE3        2.0660   24.0950    1.9860 C.ar  107  TRP107      0.0012
     62  CZ2        1.3070   21.8440    0.4490 C.ar  107  TRP107      0.0191
     63  CZ3        2.8790   22.9790    1.8940 C.ar  107  TRP107      0.0001
     64  CH2        2.4950   21.8670    1.1380 C.ar  107  TRP107      0.0015
     65  N         -0.6240   25.7300    7.8320 N.3   111  LEU111     -0.1245
     66  CA         0.7260   25.6910    8.3850 C.3   111  LEU111      0.1561
     67  C          0.8400   26.6610    9.5420 C.2   111  LEU111      0.2260
     68  O          1.5590   26.3860   10.4930 O.2   111  LEU111     -0.2867
     69  CB         1.7930   26.0100    7.3370 C.3   111  LEU111      0.0270
     70  CG         1.9630   25.0200    6.1870 C.3   111  LEU111      0.0019
     71  CD1        3.2070   25.3660    5.3760 C.3   111  LEU111      0.0001
     72  CD2        2.0250   23.5930    6.7070 C.3   111  LEU111      0.0001
     73  N         -0.8260   24.9190   12.3030 N.3   114  HIS114     -0.1241
     74  CA         0.1310   23.9020   12.7360 C.3   114  HIS114      0.1621
     75  C          1.3400   24.5280   13.4550 C.2   114  HIS114      0.2264
     76  O          2.1160   23.8270   14.1010 O.2   114  HIS114     -0.2867
     77  CB         0.5800   23.0770   11.5170 C.3   114  HIS114      0.0745
     78  CG         1.6760   22.0950   11.7980 C.ar  114  HIS114      0.0817
     79  ND1        2.9990   22.3630   11.5330 N.ar  114  HIS114     -0.2268
     80  CD2        1.6380   20.8360   12.3040 C.ar  114  HIS114      0.1154
     81  CE1        3.7370   21.3170   11.8750 C.ar  114  HIS114      0.1986
     82  NE2        2.9340   20.3810   12.3440 N.ar  114  HIS114     -0.2212
     83  N          4.0660   25.3900   12.4270 N.3   116  GLY116     -0.1225
     84  CA         5.3430   24.8680   11.9680 C.3   116  GLY116      0.1811
     85  C          5.4550   24.7630   10.4570 C.2   116  GLY116      0.2280
     86  O          5.4840   23.6660    9.8970 O.2   116  GLY116     -0.2866
@<TRIPOS>BOND
     1     1     2    1
     2     5     2    1
     3     2     3    1
     4     3     4    2
     5     6     7    1
     6    12    11    1
     7    11    10    1
     8    11    13    1
     9    10     7    1
    10     7     8    1
    11    14     8   am
    12    14    15    1
    13    50    48    1
    14     8     9    2
    15    19    18    1
    16    18    15    1
    17    15    16    1
    18    44    45    1
    19    48    45    1
    20    48    49    1
    21    16    17    2
    22    45    46    1
    23    59    57   ar
    24    59    60   ar
    25    46    47    2
    26    57    56   ar
    27    20    21    1
    28    62    60   ar
    29    62    64   ar
    30    60    58   ar
    31    27    25    1
    32    64    63   ar
    33    56    58   ar
    34    56    55    1
    35    25    24    1
    36    58    61   ar
    37    24    21    1
    38    24    26    1
    39    21    22    1
    40    55    52    1
    41    63    61   ar
    42    51    52    1
    43    22    23    2
    44    52    53    1
    45    53    54    2
    46    71    70    1
    47    35    33    1
    48    70    72    1
    49    70    69    1
    50    28    29    1
    51    32    33    1
    52    32    29    1
    53    33    34    1
    54    29    30    1
    55    69    66    1
    56    65    66    1
    57    31    30    2
    58    66    67    1
    59    30    36   am
    60    67    68    2
    61    36    37    1
    62    86    85    2
    63    85    84    1
    64    37    38    1
    65    37    40    1
    66    38    39    2
    67    77    78    1
    68    77    74    1
    69    79    78   ar
    70    79    81   ar
    71    78    80   ar
    72    81    82   ar
    73    84    83    1
    74    40    41    1
    75    73    74    1
    76    80    82   ar
    77    74    75    1
    78    41    42   ar
    79    41    43   ar
    80    75    76    2
