@<TRIPOS>MOLECULE
tmp/4d2iA00.pdb
 142 135 0 0 0
SMALL
GASTEIGER

@<TRIPOS>ATOM
      1  N        -23.7810  -15.7470    4.1230 N.3   150  THR150     -0.1203
      2  CA       -24.6050  -16.7460    3.4470 C.3   150  THR150      0.1994
      3  C        -25.6600  -17.3340    4.3730 C.2   150  THR150      0.2618
      4  O        -25.3460  -17.8480    5.4500 O.2   150  THR150     -0.2717
      5  CB       -23.7490  -17.8910    2.8680 C.3   150  THR150      0.1784
      6  OG1      -22.7180  -18.2370    3.8000 O.3   150  THR150     -0.2211
      7  CG2      -23.1140  -17.4650    1.5570 C.3   150  THR150      0.0376
      8  N        -26.9180  -17.2050    3.9590 N.am  151  GLY151     -0.1942
      9  CA       -28.0400  -17.7820    4.6720 C.3   151  GLY151      0.2014
     10  C        -28.5560  -16.9310    5.8160 C.2   151  GLY151      0.2640
     11  O        -29.1340  -17.4520    6.7630 O.2   151  GLY151     -0.2714
     12  N        -28.3550  -15.6210    5.7290 N.am  152  SER152     -0.1935
     13  CA       -28.7470  -14.7270    6.8180 C.3   152  SER152      0.2055
     14  C        -30.1010  -14.0810    6.5540 C.2   152  SER152      0.2644
     15  O        -30.7740  -13.6320    7.4800 O.2   152  SER152     -0.2714
     16  CB       -27.6840  -13.6470    7.0450 C.3   152  SER152      0.2130
     17  OG       -26.4730  -14.2110    7.5200 O.3   152  SER152     -0.2179
     18  N        -30.5010  -14.0440    5.2900 N.am  153  GLY153     -0.1939
     19  CA       -31.8170  -13.5490    4.9360 C.3   153  GLY153      0.2014
     20  C        -31.8360  -12.3940    3.9620 C.2   153  GLY153      0.2639
     21  O        -32.6390  -11.4730    4.0990 O.2   153  GLY153     -0.2714
     22  N        -30.9630  -12.4470    2.9640 N.am  154  LYS154     -0.1963
     23  CA       -30.9210  -11.4090    1.9450 C.3   154  LYS154      0.1728
     24  C        -32.1370  -11.4970    1.0220 C.2   154  LYS154      0.2617
     25  O        -32.8450  -10.5100    0.8080 O.2   154  LYS154     -0.2715
     26  CB       -29.6360  -11.5130    1.1220 C.3   154  LYS154      0.0311
     27  CG       -28.3650  -11.2610    1.9150 C.3   154  LYS154      0.0038
     28  CD       -27.1350  -11.3000    1.0280 C.3   154  LYS154      0.0206
     29  CE       -26.7980  -12.7130    0.5680 C.3   154  LYS154      0.1093
     30  NZ       -26.3650  -13.6050    1.6740 N.3   154  LYS154     -0.1314
     31  N        -32.3780  -12.6870    0.4830 N.am  155  SER155     -0.1936
     32  CA       -33.4480  -12.8710   -0.4850 C.3   155  SER155      0.2055
     33  C        -34.8350  -12.7900    0.1470 C.2   155  SER155      0.2643
     34  O        -35.7870  -12.3360   -0.4880 O.2   155  SER155     -0.2714
     35  CB       -33.2620  -14.2020   -1.2060 C.3   155  SER155      0.2130
     36  OG       -31.9980  -14.2240   -1.8440 O.3   155  SER155     -0.2179
     37  N        -34.9340  -13.1900    1.4060 N.am  156  ASN156     -0.1971
     38  CA       -36.1810  -13.0500    2.1440 C.3   156  ASN156      0.1688
     39  C        -36.5600  -11.5750    2.2920 C.2   156  ASN156      0.2292
     40  O        -37.7330  -11.2130    2.1860 O.2   156  ASN156     -0.2864
     41  CB       -36.0620  -13.7140    3.5150 C.3   156  ASN156      0.1181
     42  CG       -37.3400  -13.6370    4.3150 C.2   156  ASN156      0.2629
     43  OD1      -38.2100  -14.5000    4.2040 O.2   156  ASN156     -0.2716
     44  ND2      -37.4620  -12.6000    5.1310 N.am  156  ASN156     -0.0877
     45  N        -30.7220  -17.2020   -9.4140 N.3   178  HIS178     -0.1241
     46  CA       -30.9080  -18.6120   -9.0940 C.3   178  HIS178      0.1621
     47  C        -32.3280  -19.1060   -9.3470 C.2   178  HIS178      0.2264
     48  O        -32.6390  -20.2730   -9.1020 O.2   178  HIS178     -0.2867
     49  CB       -30.5290  -18.8600   -7.6320 C.3   178  HIS178      0.0745
     50  CG       -29.0900  -18.5800   -7.3350 C.ar  178  HIS178      0.0817
     51  ND1      -28.0670  -19.3810   -7.7930 N.ar  178  HIS178     -0.2268
     52  CD2      -28.5010  -17.5760   -6.6430 C.ar  178  HIS178      0.1154
     53  CE1      -26.9100  -18.8890   -7.3880 C.ar  178  HIS178      0.1986
     54  NE2      -27.1460  -17.7930   -6.6890 N.ar  178  HIS178     -0.2212
     55  N        -35.0880  -17.9090   -7.8240 N.3   180  GLU180     -0.1245
     56  CA       -35.7370  -18.0360   -6.5190 C.3   180  GLU180      0.1567
     57  C        -37.1220  -17.3920   -6.4600 C.2   180  GLU180      0.2260
     58  O        -38.0240  -17.9100   -5.7980 O.2   180  GLU180     -0.2867
     59  CB       -34.8520  -17.4300   -5.4300 C.3   180  GLU180      0.0388
     60  CG       -33.5880  -18.2110   -5.1720 C.3   180  GLU180      0.1160
     61  CD       -32.6450  -17.5000   -4.2290 C.2   180  GLU180      0.3649
     62  OE1      -32.0530  -16.4800   -4.6380 O.co2 180  GLU180     -0.2457
     63  OE2      -32.4960  -17.9650   -3.0800 O.co2 180  GLU180     -0.2457
     64  N        -29.4650   -9.2430   -7.9660 N.3   343  GLU343     -0.1231
     65  CA       -29.0060  -10.3180   -7.0890 C.3   343  GLU343      0.1699
     66  C        -27.5910  -10.7630   -7.4660 C.2   343  GLU343      0.2592
     67  O        -27.1670  -10.5890   -8.6100 O.2   343  GLU343     -0.2718
     68  CB       -29.9730  -11.5030   -7.1490 C.3   343  GLU343      0.0402
     69  CG       -31.0940  -11.4510   -6.1260 C.3   343  GLU343      0.1161
     70  CD       -30.6620  -11.9180   -4.7430 C.2   343  GLU343      0.3649
     71  OE1      -29.4740  -12.2750   -4.5610 O.co2 343  GLU343     -0.2457
     72  OE2      -31.5240  -11.9420   -3.8390 O.co2 343  GLU343     -0.2457
     73  N        -26.8590  -11.3070   -6.4950 N.am  344  GLU344     -0.1979
     74  CA       -25.5000  -11.8110   -6.7200 C.3   344  GLU344      0.1602
     75  C        -24.6160  -10.7260   -7.3290 C.2   344  GLU344      0.2287
     76  O        -23.8330  -10.9870   -8.2400 O.2   344  GLU344     -0.2864
     77  CB       -25.5310  -13.0420   -7.6340 C.3   344  GLU344      0.0415
     78  CG       -24.5640  -14.1450   -7.2540 C.3   344  GLU344      0.1163
     79  CD       -25.0480  -14.9770   -6.0850 C.2   344  GLU344      0.3649
     80  OE1      -26.2230  -14.8330   -5.6860 O.co2 344  GLU344     -0.2457
     81  OE2      -24.2410  -15.7730   -5.5580 O.co2 344  GLU344     -0.2457
     82  N        -23.1850  -11.1130   -0.7000 N.3   380  GLN380     -0.1245
     83  CA       -22.6640  -11.6240    0.5530 C.3   380  GLN380      0.1566
     84  C        -21.1990  -11.2560    0.7170 C.2   380  GLN380      0.2260
     85  O        -20.6350  -11.4050    1.8010 O.2   380  GLN380     -0.2867
     86  CB       -22.8300  -13.1430    0.6350 C.3   380  GLN380      0.0367
     87  CG       -22.0600  -13.9130   -0.4290 C.3   380  GLN380      0.0905
     88  CD       -22.9430  -14.3640   -1.5760 C.2   380  GLN380      0.2608
     89  OE1      -23.9040  -13.6840   -1.9360 O.2   380  GLN380     -0.2717
     90  NE2      -22.6150  -15.5110   -2.1640 N.am  380  GLN380     -0.0878
     91  N        -30.1650  -14.7070   12.1550 N.3   430  VAL430     -0.1231
     92  CA       -30.7990  -14.8870   10.8610 C.3   430  VAL430      0.1692
     93  C        -32.1170  -14.1240   10.8070 C.2   430  VAL430      0.2592
     94  O        -33.0250  -14.3820   11.5950 O.2   430  VAL430     -0.2718
     95  CB       -31.0390  -16.3750   10.5480 C.3   430  VAL430      0.0266
     96  CG1      -31.6220  -16.5300    9.1460 C.3   430  VAL430      0.0020
     97  CG2      -29.7340  -17.1550   10.6790 C.3   430  VAL430      0.0020
     98  N        -32.2120  -13.1630    9.8920 N.am  431  GLY431     -0.1957
     99  CA       -33.4240  -12.3780    9.7730 C.3   431  GLY431      0.1869
    100  C        -33.3280  -11.0420   10.4830 C.2   431  GLY431      0.2309
    101  O        -34.1770  -10.1740   10.3050 O.2   431  GLY431     -0.2863
    102  N        -36.0450   -6.9650   13.3460 N.3   447  LYS447     -0.1231
    103  CA       -36.3120   -8.3480   12.9700 C.3   447  LYS447      0.1693
    104  C        -37.1760   -8.3550   11.7020 C.2   447  LYS447      0.2592
    105  O        -38.3210   -7.9140   11.7220 O.2   447  LYS447     -0.2718
    106  CB       -37.0020   -9.1060   14.1070 C.3   447  LYS447      0.0285
    107  CG       -37.3310  -10.5480   13.7760 C.3   447  LYS447      0.0035
    108  CD       -36.0710  -11.3490   13.4720 C.3   447  LYS447      0.0206
    109  CE       -36.3820  -12.8200   13.2270 C.3   447  LYS447      0.1093
    110  NZ       -37.3930  -13.0160   12.1490 N.3   447  LYS447     -0.1314
    111  N        -36.6110   -8.8320   10.5970 N.am  448  ILE448     -0.1966
    112  CA       -37.3050   -8.8300    9.3090 C.3   448  ILE448      0.1727
    113  C        -38.3270   -9.9630    9.2230 C.2   448  ILE448      0.2616
    114  O        -38.0360  -11.1060    9.5700 O.2   448  ILE448     -0.2715
    115  CB       -36.3030   -8.9470    8.1320 C.3   448  ILE448      0.0290
    116  CG1      -35.2560   -7.8330    8.2230 C.3   448  ILE448      0.0022
    117  CG2      -37.0220   -8.8990    6.7920 C.3   448  ILE448      0.0023
    118  CD1      -34.0650   -8.0440    7.3250 C.3   448  ILE448      0.0001
    119  N        -39.5270   -9.6340    8.7560 N.am  449  ASP449     -0.1957
    120  CA       -40.5940  -10.6180    8.6330 C.3   449  ASP449      0.1840
    121  C        -40.1990  -11.7520    7.7090 C.2   449  ASP449      0.2621
    122  O        -39.5040  -11.5430    6.7180 O.2   449  ASP449     -0.2715
    123  CB       -41.8830   -9.9670    8.1140 C.3   449  ASP449      0.1450
    124  CG       -42.4170   -8.9100    9.0490 C.2   449  ASP449      0.3671
    125  OD1      -42.1540   -9.0070   10.2680 O.co2 449  ASP449     -0.2456
    126  OD2      -43.1030   -7.9880    8.5680 O.co2 449  ASP449     -0.2456
    127  N        -40.6500  -12.9560    8.0400 N.am  450  MET450     -0.1977
    128  CA       -40.4340  -14.0860    7.1610 C.3   450  MET450      0.1605
    129  C        -41.4400  -13.9860    6.0290 C.2   450  MET450      0.2287
    130  O        -42.6330  -13.7950    6.2710 O.2   450  MET450     -0.2864
    131  CB       -40.5710  -15.4120    7.9080 C.3   450  MET450      0.0413
    132  CG       -40.3600  -16.6280    7.0150 C.3   450  MET450      0.0598
    133  SD       -40.7140  -18.1980    7.8260 S.3   450  MET450     -0.1393
    134  CE       -39.4940  -18.1970    9.1340 C.3   450  MET450      0.0692
    135  N        -39.9490  -19.2870   -1.2970 N.3   455  LEU455     -0.1245
    136  CA       -39.0460  -19.1450   -2.4360 C.3   455  LEU455      0.1561
    137  C        -38.4130  -20.4860   -2.7990 C.2   455  LEU455      0.2260
    138  O        -38.1300  -21.3060   -1.9230 O.2   455  LEU455     -0.2867
    139  CB       -37.9560  -18.1040   -2.1450 C.3   455  LEU455      0.0270
    140  CG       -38.3850  -16.6750   -1.7880 C.3   455  LEU455      0.0019
    141  CD1      -37.1780  -15.7760   -1.5570 C.3   455  LEU455      0.0001
    142  CD2      -39.2620  -16.0920   -2.8760 C.3   455  LEU455      0.0001
@<TRIPOS>BOND
     1    45    46    1
     2    47    48    2
     3    47    46    1
     4    46    49    1
     5    67    66    2
     6    76    75    2
     7    64    65    1
     8    55    56    1
     9    51    53   ar
    10    51    50   ar
    11    77    78    1
    12    77    74    1
    13    49    50    1
    14    66    65    1
    15    66    73   am
    16    53    54   ar
    17    50    52   ar
    18    75    74    1
    19    78    79    1
    20    68    65    1
    21    68    69    1
    22    74    73    1
    23    54    52   ar
    24    56    57    1
    25    56    59    1
    26    57    58    2
    27    69    70    1
    28    79    80   ar
    29    79    81   ar
    30    59    60    1
    31    60    61    1
    32    70    71   ar
    33    70    72   ar
    34    62    61   ar
    35    61    63   ar
    36   142   140    1
    37   137   136    1
    38   137   138    2
    39   136   139    1
    40   136   135    1
    41    90    88   am
    42   139   140    1
    43    89    88    2
    44    36    35    1
    45   140   141    1
    46    88    87    1
    47    35    32    1
    48    82    83    1
    49    34    33    2
    50    32    33    1
    51    32    31    1
    52    87    86    1
    53    33    37   am
    54    31    24   am
    55    83    86    1
    56    83    84    1
    57    29    28    1
    58    29    30    1
    59    84    85    2
    60    25    24    2
    61    24    23    1
    62    28    27    1
    63    26    27    1
    64    26    23    1
    65    37    38    1
    66     7     5    1
    67    23    22    1
    68    38    39    1
    69    38    41    1
    70    40    39    2
    71     5     2    1
    72     5     6    1
    73    22    20   am
    74     2     1    1
    75     2     3    1
    76    41    42    1
    77     8     3   am
    78     8     9    1
    79    20    21    2
    80    20    19    1
    81    43    42    2
    82    42    44   am
    83     3     4    2
    84     9    10    1
    85    19    18    1
    86    18    14   am
    87    12    10   am
    88    12    13    1
    89    10    11    2
    90   129   130    2
    91   129   128    1
    92    14    13    1
    93    14    15    2
    94   122   121    2
    95   117   115    1
    96    13    16    1
    97   132   133    1
    98   132   131    1
    99    16    17    1
   100   128   131    1
   101   128   127    1
   102   118   116    1
   103   121   127   am
   104   121   120    1
   105   133   134    1
   106   123   120    1
   107   123   124    1
   108   115   116    1
   109   115   112    1
   110   126   124   ar
   111   120   119    1
   112   119   113   am
   113   124   125   ar
   114    96    95    1
   115   113   112    1
   116   113   114    2
   117   112   111    1
   118    99    98    1
   119    99   100    1
   120    98    93   am
   121   101   100    2
   122    95    97    1
   123    95    92    1
   124   111   104   am
   125    93    92    1
   126    93    94    2
   127    92    91    1
   128   104   105    2
   129   104   103    1
   130   110   109    1
   131   103   102    1
   132   103   106    1
   133   109   108    1
   134   108   107    1
   135   107   106    1
