@<TRIPOS>MOLECULE
tmp/4d2pA00.pdb
 166 155 0 0 0
SMALL
GASTEIGER

@<TRIPOS>ATOM
      1  N          2.4080   -8.7540  -20.7420 N.3    15  GLU15      -0.1245
      2  CA         1.2420   -7.9160  -21.0840 C.3    15  GLU15       0.1567
      3  C          1.2330   -6.5310  -20.4150 C.2    15  GLU15       0.2260
      4  O          1.6590   -6.3820  -19.2720 O.2    15  GLU15      -0.2867
      5  CB        -0.0860   -8.6420  -20.7400 C.3    15  GLU15       0.0388
      6  CG        -0.2870   -8.9420  -19.2600 C.3    15  GLU15       0.1160
      7  CD        -1.6770   -9.3840  -18.8380 C.2    15  GLU15       0.3649
      8  OE1       -2.6770   -8.8490  -19.3730 O.co2  15  GLU15      -0.2457
      9  OE2       -1.7670  -10.2610  -17.9510 O.co2  15  GLU15      -0.2457
     10  N         -0.8720   -3.5460  -18.5660 N.3    17  ILE17      -0.1245
     11  CA        -1.9480   -3.4850  -17.5750 C.3    17  ILE17       0.1561
     12  C         -2.4360   -2.0160  -17.3620 C.2    17  ILE17       0.2260
     13  O         -3.6410   -1.8040  -17.2200 O.2    17  ILE17      -0.2867
     14  CB        -1.6290   -4.2470  -16.2420 C.3    17  ILE17       0.0252
     15  CG1       -0.1750   -4.0340  -15.7710 C.3    17  ILE17       0.0019
     16  CG2       -1.9390   -5.7480  -16.3890 C.3    17  ILE17       0.0019
     17  CD1        0.1370   -4.5830  -14.3940 C.3    17  ILE17       0.0001
     18  N          1.9910    0.7780  -16.9570 N.3    25  VAL25      -0.1245
     19  CA         2.3040   -0.3840  -16.1100 C.3    25  VAL25       0.1561
     20  C          2.3900   -1.6030  -17.0210 C.2    25  VAL25       0.2260
     21  O          1.4570   -1.8640  -17.7840 O.2    25  VAL25      -0.2867
     22  CB         1.3470   -0.6070  -14.9170 C.3    25  VAL25       0.0252
     23  CG1        1.9460   -1.6020  -13.9310 C.3    25  VAL25       0.0019
     24  CG2        1.0310    0.6990  -14.2060 C.3    25  VAL25       0.0019
     25  N          3.3350   -5.8720  -16.9840 N.3    27  LEU27      -0.1245
     26  CA         3.7080   -7.1260  -16.3190 C.3    27  LEU27       0.1561
     27  C          5.0750   -7.5720  -16.7980 C.2    27  LEU27       0.2260
     28  O          5.4420   -7.2890  -17.9440 O.2    27  LEU27      -0.2867
     29  CB         2.6610   -8.2180  -16.5950 C.3    27  LEU27       0.0270
     30  CG         2.1290   -8.9450  -15.3660 C.3    27  LEU27       0.0019
     31  CD1        1.2470   -8.0450  -14.5480 C.3    27  LEU27       0.0001
     32  CD2        1.3650  -10.1930  -15.7610 C.3    27  LEU27       0.0001
     33  N          5.5590   -6.2140  -11.3900 N.3    38  ALA38      -0.1245
     34  CA         4.8490   -5.1920  -12.1840 C.3    38  ALA38       0.1562
     35  C          5.8160   -3.9790  -12.4130 C.2    38  ALA38       0.2260
     36  O          6.4640   -3.5440  -11.4710 O.2    38  ALA38      -0.2867
     37  CB         3.6050   -4.7440  -11.4340 C.3    38  ALA38       0.0290
     38  N          6.4380   -0.0200  -13.6840 N.3    40  LYS40      -0.1245
     39  CA         5.8610    1.2970  -13.9330 C.3    40  LYS40       0.1561
     40  C          6.8780    2.0540  -14.7670 C.2    40  LYS40       0.2260
     41  O          7.8770    2.5500  -14.2460 O.2    40  LYS40      -0.2867
     42  CB         5.5560    2.0130  -12.5910 C.3    40  LYS40       0.0271
     43  CG         4.6750    3.2360  -12.7060 C.3    40  LYS40       0.0035
     44  CD         4.5480    3.9650  -11.3600 C.3    40  LYS40       0.0206
     45  CE         3.6210    5.1400  -11.4190 C.3    40  LYS40       0.1093
     46  NZ         4.0790    6.2530  -10.5420 N.3    40  LYS40      -0.1314
     47  N          7.9900   10.0990   -4.2260 N.3    54  GLU54      -0.1245
     48  CA         7.3760    8.7960   -4.0520 C.3    54  GLU54       0.1567
     49  C          8.4390    7.7060   -3.8810 C.2    54  GLU54       0.2260
     50  O          8.3290    6.9070   -2.9420 O.2    54  GLU54      -0.2867
     51  CB         6.4100    8.4870   -5.2000 C.3    54  GLU54       0.0388
     52  CG         6.0730    7.0170   -5.2840 C.3    54  GLU54       0.1160
     53  CD         4.8710    6.6340   -6.1030 C.2    54  GLU54       0.3649
     54  OE1        4.7000    7.1520   -7.2290 O.co2  54  GLU54      -0.2457
     55  OE2        4.1170    5.7620   -5.6220 O.co2  54  GLU54      -0.2457
     56  N          9.1280    5.3560   -0.5750 N.3    58  LEU58      -0.1245
     57  CA         9.1280    3.8900   -0.7420 C.3    58  LEU58       0.1561
     58  C         10.4470    3.2110   -0.3670 C.2    58  LEU58       0.2260
     59  O         10.4150    2.0720    0.0980 O.2    58  LEU58      -0.2867
     60  CB         8.7060    3.4770   -2.1680 C.3    58  LEU58       0.0270
     61  CG         7.2340    3.6900   -2.5320 C.3    58  LEU58       0.0019
     62  CD1        7.0130    3.5450   -4.0410 C.3    58  LEU58       0.0001
     63  CD2        6.3040    2.7800   -1.6930 C.3    58  LEU58       0.0001
     64  N          2.9520   -2.2970   -0.9410 N.3    67  CYS67      -0.1235
     65  CA         3.4700   -2.7740   -2.2550 C.3    67  CYS67       0.1677
     66  C          4.9430   -2.4240   -2.3510 C.2    67  CYS67       0.2270
     67  O          5.3130   -1.2580   -2.4520 O.2    67  CYS67      -0.2867
     68  CB         2.6710   -2.0950   -3.3700 C.3    67  CYS67       0.0956
     69  SG         2.9040   -2.7770   -5.0270 S.3    67  CYS67      -0.0801
     70  N         10.0590    1.5270  -12.4210 N.3    81  MET81      -0.1245
     71  CA         9.8850    1.1750  -11.0200 C.3    81  MET81       0.1570
     72  C          9.4150   -0.2580  -11.0050 C.2    81  MET81       0.2261
     73  O          8.3180   -0.5300  -11.4700 O.2    81  MET81      -0.2867
     74  CB         8.8620    2.1000  -10.3310 C.3    81  MET81       0.0387
     75  CG         9.4380    3.4390   -9.9010 C.3    81  MET81       0.0595
     76  SD         8.1700    4.5820   -9.2730 S.3    81  MET81      -0.1393
     77  CE         7.9880    4.0000   -7.5880 C.3    81  MET81       0.0692
     78  N          7.9770   -3.2960   -9.0740 N.3    83  LEU83      -0.1231
     79  CA         7.0710   -3.3310   -7.9190 C.3    83  LEU83       0.1693
     80  C          6.5020   -4.7320   -7.6800 C.2    83  LEU83       0.2592
     81  O          6.5590   -5.5710   -8.5570 O.2    83  LEU83      -0.2718
     82  CB         5.8970   -2.2930   -8.0880 C.3    83  LEU83       0.0284
     83  CG         6.2920   -0.8220   -8.1160 C.3    83  LEU83       0.0019
     84  CD1        5.3810   -0.0270   -9.0100 C.3    83  LEU83       0.0001
     85  CD2        6.3400   -0.2420   -6.7280 C.3    83  LEU83       0.0001
     86  N          5.9410   -4.9660   -6.4890 N.am   84  GLU84      -0.1966
     87  CA         5.3220   -6.2230   -6.0590 C.3    84  GLU84       0.1733
     88  C          4.0980   -6.5640   -6.9290 C.2    84  GLU84       0.2616
     89  O          3.3030   -5.6880   -7.2670 O.2    84  GLU84      -0.2715
     90  CB         4.9170   -6.1170   -4.5670 C.3    84  GLU84       0.0429
     91  CG         4.7220   -7.4460   -3.8640 C.3    84  GLU84       0.1163
     92  CD         4.4350   -7.3620   -2.3740 C.2    84  GLU84       0.3649
     93  OE1        4.7320   -6.3080   -1.7650 O.co2  84  GLU84      -0.2457
     94  OE2        3.9960   -8.3850   -1.7960 O.co2  84  GLU84      -0.2457
     95  N          3.9660   -7.8490   -7.2730 N.am   85  TYR85      -0.1960
     96  CA         2.9050   -8.4130   -8.1000 C.3    85  TYR85       0.1771
     97  C          1.5800   -8.5470   -7.3050 C.2    85  TYR85       0.2620
     98  O          1.4900   -9.2890   -6.3160 O.2    85  TYR85      -0.2715
     99  CB         3.4190   -9.7420   -8.6540 C.3    85  TYR85       0.0574
    100  CG         2.5440  -10.4540   -9.6620 C.ar   85  TYR85      -0.0198
    101  CD1        2.3610   -9.9440  -10.9410 C.ar   85  TYR85      -0.0009
    102  CD2        1.9430  -11.6720   -9.3530 C.ar   85  TYR85      -0.0009
    103  CE1        1.5700  -10.6090  -11.8730 C.ar   85  TYR85       0.0417
    104  CE2        1.1570  -12.3490  -10.2830 C.ar   85  TYR85       0.0417
    105  CZ         0.9690  -11.8120  -11.5380 C.ar   85  TYR85       0.1957
    106  OH         0.1840  -12.4870  -12.4400 O.3    85  TYR85      -0.2866
    107  N          0.5570   -7.7950   -7.7580 N.am   86  CYS86      -0.1954
    108  CA        -0.7640   -7.6610   -7.1360 C.3    86  CYS86       0.1828
    109  C         -1.8830   -8.0620   -8.1400 C.2    86  CYS86       0.2467
    110  O         -2.5820   -7.1680   -8.6300 O.2    86  CYS86      -0.2730
    111  CB        -0.9670   -6.2350   -6.6150 C.3    86  CYS86       0.0996
    112  SG         0.3360   -5.6380   -5.5010 S.3    86  CYS86      -0.0797
    113  N         -2.0940   -9.3700   -8.4620 N.am   87  PRO87      -0.2726
    114  CA        -3.0890   -9.7190   -9.4970 C.3    87  PRO87       0.1402
    115  C         -4.5520   -9.7280   -9.0170 C.2    87  PRO87       0.2269
    116  O         -5.4690  -10.0360   -9.7830 O.2    87  PRO87      -0.2865
    117  CB        -2.6540  -11.1130   -9.9440 C.3    87  PRO87       0.0296
    118  CG        -2.0570  -11.7050   -8.7360 C.3    87  PRO87       0.0237
    119  CD        -1.4640  -10.5850   -7.9060 C.3    87  PRO87       0.0939
    120  N         -6.4940   -7.2160   -8.0250 N.3    89  GLY89      -0.1225
    121  CA        -7.2360   -6.0260   -8.3990 C.3    89  GLY89       0.1811
    122  C         -7.3070   -4.9900   -7.3090 C.2    89  GLY89       0.2280
    123  O         -6.7760   -5.2030   -6.2230 O.2    89  GLY89      -0.2866
    124  N         -4.4730   -2.5450   -3.2080 N.3   136  LEU136     -0.1245
    125  CA        -4.5160   -3.6700   -4.1560 C.3   136  LEU136      0.1561
    126  C         -4.4230   -5.0060   -3.4350 C.2   136  LEU136      0.2260
    127  O         -3.8780   -5.0430   -2.3310 O.2   136  LEU136     -0.2867
    128  CB        -3.3880   -3.6000   -5.2000 C.3   136  LEU136      0.0270
    129  CG        -3.1380   -2.3050   -5.9500 C.3   136  LEU136      0.0019
    130  CD1       -2.0540   -2.5440   -6.9860 C.3   136  LEU136      0.0001
    131  CD2       -4.4000   -1.8010   -6.6560 C.3   136  LEU136      0.0001
    132  N         -1.1210   -1.2090    0.0860 N.3   145  LEU145     -0.1231
    133  CA        -1.2010    0.2460   -0.1770 C.3   145  LEU145      0.1693
    134  C         -0.1880    0.6530   -1.2830 C.2   145  LEU145      0.2592
    135  O          0.9920    0.2830   -1.2280 O.2   145  LEU145     -0.2718
    136  CB        -0.9560    0.9790    1.1690 C.3   145  LEU145      0.0284
    137  CG        -1.0470    2.5040    1.2870 C.3   145  LEU145      0.0019
    138  CD1       -2.4730    3.0390    1.0500 C.3   145  LEU145      0.0001
    139  CD2       -0.5720    2.9380    2.6070 C.3   145  LEU145      0.0001
    140  N         -0.6720    1.3950   -2.2890 N.am  146  ILE146     -0.1966
    141  CA         0.0880    1.8600   -3.4550 C.3   146  ILE146      0.1727
    142  C          0.0720    3.4210   -3.5690 C.2   146  ILE146      0.2616
    143  O         -0.4990    4.1010   -2.7170 O.2   146  ILE146     -0.2715
    144  CB        -0.3370    1.1430   -4.7830 C.3   146  ILE146      0.0290
    145  CG1       -1.7860    1.4430   -5.1850 C.3   146  ILE146      0.0022
    146  CG2       -0.0870   -0.3560   -4.7240 C.3   146  ILE146      0.0023
    147  CD1       -1.9500    1.7200   -6.6480 C.3   146  ILE146      0.0001
    148  N          0.7190    3.9520   -4.6330 N.am  147  ASP147     -0.1957
    149  CA         0.7810    5.3470   -5.0610 C.3   147  ASP147      0.1840
    150  C          0.9950    6.3610   -3.9240 C.2   147  ASP147      0.2622
    151  O          0.0450    6.9210   -3.3660 O.2   147  ASP147     -0.2715
    152  CB        -0.4290    5.7290   -5.9210 C.3   147  ASP147      0.1450
    153  CG        -0.3470    7.1380   -6.4720 C.2   147  ASP147      0.3671
    154  OD1        0.6360    7.4420   -7.1910 O.co2 147  ASP147     -0.2456
    155  OD2       -1.2110    7.9550   -6.1140 O.co2 147  ASP147     -0.2456
    156  N          2.2750    6.5900   -3.6040 N.am  148  PHE148     -0.1974
    157  CA         2.7510    7.5280   -2.6030 C.3   148  PHE148      0.1639
    158  C          3.1660    8.8870   -3.2300 C.2   148  PHE148      0.2290
    159  O          4.1230    9.5070   -2.7720 O.2   148  PHE148     -0.2864
    160  CB         3.8800    6.8620   -1.8010 C.3   148  PHE148      0.0560
    161  CG         3.4130    5.7810   -0.8330 C.ar  148  PHE148     -0.0200
    162  CD1        3.0900    4.5100   -1.2860 C.ar  148  PHE148     -0.0042
    163  CD2        3.3160    6.0350    0.5310 C.ar  148  PHE148     -0.0042
    164  CE1        2.6640    3.5190   -0.4010 C.ar  148  PHE148     -0.0003
    165  CE2        2.8980    5.0410    1.4140 C.ar  148  PHE148     -0.0003
    166  CZ         2.5750    3.7900    0.9420 C.ar  148  PHE148     -0.0000
@<TRIPOS>BOND
     1     2     1    1
     2     2     5    1
     3     2     3    1
     4     5     6    1
     5     3     4    2
     6     8     7   ar
     7     6     7    1
     8     7     9   ar
     9    10    11    1
    10    28    27    2
    11    21    20    2
    12    11    12    1
    13    11    14    1
    14    12    13    2
    15    20    19    1
    16    25    26    1
    17    18    19    1
    18    27    26    1
    19    29    26    1
    20    29    30    1
    21    16    14    1
    22    14    15    1
    23    19    22    1
    24    15    17    1
    25    32    30    1
    26    30    31    1
    27    22    24    1
    28    22    23    1
    29    40    41    2
    30    40    39    1
    31    39    38    1
    32    39    42    1
    33    43    42    1
    34    43    44    1
    35   106   105    1
    36    70    71    1
    37    35    34    1
    38    35    36    2
    39    34    37    1
    40    34    33    1
    41   103   105   ar
    42   103   101   ar
    43   105   104   ar
    44    73    72    2
    45    45    44    1
    46    45    46    1
    47    71    72    1
    48    71    74    1
    49   101   100   ar
    50    74    75    1
    51   104   102   ar
    52   117   114    1
    53   117   118    1
    54    75    76    1
    55   116   115    2
    56   100   102   ar
    57   100    99    1
    58   114   115    1
    59   114   113    1
    60    76    77    1
    61    78    79    1
    62    84    83    1
    63   118   119    1
    64    99    96    1
    65   110   109    2
    66    81    80    2
    67   113   109   am
    68   113   119    1
    69   121   120    1
    70   121   122    1
    71   109   108    1
    72    83    82    1
    73    83    85    1
    74    96    97    1
    75    96    95    1
    76    82    79    1
    77    79    80    1
    78   107    97   am
    79   107   108    1
    80    80    86   am
    81   122   123    2
    82    97    98    2
    83    95    88   am
    84    89    88    2
    85    54    53   ar
    86   154   153   ar
    87   108   111    1
    88   130   129    1
    89    88    87    1
    90   131   129    1
    91   147   145    1
    92   111   112    1
    93    86    87    1
    94   153   155   ar
    95   153   152    1
    96    53    55   ar
    97    53    52    1
    98    87    90    1
    99   129   128    1
   100   152   149    1
   101    52    51    1
   102    51    48    1
   103   128   125    1
   104   145   144    1
   105   149   148    1
   106   149   150    1
   107    69    68    1
   108   144   146    1
   109   144   141    1
   110   148   142   am
   111    90    91    1
   112    47    48    1
   113   125   126    1
   114   125   124    1
   115    48    49    1
   116    62    61    1
   117   150   156   am
   118   150   151    2
   119    49    50    2
   120    91    92    1
   121   156   157    1
   122   142   141    1
   123   142   143    2
   124   141   140    1
   125   126   127    2
   126    68    65    1
   127   158   159    2
   128   158   157    1
   129   157   160    1
   130    61    60    1
   131    61    63    1
   132    67    66    2
   133    92    94   ar
   134    92    93   ar
   135    66    65    1
   136   140   134   am
   137    65    64    1
   138    60    57    1
   139   160   161    1
   140   162   161   ar
   141   162   164   ar
   142   134   135    2
   143   134   133    1
   144   161   163   ar
   145    57    56    1
   146    57    58    1
   147   164   166   ar
   148    58    59    2
   149   133   132    1
   150   133   136    1
   151   163   165   ar
   152   166   165   ar
   153   138   137    1
   154   136   137    1
   155   137   139    1
