@<TRIPOS>MOLECULE
tmp/4d2rA00.pdb
 176 162 0 0 0
SMALL
GASTEIGER

@<TRIPOS>ATOM
      1  N          8.1490  -10.3460   61.6020 N.3    19  ARG19      -0.1245
      2  CA         7.6500  -10.5140   60.2400 C.3    19  ARG19       0.1563
      3  C          8.7790  -10.6260   59.2180 C.2    19  ARG19       0.2260
      4  O          9.6740   -9.7760   59.2060 O.2    19  ARG19      -0.2867
      5  CB         6.7070   -9.3380   59.8950 C.3    19  ARG19       0.0307
      6  CG         6.0240   -9.4730   58.5540 C.3    19  ARG19       0.0489
      7  CD         5.3210   -8.1800   58.2050 C.3    19  ARG19       0.2205
      8  NE         4.1770   -7.8890   59.0720 N.pl3  19  ARG19      -0.0865
      9  CZ         3.8160   -6.6640   59.4460 C.cat  19  ARG19       0.5346
     10  NH1        4.5210   -5.6130   59.0400 N.pl3  19  ARG19       0.1354
     11  NH2        2.7590   -6.4870   60.2240 N.pl3  19  ARG19       0.1354
     12  N         10.1930   -9.8870   55.7660 N.3    21  LEU21      -0.1231
     13  CA         9.9140   -8.8650   54.7600 C.3    21  LEU21       0.1693
     14  C         10.1670   -9.3180   53.3350 C.2    21  LEU21       0.2593
     15  O          9.4190   -8.9440   52.4360 O.2    21  LEU21      -0.2718
     16  CB        10.6840   -7.5690   55.0690 C.3    21  LEU21       0.0284
     17  CG        10.4080   -6.9420   56.4340 C.3    21  LEU21       0.0019
     18  CD1       11.3010   -5.7410   56.6690 C.3    21  LEU21       0.0001
     19  CD2        8.9360   -6.5780   56.5950 C.3    21  LEU21       0.0001
     20  N         11.2030  -10.1220   53.1450 N.am   22  GLY22      -0.1942
     21  CA        11.5840  -10.6250   51.8370 C.3    22  GLY22       0.2014
     22  C         13.0760  -10.8250   51.7080 C.2    22  GLY22       0.2638
     23  O         13.8530  -10.3350   52.5360 O.2    22  GLY22      -0.2714
     24  N         13.4770  -11.5570   50.6640 N.am   23  GLN23      -0.1977
     25  CA        14.8700  -11.8880   50.3860 C.3    23  GLN23       0.1601
     26  C         15.7430  -10.6740   50.0430 C.2    23  GLN23       0.2287
     27  O         15.3630   -9.8280   49.2300 O.2    23  GLN23      -0.2864
     28  CB        14.9580  -12.9680   49.2890 C.3    23  GLN23       0.0394
     29  CG        16.2810  -13.7480   49.2740 C.3    23  GLN23       0.0908
     30  CD        16.4670  -14.7720   50.3870 C.2    23  GLN23       0.2608
     31  OE1       15.6400  -14.9370   51.2900 O.2    23  GLN23      -0.2717
     32  NE2       17.5840  -15.4830   50.3450 N.am   23  GLN23      -0.0878
     33  N         15.4410  -10.7850   54.9610 N.3    29  VAL29      -0.1245
     34  CA        15.2940   -9.5160   55.6710 C.3    29  VAL29       0.1561
     35  C         14.0250   -9.6070   56.5060 C.2    29  VAL29       0.2260
     36  O         12.9590   -9.9630   55.9970 O.2    29  VAL29      -0.2867
     37  CB        15.3190   -8.2570   54.7720 C.3    29  VAL29       0.0252
     38  CG1       15.2200   -6.9770   55.6100 C.3    29  VAL29       0.0019
     39  CG2       16.5710   -8.2370   53.9020 C.3    29  VAL29       0.0019
     40  N         11.5360   -7.7790   59.7830 N.3    31  GLU31      -0.1245
     41  CA        11.1120   -6.6450   60.5750 C.3    31  GLU31       0.1567
     42  C         11.3460   -7.0800   62.0420 C.2    31  GLU31       0.2260
     43  O         11.2350   -8.2630   62.3730 O.2    31  GLU31      -0.2867
     44  CB         9.6160   -6.3800   60.3600 C.3    31  GLU31       0.0388
     45  CG         9.1490   -5.1210   61.0630 C.3    31  GLU31       0.1160
     46  CD         7.6540   -4.9250   61.1420 C.2    31  GLU31       0.3649
     47  OE1        6.9320   -5.3900   60.2300 O.co2  31  GLU31      -0.2457
     48  OE2        7.2100   -4.2580   62.1030 O.co2  31  GLU31      -0.2457
     49  N         11.3240    0.1190   66.0130 N.3    45  ARG45      -0.1245
     50  CA        10.9790   -0.8510   64.9700 C.3    45  ARG45       0.1563
     51  C         12.0940   -0.7180   63.9370 C.2    45  ARG45       0.2260
     52  O         12.4040    0.3880   63.5090 O.2    45  ARG45      -0.2867
     53  CB         9.6070   -0.5440   64.3380 C.3    45  ARG45       0.0307
     54  CG         8.4150   -0.8230   65.2670 C.3    45  ARG45       0.0489
     55  CD         7.0910   -0.5220   64.5840 C.3    45  ARG45       0.2205
     56  NE         6.8220   -1.4220   63.4550 N.pl3  45  ARG45      -0.0865
     57  CZ         6.0170   -1.1430   62.4310 C.cat  45  ARG45       0.5346
     58  NH1        5.4130    0.0400   62.3560 N.pl3  45  ARG45       0.1354
     59  NH2        5.8330   -2.0250   61.4640 N.pl3  45  ARG45       0.1354
     60  N         14.5290   -2.8470   60.5610 N.3    47  ALA47      -0.1245
     61  CA        14.6900   -3.8570   59.5280 C.3    47  ALA47       0.1562
     62  C         15.9990   -4.5910   59.9060 C.2    47  ALA47       0.2260
     63  O         16.9950   -3.9630   60.2950 O.2    47  ALA47      -0.2867
     64  CB        14.8410   -3.2140   58.1630 C.3    47  ALA47       0.0290
     65  N         18.6650   -7.2870   58.4030 N.3    49  LYS49      -0.1245
     66  CA        19.2160   -8.0420   57.2880 C.3    49  LYS49       0.1561
     67  C         19.9970   -9.1770   57.9070 C.2    49  LYS49       0.2260
     68  O         20.7340   -8.9570   58.8750 O.2    49  LYS49      -0.2867
     69  CB        20.1540   -7.1860   56.4320 C.3    49  LYS49       0.0271
     70  CG        19.4970   -6.0270   55.6910 C.3    49  LYS49       0.0035
     71  CD        20.4630   -5.4090   54.6710 C.3    49  LYS49       0.0206
     72  CE        21.6740   -4.7420   55.3010 C.3    49  LYS49       0.1093
     73  NZ        22.5460   -4.0770   54.2930 N.3    49  LYS49      -0.1314
     74  N         18.4400    6.1090   54.0690 N.3    79  VAL79      -0.1245
     75  CA        18.1360    5.0060   55.0140 C.3    79  VAL79       0.1561
     76  C         19.3660    4.7660   55.8930 C.2    79  VAL79       0.2260
     77  O         20.4740    4.5830   55.3770 O.2    79  VAL79      -0.2867
     78  CB        17.6360    3.7300   54.2840 C.3    79  VAL79       0.0252
     79  CG1       17.4340    2.5750   55.2580 C.3    79  VAL79       0.0019
     80  CG2       16.3440    4.0190   53.5030 C.3    79  VAL79       0.0019
     81  N         18.9820   -2.0300   60.3590 N.3    95  MET95      -0.1230
     82  CA        18.7310   -0.8730   59.5170 C.3    95  MET95       0.1702
     83  C         17.4630   -0.1570   59.9620 C.2    95  MET95       0.2592
     84  O         16.6120   -0.7440   60.6240 O.2    95  MET95      -0.2718
     85  CB        18.5500   -1.3190   58.0450 C.3    95  MET95       0.0401
     86  CG        19.7670   -1.9630   57.3970 C.3    95  MET95       0.0596
     87  SD        21.2220   -0.9080   57.2130 S.3    95  MET95      -0.1393
     88  CE        20.6280    0.3460   56.0970 C.3    95  MET95       0.0692
     89  N         17.3280    1.1040   59.5550 N.am   96  GLU96      -0.1966
     90  CA        16.1280    1.9010   59.7540 C.3    96  GLU96       0.1733
     91  C         14.9900    1.2070   58.9660 C.2    96  GLU96       0.2616
     92  O         15.2050    0.7950   57.8180 O.2    96  GLU96      -0.2715
     93  CB        16.3780    3.3100   59.2090 C.3    96  GLU96       0.0429
     94  CG        15.1280    4.0660   58.7890 C.3    96  GLU96       0.1163
     95  CD        15.3600    5.5190   58.4310 C.2    96  GLU96       0.3649
     96  OE1       16.5280    5.9130   58.2300 O.co2  96  GLU96      -0.2457
     97  OE2       14.3690    6.2760   58.3890 O.co2  96  GLU96      -0.2457
     98  N         13.8060    1.0630   59.5990 N.am   97  LEU97      -0.1963
     99  CA        12.6390    0.4310   58.9950 C.3    97  LEU97       0.1728
    100  C         11.8880    1.3910   58.0840 C.2    97  LEU97       0.2616
    101  O         11.5860    2.5190   58.4760 O.2    97  LEU97      -0.2715
    102  CB        11.6800   -0.1330   60.0860 C.3    97  LEU97       0.0311
    103  CG        10.4730   -0.9950   59.5750 C.3    97  LEU97       0.0022
    104  CD1       10.9410   -2.2630   58.8870 C.3    97  LEU97       0.0001
    105  CD2        9.5420   -1.3500   60.7000 C.3    97  LEU97       0.0001
    106  N         11.5650    0.9240   56.8740 N.am   98  MET98      -0.1963
    107  CA        10.8540    1.6970   55.8520 C.3    98  MET98       0.1736
    108  C          9.6100    0.8730   55.5190 C.2    98  MET98       0.2617
    109  O          9.6250    0.0800   54.5860 O.2    98  MET98      -0.2715
    110  CB        11.7910    1.9170   54.6310 C.3    98  MET98       0.0427
    111  CG        13.0770    2.7030   55.0050 C.3    98  MET98       0.0599
    112  SD        12.7050    4.3910   55.5730 S.3    98  MET98      -0.1393
    113  CE        12.3350    5.1470   53.9960 C.3    98  MET98       0.0692
    114  N          8.5520    1.0190   56.3310 N.am   99  THR99      -0.1937
    115  CA         7.3540    0.1530   56.2880 C.3    99  THR99       0.2028
    116  C          6.6130    0.0870   54.9550 C.2    99  THR99       0.2642
    117  O          5.8480   -0.8440   54.7580 O.2    99  THR99      -0.2714
    118  CB         6.3560    0.5250   57.3820 C.3    99  THR99       0.1808
    119  OG1        5.9130    1.8480   57.1270 O.3    99  THR99      -0.2208
    120  CG2        6.9340    0.4050   58.7940 C.3    99  THR99       0.0379
    121  N          6.7780    1.0920   54.0750 N.am  100  ARG100     -0.1963
    122  CA         6.0630    1.0960   52.7990 C.3   100  ARG100      0.1729
    123  C          6.9260    0.5770   51.6490 C.2   100  ARG100      0.2616
    124  O          6.4820    0.5980   50.5050 O.2   100  ARG100     -0.2715
    125  CB         5.4330    2.4630   52.5130 C.3   100  ARG100      0.0348
    126  CG         4.4840    2.8600   53.6400 C.3   100  ARG100      0.0492
    127  CD         3.7130    4.1300   53.3610 C.3   100  ARG100      0.2205
    128  NE         2.9360    4.5300   54.5360 N.pl3 100  ARG100     -0.0865
    129  CZ         1.6880    4.1390   54.7780 C.cat 100  ARG100      0.5346
    130  NH1        1.0500    3.3540   53.9200 N.pl3 100  ARG100      0.1354
    131  NH2        1.0620    4.5480   55.8770 N.pl3 100  ARG100      0.1354
    132  N          8.0980    0.0310   51.9880 N.am  101  GLY101     -0.1955
    133  CA         8.9890   -0.6530   51.0540 C.3   101  GLY101      0.1869
    134  C          9.6060    0.2330   50.0100 C.2   101  GLY101      0.2309
    135  O          9.6730    1.4390   50.2050 O.2   101  GLY101     -0.2863
    136  N          7.6560   -0.3620   44.0570 N.3   105  SER105     -0.1217
    137  CA         6.5310   -1.1650   44.5530 C.3   105  SER105      0.1889
    138  C          5.4320   -0.2690   45.1370 C.2   105  SER105      0.2288
    139  O          4.2540   -0.5380   44.9100 O.2   105  SER105     -0.2866
    140  CB         6.9960   -2.1770   45.5960 C.3   105  SER105      0.2089
    141  OG         7.9980   -3.0150   45.0510 O.3   105  SER105     -0.2183
    142  N         13.3110    4.1720   49.1160 N.3   158  MET158     -0.1245
    143  CA        12.4160    3.5180   50.0740 C.3   158  MET158      0.1570
    144  C         11.3950    4.4990   50.5990 C.2   158  MET158      0.2261
    145  O         11.6690    5.6930   50.6310 O.2   158  MET158     -0.2867
    146  CB        13.2230    2.8950   51.2430 C.3   158  MET158      0.0387
    147  CG        14.2330    1.8290   50.8060 C.3   158  MET158      0.0595
    148  SD        13.4820    0.2990   50.2010 S.3   158  MET158     -0.1393
    149  CE        12.8410   -0.4260   51.7790 C.3   158  MET158      0.0692
    150  N         19.0350    1.5910   51.1870 N.3   169  ASP169     -0.1239
    151  CA        20.2200    0.8630   51.6160 C.3   169  ASP169      0.1674
    152  C         20.9060    0.3660   50.3330 C.2   169  ASP169      0.2266
    153  O         20.2250   -0.0340   49.3790 O.2   169  ASP169     -0.2867
    154  CB        19.7770   -0.3220   52.4930 C.3   169  ASP169      0.1410
    155  CG        20.8780   -1.2610   52.9280 C.2   169  ASP169      0.3668
    156  OD1       22.0110   -0.7850   53.1600 O.co2 169  ASP169     -0.2456
    157  OD2       20.5880   -2.4410   53.1380 O.co2 169  ASP169     -0.2456
    158  N         20.4920   -3.4270   47.6310 N.3   172  MET172     -0.1245
    159  CA        19.3720   -4.2670   48.0250 C.3   172  MET172      0.1570
    160  C         18.5630   -4.6410   46.8020 C.2   172  MET172      0.2261
    161  O         17.6330   -3.9350   46.3940 O.2   172  MET172     -0.2867
    162  CB        18.5380   -3.6710   49.1710 C.3   172  MET172      0.0387
    163  CG        19.2740   -3.6720   50.5160 C.3   172  MET172      0.0595
    164  SD        20.1500   -5.2040   51.0080 S.3   172  MET172     -0.1393
    165  CE        18.8230   -6.2390   51.3710 C.3   172  MET172      0.0692
    166  N         15.9310   -6.3200   44.6860 N.3   174  ARG174     -0.1245
    167  CA        14.6100   -6.9540   44.7200 C.3   174  ARG174      0.1563
    168  C         14.5360   -7.7050   43.3760 C.2   174  ARG174      0.2260
    169  O         14.5460   -7.0730   42.3200 O.2   174  ARG174     -0.2867
    170  CB        13.4630   -5.9450   44.8950 C.3   174  ARG174      0.0307
    171  CG        13.4160   -5.2190   46.2480 C.3   174  ARG174      0.0489
    172  CD        13.0720   -6.2080   47.3240 C.3   174  ARG174      0.2205
    173  NE        12.9840   -5.5570   48.6380 N.pl3 174  ARG174     -0.0865
    174  CZ        13.9590   -5.6880   49.5500 C.cat 174  ARG174      0.5346
    175  NH1       15.0540   -6.4740   49.3740 N.pl3 174  ARG174      0.1354
    176  NH2       13.7840   -5.0690   50.7150 N.pl3 174  ARG174      0.1354
@<TRIPOS>BOND
     1   169   168    2
     2   168   167    1
     3   136   137    1
     4   137   138    1
     5   137   140    1
     6   166   167    1
     7   167   170    1
     8   170   171    1
     9   139   138    2
    10   141   140    1
    11   171   172    1
    12   161   160    2
    13   160   159    1
    14   172   173    1
    15   158   159    1
    16   159   162    1
    17   173   174    2
    18   142   143    1
    19   162   163    1
    20    27    26    2
    21    29    28    1
    22    29    30    1
    23    28    25    1
    24   175   174    1
    25   153   152    2
    26   174   176    1
    27   134   135    2
    28   134   133    1
    29    26    25    1
    30   143   144    1
    31   143   146    1
    32   148   147    1
    33   148   149    1
    34   152   151    1
    35    32    30   am
    36    25    24    1
    37    30    31    2
    38   124   123    2
    39   163   164    1
    40   144   145    2
    41    24    22   am
    42   147   146    1
    43   164   165    1
    44   133   132    1
    45   150   151    1
    46   151   154    1
    47   123   132   am
    48   123   122    1
    49    22    21    1
    50    22    23    2
    51    21    20    1
    52    15    14    2
    53   154   155    1
    54   125   122    1
    55   125   126    1
    56   122   121    1
    57   155   157   ar
    58   155   156   ar
    59    20    14   am
    60    14    13    1
    61   127   126    1
    62   127   128    1
    63    80    78    1
    64    39    37    1
    65   130   129    1
    66   113   112    1
    67    74    75    1
    68   121   116   am
    69    78    75    1
    70    78    79    1
    71    73    72    1
    72   128   129    2
    73   109   108    2
    74   110   111    1
    75   110   107    1
    76    71    72    1
    77    71    70    1
    78   117   116    2
    79    13    16    1
    80    13    12    1
    81    37    38    1
    82    37    34    1
    83   129   131    1
    84   116   115    1
    85    33    34    1
    86   111   112    1
    87    75    76    1
    88    16    17    1
    89    77    76    2
    90   108   107    1
    91   108   114   am
    92    34    35    1
    93    70    69    1
    94   107   106    1
    95    36    35    2
    96    88    87    1
    97   115   114    1
    98   115   118    1
    99    69    66    1
   100    17    19    1
   101    17    18    1
   102   106   100   am
   103   119   118    1
   104    87    86    1
   105    66    67    1
   106    66    65    1
   107   118   120    1
   108    86    85    1
   109    92    91    2
   110    67    68    2
   111    85    82    1
   112   100   101    2
   113   100    99    1
   114    64    61    1
   115     7     6    1
   116     7     8    1
   117    96    95   ar
   118    97    95   ar
   119    95    94    1
   120     6     5    1
   121    94    93    1
   122   104   103    1
   123    91    98   am
   124    91    90    1
   125    99    98    1
   126    99   102    1
   127    10     9    1
   128     8     9    2
   129     4     3    2
   130    93    90    1
   131     3     2    1
   132     9    11    1
   133    82    83    1
   134    82    81    1
   135    61    62    1
   136    61    60    1
   137    89    90    1
   138    89    83   am
   139   103   102    1
   140   103   105    1
   141    40    41    1
   142     5     2    1
   143    62    63    2
   144    83    84    2
   145    47    46   ar
   146     2     1    1
   147    44    41    1
   148    44    45    1
   149    41    42    1
   150    45    46    1
   151    46    48   ar
   152    59    57    1
   153    42    43    2
   154    58    57    1
   155    57    56    2
   156    56    55    1
   157    52    51    2
   158    51    50    1
   159    53    50    1
   160    53    54    1
   161    55    54    1
   162    50    49    1
