@<TRIPOS>MOLECULE
tmp/4d2sA00.pdb
 157 146 0 0 0
SMALL
GASTEIGER

@<TRIPOS>ATOM
      1  N          1.6800   24.8260   -6.9030 N.3    17  LYS17      -0.1231
      2  CA         1.5210   23.3630   -6.9380 C.3    17  LYS17       0.1693
      3  C          0.0320   22.9760   -7.0970 C.2    17  LYS17       0.2592
      4  O         -0.8490   23.8200   -6.9280 O.2    17  LYS17      -0.2718
      5  CB         2.1500   22.6700   -5.6990 C.3    17  LYS17       0.0285
      6  CG         1.4790   22.9720   -4.3470 C.3    17  LYS17       0.0035
      7  CD         1.9520   22.0000   -3.2540 C.3    17  LYS17       0.0206
      8  CE         1.0520   21.9260   -2.0380 C.3    17  LYS17       0.1093
      9  NZ         1.2160   23.0930   -1.1310 N.3    17  LYS17      -0.1314
     10  N         -0.2260   21.6950   -7.4110 N.am   18  GLN18      -0.1966
     11  CA        -1.5480   21.1050   -7.5270 C.3    18  GLN18       0.1733
     12  C         -1.9150   20.5130   -6.1560 C.2    18  GLN18       0.2616
     13  O         -1.2070   19.6450   -5.6450 O.2    18  GLN18      -0.2715
     14  CB        -1.5660   20.0340   -8.6260 C.3    18  GLN18       0.0408
     15  CG        -2.9660   19.7690   -9.1790 C.3    18  GLN18       0.0908
     16  CD        -2.9870   18.8360  -10.3610 C.2    18  GLN18       0.2608
     17  OE1       -2.0780   18.8200  -11.2020 O.2    18  GLN18      -0.2717
     18  NE2       -4.0730   18.0970  -10.4970 N.am   18  GLN18      -0.0878
     19  N         -2.9970   21.0300   -5.5490 N.am   19  ILE19      -0.1963
     20  CA        -3.5130   20.6320   -4.2180 C.3    19  ILE19       0.1727
     21  C         -4.7930   19.7590   -4.2920 C.2    19  ILE19       0.2616
     22  O         -5.2470   19.2660   -3.2570 O.2    19  ILE19      -0.2715
     23  CB        -3.7100   21.8690   -3.2850 C.3    19  ILE19       0.0290
     24  CG1       -4.8240   22.8180   -3.8080 C.3    19  ILE19       0.0022
     25  CG2       -2.3770   22.5940   -3.0410 C.3    19  ILE19       0.0023
     26  CD1       -5.0440   24.1470   -3.0550 C.3    19  ILE19       0.0001
     27  N         -5.3420   19.5910   -5.5030 N.am   20  GLY20      -0.1955
     28  CA        -6.5460   18.8050   -5.7720 C.3    20  GLY20       0.1869
     29  C         -6.6780   18.3290   -7.2110 C.2    20  GLY20       0.2309
     30  O         -6.2410   19.0170   -8.1350 O.2    20  GLY20      -0.2863
     31  N         -7.3560   21.4500   -8.6830 N.3    27  VAL27      -0.1245
     32  CA        -7.2470   22.5720   -7.7550 C.3    27  VAL27       0.1561
     33  C         -5.7470   22.8890   -7.5950 C.2    27  VAL27       0.2260
     34  O         -4.9340   21.9920   -7.3290 O.2    27  VAL27      -0.2867
     35  CB        -8.0140   22.3990   -6.4000 C.3    27  VAL27       0.0252
     36  CG1       -7.9260   23.6640   -5.5440 C.3    27  VAL27       0.0019
     37  CG2       -9.4770   22.0320   -6.6400 C.3    27  VAL27       0.0019
     38  N         -2.7000   25.6890   -5.9570 N.3    29  GLN29      -0.1245
     39  CA        -2.2790   26.7430   -5.0490 C.3    29  GLN29       0.1566
     40  C         -1.5260   27.7000   -5.9970 C.2    29  GLN29       0.2260
     41  O         -0.6800   27.2510   -6.7830 O.2    29  GLN29      -0.2867
     42  CB        -1.3650   26.2070   -3.9470 C.3    29  GLN29       0.0367
     43  CG        -1.0230   27.2790   -2.9260 C.3    29  GLN29       0.0905
     44  CD         0.0850   26.8760   -2.0000 C.2    29  GLN29       0.2608
     45  OE1        1.1450   26.4040   -2.4210 O.2    29  GLN29      -0.2717
     46  NE2       -0.1390   27.0710   -0.7140 N.am   29  GLN29      -0.0878
     47  N         -6.3680   29.9790   -4.1910 N.3    39  ALA39      -0.1245
     48  CA        -6.5480   28.6520   -4.7540 C.3    39  ALA39       0.1562
     49  C         -7.4010   28.8190   -5.9840 C.2    39  ALA39       0.2260
     50  O         -8.2890   29.6740   -6.0070 O.2    39  ALA39      -0.2867
     51  CB        -7.2280   27.7320   -3.7650 C.3    39  ALA39       0.0290
     52  N         -9.7170   26.5890   -8.7470 N.3    41  LYS41      -0.1245
     53  CA       -10.3540   25.3430   -9.1510 C.3    41  LYS41       0.1561
     54  C        -10.6380   25.4450  -10.6340 C.2    41  LYS41       0.2260
     55  O        -11.1840   26.4430  -11.1090 O.2    41  LYS41      -0.2867
     56  CB       -11.6400   25.0520   -8.3740 C.3    41  LYS41       0.0271
     57  CG       -12.2170   23.6810   -8.6980 C.3    41  LYS41       0.0035
     58  CD       -13.4750   23.3890   -7.8970 C.3    41  LYS41       0.0206
     59  CE       -13.9760   22.0000   -8.1840 C.3    41  LYS41       0.1093
     60  NZ       -14.6780   21.4240   -7.0190 N.3    41  LYS41      -0.1314
     61  N        -16.1980   28.8710    2.2510 N.3    74  ILE74      -0.1245
     62  CA       -15.0420   29.2070    1.4040 C.3    74  ILE74       0.1561
     63  C        -15.2880   30.5100    0.5920 C.2    74  ILE74       0.2260
     64  O        -16.3450   30.6640   -0.0030 O.2    74  ILE74      -0.2867
     65  CB       -14.7060   27.9840    0.4950 C.3    74  ILE74       0.0252
     66  CG1      -13.3570   28.1670   -0.2310 C.3    74  ILE74       0.0019
     67  CG2      -15.8700   27.6420   -0.4920 C.3    74  ILE74       0.0019
     68  CD1      -12.6810   26.8640   -0.6820 C.3    74  ILE74       0.0001
     69  N        -12.4560   29.0750  -10.9460 N.3    88  MET88      -0.1245
     70  CA       -12.9240   29.6590   -9.6810 C.3    88  MET88       0.1570
     71  C        -11.7060   30.0740   -8.8490 C.2    88  MET88       0.2261
     72  O        -10.8760   29.2280   -8.5090 O.2    88  MET88      -0.2867
     73  CB       -13.7440   28.6390   -8.8940 C.3    88  MET88       0.0387
     74  CG       -15.1340   28.4850   -9.3930 C.3    88  MET88       0.0595
     75  SD       -15.7240   26.8020   -9.1420 S.3    88  MET88      -0.1393
     76  CE       -16.1570   26.8530   -7.4000 C.3    88  MET88       0.0692
     77  N        -10.4940   31.1980   -5.4010 N.3    90  MET90      -0.1230
     78  CA       -10.9030   31.0200   -4.0120 C.3    90  MET90       0.1702
     79  C         -9.8180   31.3440   -3.0090 C.2    90  MET90       0.2592
     80  O         -8.6430   31.5190   -3.3610 O.2    90  MET90      -0.2718
     81  CB       -11.3370   29.5610   -3.7750 C.3    90  MET90       0.0401
     82  CG       -12.4990   29.0970   -4.6450 C.3    90  MET90       0.0596
     83  SD       -12.7590   27.3090   -4.5180 S.3    90  MET90      -0.1393
     84  CE       -11.1990   26.7100   -5.1740 C.3    90  MET90       0.0692
     85  N        -10.2160   31.3670   -1.7180 N.am   91  GLU91      -0.1966
     86  CA        -9.2690   31.5650   -0.6340 C.3    91  GLU91       0.1733
     87  C         -8.4710   30.2720   -0.4740 C.2    91  GLU91       0.2616
     88  O         -8.9770   29.1840   -0.7900 O.2    91  GLU91      -0.2715
     89  CB        -9.9700   31.9990    0.6700 C.3    91  GLU91       0.0429
     90  CG       -10.6340   30.8940    1.4710 C.3    91  GLU91       0.1163
     91  CD       -11.3640   31.3890    2.7000 C.2    91  GLU91       0.3649
     92  OE1      -10.7230   32.0120    3.5760 O.co2  91  GLU91      -0.2457
     93  OE2      -12.5880   31.1520    2.7870 O.co2  91  GLU91      -0.2457
     94  N         -7.2300   30.3880   -0.0280 N.am   92  CYS92      -0.1954
     95  CA        -6.4590   29.1900    0.1600 C.3    92  CYS92       0.1843
     96  C         -6.4650   28.7430    1.6200 C.2    92  CYS92       0.2626
     97  O         -6.0770   29.5040    2.5170 O.2    92  CYS92      -0.2714
     98  CB        -5.0420   29.3600   -0.3740 C.3    92  CYS92       0.0997
     99  SG        -4.2650   27.8090   -0.8810 S.3    92  CYS92      -0.0797
    100  N         -6.9290   27.5140    1.8340 N.am   93  GLY93      -0.1940
    101  CA        -6.9020   26.8590    3.1320 C.3    93  GLY93       0.2014
    102  C         -5.5650   26.1560    3.3000 C.2    93  GLY93       0.2639
    103  O         -4.8600   25.9230    2.3110 O.2    93  GLY93      -0.2714
    104  N         -5.1910   25.8250    4.5430 N.am   94  ASN94      -0.1958
    105  CA        -3.9300   25.1410    4.8310 C.3    94  ASN94       0.1819
    106  C         -4.0160   23.6740    4.3930 C.2    94  ASN94       0.2621
    107  O         -3.0530   23.1490    3.8480 O.2    94  ASN94      -0.2715
    108  CB        -3.5820   25.1900    6.3410 C.3    94  ASN94       0.1195
    109  CG        -3.9320   26.4320    7.1460 C.2    94  ASN94       0.2630
    110  OD1       -4.4280   27.4500    6.6540 O.2    94  ASN94      -0.2716
    111  ND2       -3.6580   26.3660    8.4340 N.am   94  ASN94      -0.0877
    112  N         -5.1680   23.0170    4.6480 N.am   95  ILE95      -0.1963
    113  CA        -5.4430   21.5930    4.3910 C.3    95  ILE95       0.1727
    114  C         -6.9390   21.3060    4.6150 C.2    95  ILE95       0.2616
    115  O         -7.6040   22.0720    5.3160 O.2    95  ILE95      -0.2715
    116  CB        -4.5400   20.7030    5.3360 C.3    95  ILE95       0.0290
    117  CG1       -4.4410   19.2370    4.8370 C.3    95  ILE95       0.0022
    118  CG2       -4.9700   20.7850    6.8270 C.3    95  ILE95       0.0023
    119  CD1       -3.1190   18.5850    5.0480 C.3    95  ILE95       0.0001
    120  N         -7.4510   20.1900    4.0550 N.am   96  ASP96      -0.1971
    121  CA        -8.8310   19.7470    4.2700 C.3    96  ASP96       0.1709
    122  C         -8.8900   18.9770    5.5900 C.2    96  ASP96       0.2293
    123  O         -7.8560   18.4820    6.0500 O.2    96  ASP96      -0.2864
    124  CB        -9.3360   18.8740    3.1100 C.3    96  ASP96       0.1436
    125  CG        -8.6570   17.5250    2.9860 C.2    96  ASP96       0.3671
    126  OD1       -7.5140   17.4820    2.4870 O.co2  96  ASP96      -0.2456
    127  OD2       -9.2860   16.5110    3.3520 O.co2  96  ASP96      -0.2456
    128  N         -7.7510   14.9190    5.6410 N.3    99  SER99      -0.1217
    129  CA        -6.3030   14.7180    5.6470 C.3    99  SER99       0.1889
    130  C         -5.7280   14.9870    7.0430 C.2    99  SER99       0.2288
    131  O         -4.9500   14.1740    7.5400 O.2    99  SER99      -0.2866
    132  CB        -5.6430   15.6130    4.6060 C.3    99  SER99       0.2089
    133  OG        -6.1510   15.3010    3.3210 O.3    99  SER99      -0.2183
    134  N        -12.5530   22.6160    5.0630 N.3   140  LEU140     -0.1245
    135  CA       -11.2070   23.1370    4.8840 C.3   140  LEU140      0.1561
    136  C        -10.7530   23.9340    6.1050 C.2   140  LEU140      0.2260
    137  O        -11.5070   24.7700    6.6080 O.2   140  LEU140     -0.2867
    138  CB       -11.2600   24.0640    3.6610 C.3   140  LEU140      0.0270
    139  CG        -9.9720   24.6070    3.0820 C.3   140  LEU140      0.0019
    140  CD1       -9.1690   23.5140    2.3940 C.3   140  LEU140      0.0001
    141  CD2      -10.2800   25.7100    2.1020 C.3   140  LEU140      0.0001
    142  N        -16.6120   23.5630    1.6950 N.3   149  ILE149     -0.1231
    143  CA       -16.0740   23.5790    0.3280 C.3   149  ILE149      0.1692
    144  C        -17.1410   23.4190   -0.7510 C.2   149  ILE149      0.2592
    145  O        -17.0670   24.1080   -1.7810 O.2   149  ILE149     -0.2718
    146  CB       -14.9470   22.5110    0.2010 C.3   149  ILE149      0.0266
    147  CG1      -13.6440   22.9910    0.8250 C.3   149  ILE149      0.0019
    148  CG2      -14.7290   22.0340   -1.2330 C.3   149  ILE149      0.0020
    149  CD1      -12.6770   21.8660    1.0880 C.3   149  ILE149      0.0001
    150  N        -18.0800   22.4670   -0.5710 N.am  150  ASP150     -0.1974
    151  CA       -19.1360   22.2670   -1.5700 C.3   150  ASP150      0.1709
    152  C        -20.5300   22.0850   -0.9330 C.2   150  ASP150      0.2293
    153  O        -20.6560   22.0410    0.2950 O.2   150  ASP150     -0.2864
    154  CB       -18.7890   21.1540   -2.5690 C.3   150  ASP150      0.1436
    155  CG       -18.5880   19.7910   -1.9630 C.2   150  ASP150      0.3671
    156  OD1      -19.5830   19.0540   -1.8200 O.co2 150  ASP150     -0.2456
    157  OD2      -17.4300   19.4380   -1.6750 O.co2 150  ASP150     -0.2456
@<TRIPOS>BOND
     1    17    16    2
     2    55    54    2
     3    69    70    1
     4    54    53    1
     5    18    16   am
     6    16    15    1
     7    70    73    1
     8    70    71    1
     9    74    75    1
    10    74    73    1
    11    15    14    1
    12    53    52    1
    13    53    56    1
    14    75    76    1
    15    71    72    2
    16    57    56    1
    17    57    58    1
    18    31    32    1
    19    14    11    1
    20    59    58    1
    21    59    60    1
    22    30    29    2
    23    32    33    1
    24    32    35    1
    25    33    34    2
    26    11    10    1
    27    11    12    1
    28    10     3   am
    29    29    28    1
    30     3     2    1
    31     3     4    2
    32     2     1    1
    33     2     5    1
    34    41    40    2
    35    37    35    1
    36    35    36    1
    37    12    13    2
    38    12    19   am
    39    50    49    2
    40    40    39    1
    41    49    48    1
    42    38    39    1
    43    28    27    1
    44     5     6    1
    45    19    20    1
    46    27    21   am
    47    77    78    1
    48    84    83    1
    49    39    42    1
    50    48    47    1
    51    48    51    1
    52    82    83    1
    53    82    81    1
    54     6     7    1
    55    21    20    1
    56    21    22    2
    57    20    23    1
    58    78    81    1
    59    78    79    1
    60    42    43    1
    61    24    23    1
    62    24    26    1
    63    80    79    2
    64    23    25    1
    65     7     8    1
    66    79    85   am
    67    43    44    1
    68   154   155    1
    69   154   151    1
    70    45    44    2
    71     8     9    1
    72    44    46   am
    73   155   156   ar
    74   155   157   ar
    75   145   144    2
    76    85    86    1
    77   151   152    1
    78   151   150    1
    79   148   146    1
    80   152   153    2
    81    99    98    1
    82    88    87    2
    83   144   150   am
    84   144   143    1
    85    68    66    1
    86    86    87    1
    87    86    89    1
    88    67    65    1
    89    87    94   am
    90    98    95    1
    91    66    65    1
    92    94    95    1
    93    64    63    2
    94    95    96    1
    95   146   143    1
    96   146   147    1
    97   143   142    1
    98    65    62    1
    99    63    62    1
   100    89    90    1
   101   147   149    1
   102    62    61    1
   103    90    91    1
   104    96   100   am
   105    96    97    2
   106   100   101    1
   107   141   139    1
   108   103   102    2
   109   140   139    1
   110   126   125   ar
   111    91    93   ar
   112    91    92   ar
   113   125   124    1
   114   125   127   ar
   115   139   138    1
   116   124   121    1
   117   101   102    1
   118   102   104   am
   119   133   132    1
   120   138   135    1
   121   107   106    2
   122   120   121    1
   123   120   114   am
   124   121   122    1
   125   113   114    1
   126   113   112    1
   127   113   116    1
   128   106   112   am
   129   106   105    1
   130   104   105    1
   131   132   129    1
   132   114   115    2
   133   105   108    1
   134   117   119    1
   135   117   116    1
   136   135   134    1
   137   135   136    1
   138   116   118    1
   139   122   123    2
   140   128   129    1
   141   129   130    1
   142   136   137    2
   143   108   109    1
   144   110   109    2
   145   130   131    2
   146   109   111   am
