@<TRIPOS>MOLECULE
tmp/4d2tC00.pdb
 152 141 0 0 0
SMALL
GASTEIGER

@<TRIPOS>ATOM
      1  N        -17.8340  -41.9900  -25.3790 N.3    17  ILE17      -0.1231
      2  CA       -16.9160  -41.8460  -26.5340 C.3    17  ILE17       0.1692
      3  C        -17.2050  -40.5190  -27.3120 C.2    17  ILE17       0.2592
      4  O        -17.6140  -40.5200  -28.4740 O.2    17  ILE17      -0.2718
      5  CB       -16.7790  -43.1080  -27.4580 C.3    17  ILE17       0.0266
      6  CG1      -18.0990  -43.9030  -27.6560 C.3    17  ILE17       0.0019
      7  CG2      -15.6750  -44.0320  -26.9310 C.3    17  ILE17       0.0020
      8  CD1      -19.0400  -43.4020  -28.7370 C.3    17  ILE17       0.0001
      9  N        -16.9710  -39.4070  -26.6090 N.am   18  GLY18      -0.1957
     10  CA       -17.2630  -38.0390  -27.0320 C.3    18  GLY18       0.1869
     11  C        -17.7270  -37.1610  -25.8750 C.2    18  GLY18       0.2309
     12  O        -18.9320  -36.9130  -25.7250 O.2    18  GLY18      -0.2863
     13  N        -21.4810  -36.7450  -27.4730 N.3    25  VAL25      -0.1245
     14  CA       -21.8230  -37.9930  -28.1550 C.3    25  VAL25       0.1561
     15  C        -21.9020  -39.1060  -27.1350 C.2    25  VAL25       0.2260
     16  O        -20.9770  -39.2910  -26.3500 O.2    25  VAL25      -0.2867
     17  CB       -20.9540  -38.3450  -29.4060 C.3    25  VAL25       0.0252
     18  CG1      -21.0300  -39.8370  -29.7630 C.3    25  VAL25       0.0019
     19  CG2      -21.3660  -37.5040  -30.6040 C.3    25  VAL25       0.0019
     20  N        -22.8750  -43.3520  -27.2610 N.3    27  LEU27      -0.1245
     21  CA       -23.2280  -44.5430  -28.0200 C.3    27  LEU27       0.1561
     22  C        -24.6740  -44.9130  -27.6520 C.2    27  LEU27       0.2260
     23  O        -25.1510  -44.5410  -26.5750 O.2    27  LEU27      -0.2867
     24  CB       -22.2660  -45.7060  -27.7080 C.3    27  LEU27       0.0270
     25  CG       -22.0710  -46.7030  -28.8570 C.3    27  LEU27       0.0019
     26  CD1      -20.6280  -46.7970  -29.2510 C.3    27  LEU27       0.0001
     27  CD2      -22.6230  -48.0700  -28.5110 C.3    27  LEU27       0.0001
     28  N        -25.0670  -43.7530  -33.1210 N.3    38  ALA38      -0.1245
     29  CA       -24.3750  -42.7480  -32.3000 C.3    38  ALA38       0.1562
     30  C        -25.2620  -41.5030  -32.1250 C.2    38  ALA38       0.2260
     31  O        -25.6860  -40.9150  -33.1240 O.2    38  ALA38      -0.2867
     32  CB       -23.0400  -42.3690  -32.9430 C.3    38  ALA38       0.0290
     33  N        -25.7010  -37.6220  -30.8260 N.3    40  LYS40      -0.1245
     34  CA       -25.1570  -36.3070  -30.4860 C.3    40  LYS40       0.1561
     35  C        -26.2490  -35.5580  -29.6890 C.2    40  LYS40       0.2260
     36  O        -27.3750  -35.4040  -30.1690 O.2    40  LYS40      -0.2867
     37  CB       -24.8290  -35.5660  -31.7800 C.3    40  LYS40       0.0271
     38  CG       -23.5260  -34.8300  -31.7610 C.3    40  LYS40       0.0035
     39  CD       -23.2000  -34.3620  -33.1580 C.3    40  LYS40       0.0206
     40  CE       -22.2810  -33.1700  -33.1750 C.3    40  LYS40       0.1093
     41  NZ       -22.3330  -32.4890  -34.4940 N.3    40  LYS40      -0.1314
     42  N        -25.9110  -27.9440  -40.1440 N.3    53  GLU53      -0.1245
     43  CA       -25.5430  -29.3510  -40.2270 C.3    53  GLU53       0.1567
     44  C        -26.7820  -30.1580  -40.5740 C.2    53  GLU53       0.2260
     45  O        -26.8020  -30.7780  -41.6320 O.2    53  GLU53      -0.2867
     46  CB       -24.8680  -29.8510  -38.9300 C.3    53  GLU53       0.0388
     47  CG       -24.6790  -31.3560  -38.9030 C.3    53  GLU53       0.1160
     48  CD       -23.4030  -31.9040  -38.3050 C.2    53  GLU53       0.3649
     49  OE1      -23.2750  -31.8990  -37.0600 O.co2  53  GLU53      -0.2457
     50  OE2      -22.5790  -32.4430  -39.0790 O.co2  53  GLU53      -0.2457
     51  N        -27.5060  -32.4440  -43.9040 N.3    57  LEU57      -0.1245
     52  CA       -27.5800  -33.8880  -43.7140 C.3    57  LEU57       0.1561
     53  C        -28.9430  -34.4710  -44.1270 C.2    57  LEU57       0.2260
     54  O        -28.9910  -35.6050  -44.6140 O.2    57  LEU57      -0.2867
     55  CB       -27.2030  -34.2530  -42.2650 C.3    57  LEU57       0.0270
     56  CG       -25.7060  -34.4240  -41.9080 C.3    57  LEU57       0.0019
     57  CD1      -24.8530  -33.3710  -42.4010 C.3    57  LEU57       0.0001
     58  CD2      -25.5270  -34.6270  -40.4440 C.3    57  LEU57       0.0001
     59  N        -21.5790  -39.7140  -43.3450 N.3    66  CYS66      -0.1235
     60  CA       -22.1450  -40.2470  -42.1040 C.3    66  CYS66       0.1677
     61  C        -23.6350  -39.9180  -42.0300 C.2    66  CYS66       0.2270
     62  O        -23.9950  -38.7520  -41.8730 O.2    66  CYS66      -0.2867
     63  CB       -21.3850  -39.6890  -40.9080 C.3    66  CYS66       0.0956
     64  SG       -21.7970  -40.4680  -39.3360 S.3    66  CYS66      -0.0801
     65  N        -27.0610  -40.5770  -35.5350 N.3    82  LEU82      -0.1231
     66  CA       -26.1340  -40.6630  -36.6660 C.3    82  LEU82       0.1693
     67  C        -25.5220  -42.0750  -36.7330 C.2    82  LEU82       0.2595
     68  O        -25.5310  -42.7990  -35.7330 O.2    82  LEU82      -0.2718
     69  CB       -25.0060  -39.5820  -36.5370 C.3    82  LEU82       0.0284
     70  CG       -25.4250  -38.1030  -36.4140 C.3    82  LEU82       0.0019
     71  CD1      -24.6950  -37.4250  -35.2730 C.3    82  LEU82       0.0001
     72  CD2      -25.1800  -37.3580  -37.7080 C.3    82  LEU82       0.0001
     73  N        -24.9940  -42.4560  -37.9090 N.am   83  GLU83      -0.1920
     74  CA       -24.3390  -43.7410  -38.2040 C.3    83  GLU83       0.1949
     75  C        -23.1490  -44.0560  -37.2630 C.2    83  GLU83       0.2659
     76  O        -22.4450  -43.1520  -36.8510 O.2    83  GLU83      -0.2711
     77  CB       -23.8820  -43.7210  -39.6750 C.2    83  GLU83       0.0111
     78  CG       -23.4780  -45.0600  -40.2580 C.2    83  GLU83       0.0838
     79  CD       -22.9900  -45.0330  -41.6950 C.2    83  GLU83       0.3877
     80  OE1      -23.1510  -44.0010  -42.3900 O.co2  83  GLU83      -0.2406
     81  OE2      -22.4620  -46.0770  -42.1380 O.co2  83  GLU83      -0.2406
     82  N        -22.9290  -45.3380  -36.9560 N.am   84  TYR84      -0.1957
     83  CA       -21.9050  -45.8920  -36.0710 C.3    84  TYR84       0.1771
     84  C        -20.6180  -46.1060  -36.8680 C.2    84  TYR84       0.2620
     85  O        -20.5720  -46.9580  -37.7580 O.2    84  TYR84      -0.2715
     86  CB       -22.4540  -47.2280  -35.5300 C.3    84  TYR84       0.0574
     87  CG       -21.5620  -48.0800  -34.6530 C.ar   84  TYR84      -0.0198
     88  CD1      -21.0590  -47.5910  -33.4490 C.ar   84  TYR84      -0.0009
     89  CD2      -21.2780  -49.4030  -34.9910 C.ar   84  TYR84      -0.0009
     90  CE1      -20.2660  -48.3840  -32.6220 C.ar   84  TYR84       0.0417
     91  CE2      -20.4750  -50.2020  -34.1780 C.ar   84  TYR84       0.0417
     92  CZ       -19.9720  -49.6900  -32.9910 C.ar   84  TYR84       0.1957
     93  OH       -19.1830  -50.4900  -32.1900 O.3    84  TYR84      -0.2866
     94  N        -19.5780  -45.3140  -36.5540 N.am   85  CYS85      -0.1954
     95  CA       -18.2540  -45.3110  -37.1580 C.3    85  CYS85       0.1828
     96  C        -17.2490  -45.7610  -36.0790 C.2    85  CYS85       0.2467
     97  O        -16.5410  -44.9080  -35.5360 O.2    85  CYS85      -0.2730
     98  CB       -17.9000  -43.9140  -37.6830 C.3    85  CYS85       0.0996
     99  SG       -18.9820  -43.2790  -38.9980 S.3    85  CYS85      -0.0797
    100  N        -17.1370  -47.0660  -35.7350 N.am   86  PRO86      -0.2726
    101  CA       -16.2300  -47.4480  -34.6290 C.3    86  PRO86       0.1402
    102  C        -14.7330  -47.3530  -34.8950 C.2    86  PRO86       0.2269
    103  O        -13.9530  -47.4670  -33.9570 O.2    86  PRO86      -0.2865
    104  CB       -16.6410  -48.8900  -34.3190 C.3    86  PRO86       0.0296
    105  CG       -17.1510  -49.4090  -35.6040 C.3    86  PRO86       0.0237
    106  CD       -17.8140  -48.2500  -36.3010 C.3    86  PRO86       0.0939
    107  N        -12.6360  -45.0310  -35.7860 N.3    88  GLY88      -0.1210
    108  CA       -11.9140  -43.8360  -35.3580 C.3    88  GLY88       0.1956
    109  C        -11.6770  -42.7900  -36.4290 C.2    88  GLY88       0.2611
    110  O        -12.1340  -42.9360  -37.5680 O.2    88  GLY88      -0.2717
    111  N        -10.9500  -41.7150  -36.0470 N.am   89  GLU89      -0.1979
    112  CA       -10.5890  -40.6010  -36.9310 C.3    89  GLU89       0.1602
    113  C         -9.5290  -41.0410  -37.9230 C.2    89  GLU89       0.2287
    114  O         -8.7110  -41.9130  -37.6020 O.2    89  GLU89      -0.2864
    115  CB       -10.0410  -39.4230  -36.1090 C.3    89  GLU89       0.0415
    116  CG       -11.1010  -38.6140  -35.3890 C.3    89  GLU89       0.1163
    117  CD       -10.5770  -37.6270  -34.3640 C.2    89  GLU89       0.3649
    118  OE1       -9.6170  -36.8900  -34.6820 O.co2  89  GLU89      -0.2457
    119  OE2      -11.1520  -37.5620  -33.2530 O.co2  89  GLU89      -0.2457
    120  N         -9.6050  -35.0500  -38.9750 N.3   132  GLU132     -0.1245
    121  CA       -10.4690  -35.2180  -37.7940 C.3   132  GLU132      0.1567
    122  C        -11.9540  -35.3460  -38.1820 C.2   132  GLU132      0.2260
    123  O        -12.7250  -35.9740  -37.4470 O.2   132  GLU132     -0.2867
    124  CB       -10.2910  -34.0740  -36.7920 C.3   132  GLU132      0.0388
    125  CG        -8.8800  -33.9400  -36.2290 C.3   132  GLU132      0.1160
    126  CD        -7.9290  -32.9530  -36.8840 C.2   132  GLU132      0.3649
    127  OE1       -8.0740  -32.6600  -38.0930 O.co2 132  GLU132     -0.2457
    128  OE2       -7.0040  -32.4940  -36.1760 O.co2 132  GLU132     -0.2457
    129  N        -14.1770  -40.2330  -40.5750 N.3   135  LEU135     -0.1245
    130  CA       -14.1850  -41.3530  -39.6310 C.3   135  LEU135      0.1561
    131  C        -14.3200  -42.6590  -40.3400 C.2   135  LEU135      0.2260
    132  O        -14.8550  -42.6630  -41.4290 O.2   135  LEU135     -0.2867
    133  CB       -15.3390  -41.2300  -38.6390 C.3   135  LEU135      0.0270
    134  CG       -15.5600  -39.9090  -37.9570 C.3   135  LEU135      0.0019
    135  CD1      -16.8830  -39.9130  -37.2320 C.3   135  LEU135      0.0001
    136  CD2      -14.4290  -39.6030  -37.0100 C.3   135  LEU135      0.0001
    137  N        -17.9610  -36.0220  -41.7840 N.3   145  ILE145     -0.1231
    138  CA       -18.7480  -35.4610  -40.6800 C.3   145  ILE145      0.1692
    139  C        -18.6360  -33.9290  -40.6240 C.2   145  ILE145      0.2592
    140  O        -17.9380  -33.3480  -41.4460 O.2   145  ILE145     -0.2718
    141  CB       -18.4440  -36.1260  -39.2980 C.3   145  ILE145      0.0266
    142  CG1      -17.0020  -35.8880  -38.8340 C.3   145  ILE145      0.0019
    143  CG2      -18.7990  -37.5990  -39.2730 C.3   145  ILE145      0.0020
    144  CD1      -16.8680  -35.6850  -37.3290 C.3   145  ILE145      0.0001
    145  N        -19.3300  -33.2850  -39.6540 N.am  146  ASP146     -0.1974
    146  CA       -19.2200  -31.8680  -39.2790 C.3   146  ASP146      0.1709
    147  C        -19.4990  -30.9010  -40.4540 C.2   146  ASP146      0.2293
    148  O        -18.5780  -30.2990  -41.0190 O.2   146  ASP146     -0.2864
    149  CB       -17.8720  -31.5770  -38.5880 C.3   146  ASP146      0.1436
    150  CG       -17.8460  -30.3220  -37.7340 C.2   146  ASP146      0.3671
    151  OD1      -18.9360  -29.7610  -37.4550 O.co2 146  ASP146     -0.2456
    152  OD2      -16.7410  -29.9040  -37.3340 O.co2 146  ASP146     -0.2456
@<TRIPOS>BOND
     1    54    53    2
     2    53    52    1
     3    51    52    1
     4    52    55    1
     5    59    60    1
     6    57    56    1
     7    80    79   ar
     8    55    56    1
     9    81    79   ar
    10    60    61    1
    11    60    63    1
    12    61    62    2
    13    56    58    1
    14   137   138    1
    15    79    78    1
    16    45    44    2
    17   140   139    2
    18   132   131    2
    19   148   147    2
    20    63    64    1
    21   138   139    1
    22   138   141    1
    23   139   145   am
    24   129   130    1
    25    44    43    1
    26   147   146    1
    27   131   130    1
    28    78    77    2
    29    43    42    1
    30    43    46    1
    31    77    74    1
    32   145   146    1
    33   130   133    1
    34   141   143    1
    35   141   142    1
    36   146   149    1
    37    50    48   ar
    38    99    98    1
    39   120   121    1
    40    46    47    1
    41    47    48    1
    42   142   144    1
    43   133   134    1
    44   149   150    1
    45    48    49   ar
    46    74    73    1
    47    74    75    1
    48   122   121    1
    49   122   123    2
    50   127   126   ar
    51   134   135    1
    52   134   136    1
    53   113   114    2
    54   113   112    1
    55    73    67   am
    56   121   124    1
    57    85    84    2
    58   150   151   ar
    59   150   152   ar
    60    72    70    1
    61    98    95    1
    62   110   109    2
    63    75    82   am
    64    75    76    2
    65    95    94    1
    66    95    96    1
    67    82    83    1
    68   112   115    1
    69   112   111    1
    70   126   125    1
    71   126   128   ar
    72    84    94   am
    73    84    83    1
    74   124   125    1
    75    67    66    1
    76    67    68    2
    77    66    69    1
    78    66    65    1
    79    69    70    1
    80   109   111   am
    81   109   108    1
    82    70    71    1
    83   106   100    1
    84   106   105    1
    85   115   116    1
    86    96   100   am
    87    96    97    2
    88    83    86    1
    89   107   108    1
    90   100   101    1
    91   105   104    1
    92    86    87    1
    93   116   117    1
    94    89    87   ar
    95    89    91   ar
    96   102   101    1
    97   102   103    2
    98   118   117   ar
    99    87    88   ar
   100   101   104    1
   101    41    40    1
   102   117   119   ar
   103    91    92   ar
   104    88    90   ar
   105    40    39    1
   106    39    38    1
   107    31    30    2
   108    28    29    1
   109    92    90   ar
   110    92    93    1
   111    32    29    1
   112    29    30    1
   113    37    38    1
   114    37    34    1
   115    33    34    1
   116    19    17    1
   117    34    35    1
   118    36    35    2
   119    18    17    1
   120    17    14    1
   121    26    25    1
   122    25    27    1
   123    25    24    1
   124     8     6    1
   125     4     3    2
   126    14    13    1
   127    14    15    1
   128    21    24    1
   129    21    22    1
   130    21    20    1
   131     6     5    1
   132    22    23    2
   133     5     7    1
   134     5     2    1
   135     3     9   am
   136     3     2    1
   137    15    16    2
   138    10     9    1
   139    10    11    1
   140     2     1    1
   141    11    12    2
