@<TRIPOS>MOLECULE
tmp/4d2vB00.pdb
 132 122 0 0 0
SMALL
GASTEIGER

@<TRIPOS>ATOM
      1  N         -5.1960  -45.7500  -28.4120 N.3    14  GLU14      -0.1245
      2  CA        -6.5680  -45.4950  -28.8850 C.3    14  GLU14       0.1567
      3  C         -7.1220  -44.0810  -28.5660 C.2    14  GLU14       0.2260
      4  O         -6.4060  -43.2630  -28.0190 O.2    14  GLU14      -0.2867
      5  CB        -7.5290  -46.6040  -28.3730 C.3    14  GLU14       0.0388
      6  CG        -7.7390  -46.6610  -26.8620 C.3    14  GLU14       0.1160
      7  CD        -7.7440  -48.0520  -26.2560 C.2    14  GLU14       0.3649
      8  OE1       -6.6570  -48.6690  -26.1760 O.co2  14  GLU14      -0.2457
      9  OE2       -8.8290  -48.5170  -25.8390 O.co2  14  GLU14      -0.2457
     10  N        -10.4350  -42.7530  -26.6990 N.3    16  ILE16      -0.1245
     11  CA       -11.6180  -42.6530  -25.8170 C.3    16  ILE16       0.1561
     12  C        -12.0880  -41.1920  -25.7240 C.2    16  ILE16       0.2260
     13  O        -13.0470  -40.8890  -25.0290 O.2    16  ILE16      -0.2867
     14  CB       -11.3710  -43.2470  -24.3980 C.3    16  ILE16       0.0252
     15  CG1      -10.3450  -44.3670  -24.3980 C.3    16  ILE16       0.0019
     16  CG2      -12.6700  -43.6930  -23.7240 C.3    16  ILE16       0.0019
     17  CD1       -9.1760  -43.9460  -23.8460 C.3    16  ILE16       0.0001
     18  N        -11.5050  -31.2500  -26.1760 N.3    22  ALA22      -0.1245
     19  CA       -10.7370  -32.2120  -25.4000 C.3    22  ALA22       0.1562
     20  C        -10.9760  -33.6550  -25.8140 C.2    22  ALA22       0.2260
     21  O        -11.9640  -34.2750  -25.3980 O.2    22  ALA22      -0.2867
     22  CB       -11.0000  -32.0290  -23.9110 C.3    22  ALA22       0.0290
     23  N         -9.4350  -37.4220  -25.3130 N.3    24  VAL24      -0.1245
     24  CA        -8.5990  -38.2570  -24.4600 C.3    24  VAL24       0.1561
     25  C         -7.9170  -39.2720  -25.3750 C.2    24  VAL24       0.2260
     26  O         -8.5590  -39.9540  -26.1730 O.2    24  VAL24      -0.2867
     27  CB        -9.3980  -38.9070  -23.2910 C.3    24  VAL24       0.0252
     28  CG1       -8.4980  -39.7440  -22.3910 C.3    24  VAL24       0.0019
     29  CG2      -10.1500  -37.8530  -22.4770 C.3    24  VAL24       0.0019
     30  N         -5.5260  -42.4040  -24.9120 N.3    26  LEU26      -0.1245
     31  CA        -4.8360  -43.4130  -24.1170 C.3    26  LEU26       0.1561
     32  C         -3.4320  -43.5390  -24.6370 C.2    26  LEU26       0.2260
     33  O         -3.2170  -43.5500  -25.8460 O.2    26  LEU26      -0.2867
     34  CB        -5.5660  -44.7600  -24.1740 C.3    26  LEU26       0.0270
     35  CG        -5.9340  -45.4230  -22.8240 C.3    26  LEU26       0.0019
     36  CD1       -6.7010  -44.4710  -21.8990 C.3    26  LEU26       0.0001
     37  CD2       -6.7480  -46.7020  -23.0410 C.3    26  LEU26       0.0001
     38  N         -3.5840  -41.2660  -19.4330 N.3    37  ALA37      -0.1245
     39  CA        -4.6020  -40.7570  -20.3420 C.3    37  ALA37       0.1562
     40  C         -4.2500  -39.3270  -20.6690 C.2    37  ALA37       0.2260
     41  O         -3.8820  -38.5850  -19.7580 O.2    37  ALA37      -0.2867
     42  CB        -5.9640  -40.8230  -19.6830 C.3    37  ALA37       0.0290
     43  N         -5.2370  -35.6950  -22.1050 N.3    39  LYS39      -0.1245
     44  CA        -6.2710  -34.7230  -22.4380 C.3    39  LYS39       0.1561
     45  C         -5.6380  -33.7150  -23.3640 C.2    39  LYS39       0.2260
     46  O         -4.6180  -33.1370  -23.0140 O.2    39  LYS39      -0.2867
     47  CB        -6.7720  -34.0370  -21.1710 C.3    39  LYS39       0.0271
     48  CG        -8.2300  -33.6240  -21.1990 C.3    39  LYS39       0.0035
     49  CD        -8.5380  -32.6990  -20.0260 C.3    39  LYS39       0.0206
     50  CE        -9.6890  -31.7470  -20.3050 C.3    39  LYS39       0.1093
     51  NZ        -9.6640  -30.5740  -19.3970 N.3    39  LYS39      -0.1314
     52  N         -8.2880  -25.2830  -13.9220 N.3    56  GLU56      -0.1245
     53  CA        -8.1140  -26.7040  -13.6660 C.3    56  GLU56       0.1567
     54  C         -6.6470  -27.0770  -13.4100 C.2    56  GLU56       0.2260
     55  O         -6.3710  -27.6740  -12.3840 O.2    56  GLU56      -0.2867
     56  CB        -8.7400  -27.5230  -14.8030 C.3    56  GLU56       0.0388
     57  CG        -8.2900  -28.9670  -14.8400 C.3    56  GLU56       0.1160
     58  CD        -9.2850  -29.9470  -15.4260 C.2    56  GLU56       0.3649
     59  OE1       -9.5500  -29.8620  -16.6510 O.co2  56  GLU56      -0.2457
     60  OE2       -9.7600  -30.8260  -14.6660 O.co2  56  GLU56      -0.2457
     61  N         -8.1200  -37.7240   -9.3920 N.3    69  CYS69      -0.1235
     62  CA        -7.4220  -38.0910  -10.6320 C.3    69  CYS69       0.1677
     63  C         -6.2510  -37.1540  -10.8640 C.2    69  CYS69       0.2270
     64  O         -6.4410  -36.0180  -11.2710 O.2    69  CYS69      -0.2867
     65  CB        -8.3820  -38.1030  -11.8180 C.3    69  CYS69       0.0956
     66  SG        -7.5980  -38.5030  -13.4110 S.3    69  CYS69      -0.0801
     67  N         -2.7540  -37.4580  -17.4530 N.3    85  LEU85      -0.1231
     68  CA        -3.5920  -37.7770  -16.2970 C.3    85  LEU85       0.1693
     69  C         -3.5580  -39.2800  -15.9370 C.2    85  LEU85       0.2592
     70  O         -3.1370  -40.1130  -16.7410 O.2    85  LEU85      -0.2718
     71  CB        -5.0260  -37.2500  -16.5250 C.3    85  LEU85       0.0284
     72  CG        -5.1570  -35.7160  -16.6520 C.3    85  LEU85       0.0019
     73  CD1       -6.3180  -35.3520  -17.5010 C.3    85  LEU85       0.0001
     74  CD2       -5.3370  -35.0370  -15.3100 C.3    85  LEU85       0.0001
     75  N         -3.9910  -39.6100  -14.7150 N.am   86  GLU86      -0.1966
     76  CA        -4.1170  -40.9510  -14.1720 C.3    86  GLU86       0.1733
     77  C         -5.1750  -41.7630  -14.9350 C.2    86  GLU86       0.2616
     78  O         -6.2160  -41.2160  -15.3440 O.2    86  GLU86      -0.2715
     79  CB        -4.4320  -40.8240  -12.6720 C.3    86  GLU86       0.0429
     80  CG        -4.6750  -42.0940  -11.8690 C.3    86  GLU86       0.1163
     81  CD        -4.9600  -41.8460  -10.3980 C.2    86  GLU86       0.3649
     82  OE1       -5.2610  -40.6940  -10.0150 O.co2  86  GLU86      -0.2457
     83  OE2       -4.8220  -42.8040   -9.6120 O.co2  86  GLU86      -0.2457
     84  N         -4.8780  -43.0850  -15.1110 N.am   87  TYR87      -0.1960
     85  CA        -5.6160  -44.1320  -15.8180 C.3    87  TYR87       0.1771
     86  C         -6.8940  -44.5610  -15.0440 C.2    87  TYR87       0.2620
     87  O         -6.8120  -44.9860  -13.8870 O.2    87  TYR87      -0.2715
     88  CB        -4.6670  -45.3390  -16.0900 C.3    87  TYR87       0.0574
     89  CG        -5.1980  -46.4230  -17.0140 C.ar   87  TYR87      -0.0198
     90  CD1       -5.4570  -46.1610  -18.3570 C.ar   87  TYR87      -0.0009
     91  CD2       -5.3860  -47.7260  -16.5580 C.ar   87  TYR87      -0.0009
     92  CE1       -5.9300  -47.1560  -19.2110 C.ar   87  TYR87       0.0417
     93  CE2       -5.8410  -48.7320  -17.4090 C.ar   87  TYR87       0.0417
     94  CZ        -6.1230  -48.4400  -18.7320 C.ar   87  TYR87       0.1957
     95  OH        -6.5820  -49.4320  -19.5620 O.3    87  TYR87      -0.2866
     96  N         -8.0640  -44.4250  -15.7070 N.am   88  CYS88      -0.1954
     97  CA        -9.4110  -44.6580  -15.1550 C.3    88  CYS88       0.1828
     98  C        -10.2520  -45.4750  -16.1610 C.2    88  CYS88       0.2467
     99  O        -11.1600  -44.9130  -16.7700 O.2    88  CYS88      -0.2730
    100  CB       -10.1050  -43.3400  -14.7900 C.3    88  CYS88       0.0996
    101  SG        -9.2200  -42.3170  -13.5780 S.3    88  CYS88      -0.0797
    102  N         -9.9780  -46.7970  -16.3480 N.am   89  PRO89      -0.2726
    103  CA       -10.7460  -47.5790  -17.3300 C.3    89  PRO89       0.1402
    104  C        -12.1680  -47.9970  -16.9090 C.2    89  PRO89       0.2269
    105  O        -12.8720  -48.6170  -17.7150 O.2    89  PRO89      -0.2865
    106  CB        -9.8430  -48.7980  -17.5790 C.3    89  PRO89       0.0296
    107  CG        -9.2080  -49.0310  -16.2800 C.3    89  PRO89       0.0237
    108  CD        -8.9640  -47.6490  -15.6820 C.3    89  PRO89       0.0939
    109  N        -14.7930  -40.8900  -11.5850 N.3   138  LEU138     -0.1245
    110  CA       -14.4320  -42.0520  -12.4360 C.3   138  LEU138      0.1561
    111  C        -13.8300  -43.1920  -11.6480 C.2   138  LEU138      0.2260
    112  O        -13.2960  -42.9690  -10.5620 O.2   138  LEU138     -0.2867
    113  CB       -13.4100  -41.6630  -13.5380 C.3   138  LEU138      0.0270
    114  CG       -13.7180  -40.5150  -14.5380 C.3   138  LEU138      0.0019
    115  CD1      -14.9810  -40.7490  -15.3230 C.3   138  LEU138      0.0001
    116  CD2      -13.9240  -39.2370  -13.8650 C.3   138  LEU138      0.0001
    117  N        -12.7980  -35.5820  -10.9470 N.3   148  ILE148     -0.1231
    118  CA       -12.2190  -34.9090  -12.1380 C.3   148  ILE148      0.1692
    119  C        -12.8580  -33.5160  -12.3450 C.2   148  ILE148      0.2592
    120  O        -13.6810  -33.1110  -11.5430 O.2   148  ILE148     -0.2718
    121  CB       -12.2710  -35.8030  -13.4200 C.3   148  ILE148      0.0266
    122  CG1      -13.7450  -36.1540  -13.8150 C.3   148  ILE148      0.0019
    123  CG2      -11.4300  -37.0690  -13.2520 C.3   148  ILE148      0.0020
    124  CD1      -14.0930  -36.2640  -15.2560 C.3   148  ILE148      0.0001
    125  N        -12.4730  -32.8040  -13.4170 N.am  149  ASP149     -0.1974
    126  CA       -13.0230  -31.5210  -13.8870 C.3   149  ASP149      0.1709
    127  C        -13.1660  -30.4560  -12.8110 C.2   149  ASP149      0.2293
    128  O        -14.2520  -30.2440  -12.2930 O.2   149  ASP149     -0.2864
    129  CB       -14.3520  -31.6690  -14.6550 C.3   149  ASP149      0.1436
    130  CG       -14.8450  -30.3560  -15.2410 C.2   149  ASP149      0.3671
    131  OD1      -14.0090  -29.5980  -15.7790 O.co2 149  ASP149     -0.2456
    132  OD2      -16.0540  -30.0430  -15.0770 O.co2 149  ASP149     -0.2456
@<TRIPOS>BOND
     1     2     3    1
     2     2     1    1
     3     2     5    1
     4     3     4    2
     5     5     6    1
     6     6     7    1
     7    10    11    1
     8     7     8   ar
     9     7     9   ar
    10    18    19    1
    11    26    25    2
    12    33    32    2
    13    11    12    1
    14    11    14    1
    15    20    19    1
    16    20    21    2
    17    12    13    2
    18    19    22    1
    19    25    24    1
    20    23    24    1
    21    30    31    1
    22    32    31    1
    23    24    27    1
    24    15    14    1
    25    15    17    1
    26    14    16    1
    27    34    31    1
    28    34    35    1
    29    45    46    2
    30    45    44    1
    31    27    29    1
    32    27    28    1
    33    37    35    1
    34    35    36    1
    35    44    43    1
    36    44    47    1
    37    48    47    1
    38    48    49    1
    39    40    39    1
    40    40    41    2
    41    39    42    1
    42    39    38    1
    43    50    49    1
    44    50    51    1
    45    95    94    1
    46    92    94   ar
    47    92    90   ar
    48    94    93   ar
    49    90    89   ar
    50   105   104    2
    51   106   103    1
    52   106   107    1
    53    73    72    1
    54    67    68    1
    55    93    91   ar
    56   103   104    1
    57   103   102    1
    58    89    91   ar
    59    89    88    1
    60    99    98    2
    61    70    69    2
    62    72    71    1
    63    72    74    1
    64    59    58   ar
    65    71    68    1
    66   102    98   am
    67   102   108    1
    68    68    69    1
    69   107   108    1
    70    98    97    1
    71    88    85    1
    72    69    75   am
    73    85    84    1
    74    85    86    1
    75   131   130   ar
    76    96    97    1
    77    96    86   am
    78    58    57    1
    79    58    60   ar
    80    78    77    2
    81   115   114    1
    82   124   122    1
    83   130   132   ar
    84   130   129    1
    85    97   100    1
    86    84    77   am
    87    86    87    2
    88    77    76    1
    89    57    56    1
    90    56    53    1
    91   100   101    1
    92    75    76    1
    93   129   126    1
    94   114   116    1
    95   114   113    1
    96    76    79    1
    97    52    53    1
    98   126   125    1
    99   126   127    1
   100   122   121    1
   101    53    54    1
   102   113   110    1
   103   121   123    1
   104   121   118    1
   105   125   119   am
   106    66    65    1
   107    54    55    2
   108   127   128    2
   109    79    80    1
   110   110   111    1
   111   110   109    1
   112   119   118    1
   113   119   120    2
   114   118   117    1
   115    80    81    1
   116    65    62    1
   117   111   112    2
   118    64    63    2
   119    63    62    1
   120    62    61    1
   121    81    82   ar
   122    81    83   ar
