@<TRIPOS>MOLECULE
tmp/4d2wD01.pdb
 110 102 0 0 0
SMALL
GASTEIGER

@<TRIPOS>ATOM
      1  N        -13.9320   -9.0620  -15.6930 N.3    15  GLU15      -0.1245
      2  CA       -12.6990   -8.7560  -14.9700 C.3    15  GLU15       0.1567
      3  C        -12.0620   -7.4500  -15.3880 C.2    15  GLU15       0.2260
      4  O        -12.1460   -7.0130  -16.5550 O.2    15  GLU15      -0.2867
      5  CB       -11.6230   -9.8800  -14.9750 C.3    15  GLU15       0.0388
      6  CG       -11.9720  -11.1970  -15.6490 C.3    15  GLU15       0.1160
      7  CD       -12.0290  -11.1730  -17.1670 C.2    15  GLU15       0.3649
      8  OE1      -13.1000  -10.8020  -17.6950 O.co2  15  GLU15      -0.2457
      9  OE2      -11.0610  -11.6230  -17.8230 O.co2  15  GLU15      -0.2457
     10  N         -8.8820   -5.7180  -16.5230 N.3    17  ILE17      -0.1245
     11  CA        -7.5990   -6.1380  -17.0880 C.3    17  ILE17       0.1561
     12  C         -6.4580   -5.4570  -16.2660 C.2    17  ILE17       0.2260
     13  O         -5.4330   -6.0930  -15.9950 O.2    17  ILE17      -0.2867
     14  CB        -7.4860   -6.0040  -18.6560 C.3    17  ILE17       0.0252
     15  CG1       -6.6710   -4.8030  -19.0950 C.3    17  ILE17       0.0019
     16  CG2       -8.8410   -6.0280  -19.3570 C.3    17  ILE17       0.0019
     17  CD1       -5.3090   -5.1480  -19.3060 C.3    17  ILE17       0.0001
     18  N         -8.9450   -0.4940  -17.6080 N.3    25  VAL25      -0.1245
     19  CA        -9.7470   -1.1850  -18.5960 C.3    25  VAL25       0.1561
     20  C        -10.4690   -2.3520  -17.9240 C.2    25  VAL25       0.2260
     21  O         -9.8380   -3.1400  -17.2230 O.2    25  VAL25      -0.2867
     22  CB        -8.9330   -1.5980  -19.8640 C.3    25  VAL25       0.0252
     23  CG1       -9.8000   -2.3620  -20.8580 C.3    25  VAL25       0.0019
     24  CG2       -8.3140   -0.3850  -20.5460 C.3    25  VAL25       0.0019
     25  N        -13.2730   -5.5230  -18.8750 N.3    27  LEU27      -0.1245
     26  CA       -14.0730   -6.2750  -19.8390 C.3    27  LEU27       0.1561
     27  C        -15.5400   -6.2850  -19.4400 C.2    27  LEU27       0.2260
     28  O        -15.8970   -6.3190  -18.2490 O.2    27  LEU27      -0.2867
     29  CB       -13.5380   -7.6880  -20.0500 C.3    27  LEU27       0.0270
     30  CG       -12.0650   -7.7900  -20.3530 C.3    27  LEU27       0.0019
     31  CD1      -11.6590   -9.2670  -20.5570 C.3    27  LEU27       0.0001
     32  CD2      -11.6800   -6.9050  -21.6300 C.3    27  LEU27       0.0001
     33  N        -14.4020   -3.9570  -24.4310 N.3    38  ALA38      -0.1245
     34  CA       -13.4950   -3.4090  -23.4430 C.3    38  ALA38       0.1562
     35  C        -13.9620   -2.0170  -23.0800 C.2    38  ALA38       0.2260
     36  O        -14.2440   -1.2100  -23.9600 O.2    38  ALA38      -0.2867
     37  CB       -12.0830   -3.3580  -23.9990 C.3    38  ALA38       0.0290
     38  N        -12.8440    1.4270  -21.2820 N.3    40  LYS40      -0.1245
     39  CA       -11.8030    2.2820  -20.7590 C.3    40  LYS40       0.1561
     40  C        -12.4740    3.2850  -19.8390 C.2    40  LYS40       0.2260
     41  O        -13.3120    4.0780  -20.2770 O.2    40  LYS40      -0.2867
     42  CB       -11.1360    3.0240  -21.9180 C.3    40  LYS40       0.0271
     43  CG        -9.6830    3.2920  -21.7120 C.3    40  LYS40       0.0035
     44  CD        -9.1550    3.8740  -22.9970 C.3    40  LYS40       0.0206
     45  CE        -7.6760    3.8420  -23.0440 C.3    40  LYS40       0.1093
     46  NZ        -7.1830    4.7370  -24.1060 N.3    40  LYS40      -0.1314
     47  N         -9.5570    0.1820  -33.9780 N.3    70  CYS70      -0.1235
     48  CA       -10.3440   -0.2290  -32.7980 C.3    70  CYS70       0.1677
     49  C        -11.6320    0.6290  -32.7080 C.2    70  CYS70       0.2270
     50  O        -11.5410    1.8210  -32.5400 O.2    70  CYS70      -0.2867
     51  CB        -9.4910   -0.1100  -31.5390 C.3    70  CYS70       0.0956
     52  SG       -10.3260   -0.6460  -30.0210 S.3    70  CYS70      -0.0801
     53  N        -15.1770    0.2240  -26.1300 N.3    86  LEU86      -0.1231
     54  CA       -14.2890   -0.0550  -27.2530 C.3    86  LEU86       0.1693
     55  C        -14.3000   -1.5020  -27.6420 C.2    86  LEU86       0.2592
     56  O        -14.6890   -2.3670  -26.8650 O.2    86  LEU86      -0.2718
     57  CB       -12.8610    0.4060  -26.9090 C.3    86  LEU86       0.0284
     58  CG       -12.6610    1.9160  -26.7790 C.3    86  LEU86       0.0019
     59  CD1      -11.4310    2.1920  -25.9370 C.3    86  LEU86       0.0001
     60  CD2      -12.5280    2.5850  -28.1620 C.3    86  LEU86       0.0001
     61  N        -13.8710   -1.7670  -28.8750 N.am   87  GLU87      -0.1966
     62  CA       -13.7620   -3.0640  -29.4780 C.3    87  GLU87       0.1733
     63  C        -12.8270   -3.9180  -28.6550 C.2    87  GLU87       0.2616
     64  O        -11.7550   -3.4670  -28.2700 O.2    87  GLU87      -0.2715
     65  CB       -13.2010   -2.8860  -30.9130 C.3    87  GLU87       0.0429
     66  CG       -13.1730   -4.1690  -31.7320 C.3    87  GLU87       0.1163
     67  CD       -12.9350   -3.9440  -33.2000 C.2    87  GLU87       0.3649
     68  OE1      -12.7300   -2.7820  -33.6090 O.co2  87  GLU87      -0.2457
     69  OE2      -13.0040   -4.9280  -33.9550 O.co2  87  GLU87      -0.2457
     70  N        -13.2440   -5.1610  -28.3980 N.am   88  TYR88      -0.1960
     71  CA       -12.5150   -6.1720  -27.6400 C.3    88  TYR88       0.1771
     72  C        -11.2230   -6.5850  -28.3640 C.2    88  TYR88       0.2620
     73  O        -11.2890   -7.1280  -29.4730 O.2    88  TYR88      -0.2715
     74  CB       -13.4640   -7.3660  -27.4230 C.3    88  TYR88       0.0574
     75  CG       -12.9160   -8.4940  -26.5900 C.ar   88  TYR88      -0.0198
     76  CD1      -12.4770   -8.2760  -25.2930 C.ar   88  TYR88      -0.0009
     77  CD2      -12.8500   -9.7890  -27.0930 C.ar   88  TYR88      -0.0009
     78  CE1      -11.9930   -9.3140  -24.5120 C.ar   88  TYR88       0.0417
     79  CE2      -12.3790  -10.8440  -26.3160 C.ar   88  TYR88       0.0417
     80  CZ       -11.9570  -10.6000  -25.0210 C.ar   88  TYR88       0.1957
     81  OH       -11.4920  -11.6290  -24.2460 O.3    88  TYR88      -0.2866
     82  N        -10.0510   -6.3160  -27.7500 N.am   89  CYS89      -0.1954
     83  CA        -8.7090   -6.6200  -28.3100 C.3    89  CYS89       0.1828
     84  C         -7.8710   -7.4580  -27.3450 C.2    89  CYS89       0.2467
     85  O         -6.9390   -6.8980  -26.7530 O.2    89  CYS89      -0.2730
     86  CB        -7.9520   -5.3660  -28.7680 C.3    89  CYS89       0.0996
     87  SG        -8.8100   -4.4380  -30.0500 S.3    89  CYS89      -0.0797
     88  N         -8.1720   -8.7650  -27.2010 N.am   90  PRO90      -0.2726
     89  CA        -7.4310   -9.6030  -26.2550 C.3    90  PRO90       0.1402
     90  C         -6.0080  -10.0250  -26.6860 C.2    90  PRO90       0.2269
     91  O         -5.3090  -10.6190  -25.8670 O.2    90  PRO90      -0.2865
     92  CB        -8.3480  -10.8320  -26.1250 C.3    90  PRO90       0.0296
     93  CG        -8.9110  -10.9720  -27.4370 C.3    90  PRO90       0.0237
     94  CD        -9.2010   -9.5780  -27.8950 C.3    90  PRO90       0.0939
     95  N         -3.1110   -2.9960  -31.7430 N.3   139  LEU139     -0.1245
     96  CA        -3.5840   -4.1400  -30.9540 C.3   139  LEU139      0.1561
     97  C         -4.1340   -5.2580  -31.7920 C.2   139  LEU139      0.2260
     98  O         -4.6660   -4.9920  -32.8560 O.2   139  LEU139     -0.2867
     99  CB        -4.6880   -3.7250  -29.9640 C.3   139  LEU139      0.0270
    100  CG        -4.4290   -2.4860  -29.0590 C.3   139  LEU139      0.0019
    101  CD1       -5.5500   -2.3960  -27.9930 C.3   139  LEU139      0.0001
    102  CD2       -3.0990   -2.5830  -28.3020 C.3   139  LEU139      0.0001
    103  N         -5.0570    2.1490  -32.4440 N.3   149  ILE149     -0.1245
    104  CA        -5.6010    2.8540  -31.2690 C.3   149  ILE149      0.1561
    105  C         -4.8820    4.1700  -31.0860 C.2   149  ILE149      0.2260
    106  O         -3.9950    4.4960  -31.8740 O.2   149  ILE149     -0.2867
    107  CB        -5.5160    2.0020  -29.9670 C.3   149  ILE149      0.0252
    108  CG1       -4.0190    1.6940  -29.5960 C.3   149  ILE149      0.0019
    109  CG2       -6.3930    0.7390  -30.0340 C.3   149  ILE149      0.0019
    110  CD1       -3.7680    1.2090  -28.1450 C.3   149  ILE149      0.0001
@<TRIPOS>BOND
     1    47    48    1
     2    69    67   ar
     3    68    67   ar
     4    67    66    1
     5    98    97    2
     6    48    49    1
     7    48    51    1
     8    49    50    2
     9   103   104    1
    10   106   105    2
    11    97    96    1
    12    95    96    1
    13    66    65    1
    14    51    52    1
    15   104   105    1
    16   104   107    1
    17    96    99    1
    18    65    62    1
    19    87    86    1
    20   109   107    1
    21   107   108    1
    22    99   100    1
    23   108   110    1
    24    62    61    1
    25    62    63    1
    26    73    72    2
    27   100   102    1
    28   100   101    1
    29    61    55   am
    30    86    83    1
    31    63    70   am
    32    63    64    2
    33    70    71    1
    34    72    82   am
    35    72    71    1
    36    83    82    1
    37    83    84    1
    38    60    58    1
    39    94    93    1
    40    94    88    1
    41    55    54    1
    42    55    56    2
    43    71    74    1
    44    93    92    1
    45    74    75    1
    46    84    88   am
    47    84    85    2
    48    54    57    1
    49    54    53    1
    50    88    89    1
    51    77    75   ar
    52    77    79   ar
    53    57    58    1
    54    58    59    1
    55    90    89    1
    56    90    91    2
    57    75    76   ar
    58    79    80   ar
    59    89    92    1
    60    76    78   ar
    61    80    78   ar
    62    80    81    1
    63    33    34    1
    64    46    45    1
    65    37    34    1
    66    36    35    2
    67    34    35    1
    68    45    44    1
    69    44    43    1
    70    42    43    1
    71    42    39    1
    72    32    30    1
    73    38    39    1
    74    23    22    1
    75    39    40    1
    76    31    30    1
    77    24    22    1
    78    30    29    1
    79    41    40    2
    80    29    26    1
    81    22    19    1
    82    26    27    1
    83    26    25    1
    84    27    28    2
    85    16    14    1
    86    17    15    1
    87    15    14    1
    88    14    11    1
    89    19    20    1
    90    19    18    1
    91    20    21    2
    92     9     7   ar
    93     8     7   ar
    94     7     6    1
    95    11    10    1
    96    11    12    1
    97     4     3    2
    98    12    13    2
    99     1     2    1
   100     6     5    1
   101     3     2    1
   102     5     2    1
