@<TRIPOS>MOLECULE
tmp/4d2yB03.pdb
 154 153 0 0 0
SMALL
GASTEIGER

@<TRIPOS>ATOM
      1  N         17.9770   12.3160   47.4970 N.3    38  MET38      -0.1230
      2  CA        17.8040   11.7650   48.8500 C.3    38  MET38       0.1702
      3  C         17.4370   12.8160   49.9090 C.2    38  MET38       0.2592
      4  O         16.4990   12.6130   50.6800 O.2    38  MET38      -0.2718
      5  CB        19.0390   10.9760   49.2850 C.3    38  MET38       0.0401
      6  CG        19.3500    9.8110   48.3660 C.3    38  MET38       0.0596
      7  SD        20.0320    8.4070   49.2630 S.3    38  MET38      -0.1393
      8  CE        18.6380    8.0250   50.2930 C.3    38  MET38       0.0692
      9  N         18.1720   13.9290   49.9400 N.am   39  LEU39      -0.1980
     10  CA        17.8170   15.0670   50.8010 C.3    39  LEU39       0.1596
     11  C         17.8910   16.4140   50.0620 C.2    39  LEU39       0.2287
     12  O         18.9330   17.0730   50.0670 O.2    39  LEU39      -0.2864
     13  CB        18.6750   15.1020   52.0760 C.3    39  LEU39       0.0297
     14  CG        19.7940   14.0770   52.2790 C.3    39  LEU39       0.0022
     15  CD1       21.1360   14.6110   51.8060 C.3    39  LEU39       0.0001
     16  CD2       19.8890   13.6450   53.7270 C.3    39  LEU39       0.0001
     17  N          7.5250    5.5770   53.8680 N.3   108  CYS108     -0.1235
     18  CA         7.3080    4.3300   54.6140 C.3   108  CYS108      0.1677
     19  C          6.2230    3.4560   54.0180 C.2   108  CYS108      0.2270
     20  O          5.0740    3.8710   53.8960 O.2   108  CYS108     -0.2867
     21  CB         6.9600    4.6100   56.0830 C.3   108  CYS108      0.0956
     22  SG         6.5510    3.0970   56.9940 S.3   108  CYS108     -0.0801
     23  N         22.2470    5.8450   64.5030 N.3   170  SER170     -0.1202
     24  CA        21.2790    6.0270   63.4180 C.3   170  SER170      0.2020
     25  C         20.1040    5.0600   63.6070 C.2   170  SER170      0.2618
     26  O         18.9620    5.3620   63.2670 O.2   170  SER170     -0.2717
     27  CB        21.9500    5.7820   62.0720 C.3   170  SER170      0.2103
     28  OG        22.5540    4.5100   62.0380 O.3   170  SER170     -0.2182
     29  N         20.4130    3.8820   64.1440 N.am  171  GLN171     -0.1979
     30  CA        19.4200    2.9050   64.5510 C.3   171  GLN171      0.1601
     31  C         19.8030    2.4060   65.9470 C.2   171  GLN171      0.2287
     32  O         20.9820    2.3660   66.2730 O.2   171  GLN171     -0.2864
     33  CB        19.4080    1.7140   63.5780 C.3   171  GLN171      0.0394
     34  CG        19.0040    2.0080   62.1440 C.3   171  GLN171      0.0908
     35  CD        19.1340    0.7670   61.2720 C.2   171  GLN171      0.2608
     36  OE1       18.7350   -0.3340   61.6750 O.2   171  GLN171     -0.2717
     37  NE2       19.7190    0.9300   60.0930 N.am  171  GLN171     -0.0878
     38  N         14.1200   -3.4100   63.7060 N.3   258  PRO258     -0.2102
     39  CA        14.5960   -2.2400   62.9650 C.3   258  PRO258      0.1504
     40  C         14.0710   -0.9740   63.6270 C.2   258  PRO258      0.2576
     41  O         12.8560   -0.7570   63.6900 O.2   258  PRO258     -0.2718
     42  CB        13.9480   -2.4100   61.5780 C.3   258  PRO258      0.0282
     43  CG        12.6560   -3.1600   61.8410 C.3   258  PRO258      0.0208
     44  CD        12.8560   -3.9470   63.1600 C.3   258  PRO258      0.0893
     45  N         14.9720   -0.1430   64.1280 N.am  259  ALA259     -0.1966
     46  CA        14.5410    0.9790   64.9510 C.3   259  ALA259      0.1728
     47  C         15.2930    2.2360   64.5800 C.2   259  ALA259      0.2616
     48  O         16.4630    2.3750   64.9090 O.2   259  ALA259     -0.2715
     49  CB        14.7260    0.6620   66.4300 C.3   259  ALA259      0.0334
     50  N         14.6140    3.1650   63.9170 N.am  260  VAL260     -0.1977
     51  CA        15.2660    4.3980   63.4770 C.3   260  VAL260      0.1596
     52  C         15.3540    5.3660   64.6480 C.2   260  VAL260      0.2287
     53  O         14.3510    5.6190   65.3010 O.2   260  VAL260     -0.2864
     54  CB        14.4730    5.0510   62.3580 C.3   260  VAL260      0.0276
     55  CG1       15.0300    6.4560   62.0520 C.3   260  VAL260      0.0022
     56  CG2       14.4820    4.1440   61.1080 C.3   260  VAL260      0.0022
     57  N         17.4840    8.4760   64.6070 N.3   262  ASN262     -0.1225
     58  CA        18.1390    9.7450   64.3060 C.3   262  ASN262      0.1785
     59  C         17.2390   10.7780   63.6290 C.2   262  ASN262      0.2597
     60  O         17.7090   11.8200   63.1780 O.2   262  ASN262     -0.2718
     61  CB        19.4220    9.5410   63.4860 C.3   262  ASN262      0.1169
     62  CG        19.1690    8.8740   62.1410 C.2   262  ASN262      0.2627
     63  OD1       18.0450    8.4680   61.8240 O.2   262  ASN262     -0.2716
     64  ND2       20.2270    8.7610   61.3350 N.am  262  ASN262     -0.0877
     65  N         15.9450   10.5050   63.5630 N.am  263  MET263     -0.1979
     66  CA        15.0650   11.4700   62.9380 C.3   263  MET263      0.1605
     67  C         14.4940   12.4700   63.9220 C.2   263  MET263      0.2287
     68  O         14.5380   12.2670   65.1340 O.2   263  MET263     -0.2864
     69  CB        13.9790   10.7760   62.1260 C.3   263  MET263      0.0413
     70  CG        14.5760    9.9510   60.9740 C.3   263  MET263      0.0598
     71  SD        13.3070    9.3200   59.8780 S.3   263  MET263     -0.1393
     72  CE        13.1120   10.7440   58.7870 C.3   263  MET263      0.0692
     73  N         11.9310    5.1860   66.8190 N.3   277  PHE277     -0.1227
     74  CA        10.7590    4.3970   66.5250 C.3   277  PHE277      0.1736
     75  C         11.1720    3.0760   65.8790 C.2   277  PHE277      0.2596
     76  O         12.2590    2.9570   65.3240 O.2   277  PHE277     -0.2718
     77  CB         9.7770    5.1920   65.6590 C.3   277  PHE277      0.0547
     78  CG        10.3320    5.6010   64.3110 C.ar  277  PHE277     -0.0202
     79  CD1       10.3920    4.6930   63.2540 C.ar  277  PHE277     -0.0042
     80  CD2       10.7730    6.9020   64.1000 C.ar  277  PHE277     -0.0042
     81  CE1       10.8980    5.0830   61.9960 C.ar  277  PHE277     -0.0003
     82  CE2       11.2750    7.2980   62.8670 C.ar  277  PHE277     -0.0003
     83  CZ        11.3340    6.3840   61.8030 C.ar  277  PHE277     -0.0000
     84  N         10.3040    2.0830   65.9710 N.am  278  SER278     -0.1938
     85  CA        10.6350    0.7640   65.4600 C.3   278  SER278      0.2055
     86  C          9.3890    0.1060   64.9110 C.2   278  SER278      0.2644
     87  O          8.2890    0.3340   65.3990 O.2   278  SER278     -0.2714
     88  CB        11.2760   -0.1090   66.5580 C.3   278  SER278      0.2130
     89  OG        10.3860   -0.2650   67.6370 O.3   278  SER278     -0.2179
     90  N          9.5610   -0.6820   63.8570 N.am  279  GLY279     -0.1939
     91  CA         8.4830   -1.5060   63.3570 C.3   279  GLY279      0.2014
     92  C          9.0120   -2.9180   63.2610 C.2   279  GLY279      0.2639
     93  O          9.5410   -3.4720   64.2320 O.2   279  GLY279     -0.2714
     94  N          8.8740   -3.5060   62.0840 N.am  280  TRP280     -0.1959
     95  CA         9.4980   -4.7860   61.8200 C.3   280  TRP280      0.1771
     96  C         10.0170   -4.7360   60.3950 C.2   280  TRP280      0.2619
     97  O          9.6680   -3.8300   59.6470 O.2   280  TRP280     -0.2715
     98  CB         8.5260   -5.9470   62.0250 C.3   280  TRP280      0.0590
     99  CG         7.2140   -5.8120   61.3110 C.ar  280  TRP280      0.0006
    100  CD1        6.9660   -6.0470   59.9820 C.ar  280  TRP280      0.0946
    101  CD2        5.9580   -5.4570   61.9030 C.ar  280  TRP280      0.0152
    102  NE1        5.6330   -5.8330   59.7140 N.ar  280  TRP280     -0.2442
    103  CE2        4.9940   -5.4750   60.8710 C.ar  280  TRP280      0.0810
    104  CE3        5.5540   -5.1220   63.2010 C.ar  280  TRP280      0.0012
    105  CZ2        3.6470   -5.1650   61.1090 C.ar  280  TRP280      0.0191
    106  CZ3        4.2250   -4.8150   63.4360 C.ar  280  TRP280      0.0001
    107  CH2        3.2820   -4.8500   62.3970 C.ar  280  TRP280      0.0015
    108  N         10.8530   -5.6920   60.0200 N.am  281  TYR281     -0.1974
    109  CA        11.5430   -5.5860   58.7450 C.3   281  TYR281      0.1639
    110  C         10.6860   -6.0380   57.5870 C.2   281  TYR281      0.2290
    111  O          9.9120   -6.9920   57.7120 O.2   281  TYR281     -0.2864
    112  CB        12.7990   -6.4460   58.7570 C.3   281  TYR281      0.0560
    113  CG        14.0580   -5.7140   59.1370 C.ar  281  TYR281     -0.0198
    114  CD1       14.5960   -4.7370   58.3050 C.ar  281  TYR281     -0.0009
    115  CD2       14.7210   -6.0140   60.3230 C.ar  281  TYR281     -0.0009
    116  CE1       15.7620   -4.0780   58.6450 C.ar  281  TYR281      0.0417
    117  CE2       15.8830   -5.3670   60.6660 C.ar  281  TYR281      0.0417
    118  CZ        16.4010   -4.4040   59.8320 C.ar  281  TYR281      0.1957
    119  OH        17.5630   -3.7570   60.1820 O.3   281  TYR281     -0.2866
    120  N         14.9550   -5.0940   52.9640 N.3   285  GLU285     -0.1245
    121  CA        15.8420   -4.1790   53.6860 C.3   285  GLU285      0.1567
    122  C         17.1390   -4.8920   54.0720 C.2   285  GLU285      0.2260
    123  O         18.2350   -4.3570   53.9120 O.2   285  GLU285     -0.2867
    124  CB        15.1710   -3.6050   54.9420 C.3   285  GLU285      0.0388
    125  CG        13.8690   -2.8480   54.6990 C.3   285  GLU285      0.1160
    126  CD        13.3380   -2.1680   55.9760 C.2   285  GLU285      0.3649
    127  OE1       14.0240   -1.2300   56.4550 O.co2 285  GLU285     -0.2457
    128  OE2       12.2530   -2.5740   56.5020 O.co2 285  GLU285     -0.2457
    129  N         11.0110    5.4800   46.8410 N.3   371  TRP371     -0.1241
    130  CA        11.2900    4.7390   48.0640 C.3   371  TRP371      0.1605
    131  C         10.2960    3.6240   48.3310 C.2   371  TRP371      0.2264
    132  O         10.6280    2.6250   48.9670 O.2   371  TRP371     -0.2867
    133  CB        11.2790    5.7170   49.2540 C.3   371  TRP371      0.0550
    134  CG        12.5860    6.4200   49.4570 C.ar  371  TRP371      0.0003
    135  CD1       13.2140    7.2810   48.5980 C.ar  371  TRP371      0.0946
    136  CD2       13.4260    6.3190   50.6150 C.ar  371  TRP371      0.0152
    137  NE1       14.3930    7.7160   49.1560 N.ar  371  TRP371     -0.2442
    138  CE2       14.5440    7.1420   50.3880 C.ar  371  TRP371      0.0810
    139  CE3       13.3250    5.6250   51.8200 C.ar  371  TRP371      0.0012
    140  CZ2       15.5640    7.2780   51.3360 C.ar  371  TRP371      0.0191
    141  CZ3       14.3380    5.7610   52.7550 C.ar  371  TRP371      0.0001
    142  CH2       15.4410    6.5810   52.5070 C.ar  371  TRP371      0.0015
    143  N         14.6650   14.5420   58.4930 N.3   399  TYR399     -0.1241
    144  CA        16.0670   14.2650   58.7410 C.3   399  TYR399      0.1605
    145  C         16.6230   15.4240   59.5540 C.2   399  TYR399      0.2264
    146  O         16.0830   16.5270   59.5260 O.2   399  TYR399     -0.2867
    147  CB        16.8420   14.1660   57.4310 C.3   399  TYR399      0.0534
    148  CG        16.4800   12.9720   56.6040 C.ar  399  TYR399     -0.0201
    149  CD1       16.3840   11.7040   57.1750 C.ar  399  TYR399     -0.0009
    150  CD2       16.2420   13.1040   55.2450 C.ar  399  TYR399     -0.0009
    151  CE1       16.0470   10.6010   56.4070 C.ar  399  TYR399      0.0417
    152  CE2       15.9090   12.0100   54.4680 C.ar  399  TYR399      0.0417
    153  CZ        15.8120   10.7630   55.0540 C.ar  399  TYR399      0.1957
    154  OH        15.4810    9.6750   54.2770 O.3   399  TYR399     -0.2866
@<TRIPOS>BOND
     1   129   130    1
     2     1     2    1
     3   130   131    1
     4   130   133    1
     5   131   132    2
     6     6     7    1
     7     6     5    1
     8   135   137   ar
     9   135   134   ar
    10     2     5    1
    11     2     3    1
    12   137   138   ar
    13   133   134    1
    14     7     8    1
    15   134   136   ar
    16     3     9   am
    17     3     4    2
    18     9    10    1
    19    11    12    2
    20    11    10    1
    21   138   136   ar
    22   138   140   ar
    23   136   139   ar
    24    10    13    1
    25   140   142   ar
    26    15    14    1
    27   139   141   ar
    28    13    14    1
    29    14    16    1
    30   142   141   ar
    31   120   121    1
    32   121   122    1
    33   121   124    1
    34    17    18    1
    35    20    19    2
    36   123   122    2
    37    19    18    1
    38   154   153    1
    39   152   153   ar
    40   152   150   ar
    41    18    21    1
    42   125   124    1
    43   125   126    1
    44   153   151   ar
    45   150   148   ar
    46   126   127   ar
    47   126   128   ar
    48    21    22    1
    49   151   149   ar
    50   148   149   ar
    51   148   147    1
    52   147   144    1
    53   110   111    2
    54   110   109    1
    55   114   116   ar
    56   114   113   ar
    57   143   144    1
    58   116   118   ar
    59   144   145    1
    60   109   112    1
    61   109   108    1
    62   112   113    1
    63    72    71    1
    64   113   115   ar
    65   146   145    2
    66    97    96    2
    67   102   100   ar
    68   102   103   ar
    69   118   119    1
    70   118   117   ar
    71    71    70    1
    72   100    99   ar
    73   108    96   am
    74    37    35   am
    75   115   117   ar
    76    96    95    1
    77   103   105   ar
    78   103   101   ar
    79    70    69    1
    80    56    54    1
    81   105   107   ar
    82    35    36    2
    83    35    34    1
    84    99   101   ar
    85    99    98    1
    86    64    62   am
    87    42    43    1
    88    42    39    1
    89    83    81   ar
    90    83    82   ar
    91    95    98    1
    92    95    94    1
    93    63    62    2
    94    43    44    1
    95   101   104   ar
    96    81    79   ar
    97    28    27    1
    98    55    54    1
    99    27    24    1
   100    94    92   am
   101    69    66    1
   102    62    61    1
   103    34    33    1
   104    54    51    1
   105   107   106   ar
   106    82    80   ar
   107    66    65    1
   108    66    67    1
   109    39    40    1
   110    39    38    1
   111    44    38    1
   112    60    59    2
   113   104   106   ar
   114    79    78   ar
   115    92    91    1
   116    92    93    2
   117    26    25    2
   118    91    90    1
   119    24    25    1
   120    24    23    1
   121    51    50    1
   122    51    52    1
   123    61    58    1
   124    65    59   am
   125    33    30    1
   126    25    29   am
   127    40    41    2
   128    40    45   am
   129    59    58    1
   130    90    86   am
   131    50    47   am
   132    67    68    2
   133    80    78   ar
   134    45    46    1
   135    29    30    1
   136    58    57    1
   137    78    77    1
   138    30    31    1
   139    47    48    2
   140    47    46    1
   141    52    53    2
   142    86    87    2
   143    86    85    1
   144    46    49    1
   145    76    75    2
   146    85    84    1
   147    85    88    1
   148    77    74    1
   149    75    84   am
   150    75    74    1
   151    31    32    2
   152    74    73    1
   153    88    89    1
