@<TRIPOS>MOLECULE
tmp/4d30A02.pdb
 148 147 0 0 0
SMALL
GASTEIGER

@<TRIPOS>ATOM
      1  N          2.8020    8.9810   34.7270 N.3    38  MET38      -0.1230
      2  CA         3.2090    8.6020   33.3610 C.3    38  MET38       0.1702
      3  C          3.1440    9.7810   32.3750 C.2    38  MET38       0.2592
      4  O          4.1140   10.0480   31.6550 O.2    38  MET38      -0.2718
      5  CB         2.3700    7.4370   32.8220 C.3    38  MET38       0.0401
      6  CG         2.5260    6.1390   33.6000 C.3    38  MET38       0.0596
      7  SD         2.8300    4.6870   32.5650 S.3    38  MET38      -0.1393
      8  CE         4.5360    4.9750   32.1890 C.3    38  MET38       0.0692
      9  N          2.0070   10.4830   32.3620 N.am   39  LEU39      -0.1980
     10  CA         1.7770   11.6170   31.4610 C.3    39  LEU39       0.1596
     11  C          1.4140   12.8930   32.2350 C.2    39  LEU39       0.2287
     12  O          0.2350   13.1780   32.4290 O.2    39  LEU39      -0.2864
     13  CB         0.6310   11.2750   30.5080 C.3    39  LEU39       0.0297
     14  CG         0.5430    9.8270   29.9980 C.3    39  LEU39       0.0022
     15  CD1       -0.8770    9.4560   29.5290 C.3    39  LEU39       0.0001
     16  CD2        1.5600    9.5680   28.8920 C.3    39  LEU39       0.0001
     17  N         15.2590    7.4790   28.5600 N.3   106  CYS106     -0.1235
     18  CA        15.9320    6.4600   27.7520 C.3   106  CYS106      0.1677
     19  C         17.2840    6.1010   28.3510 C.2   106  CYS106      0.2270
     20  O         18.1690    6.9530   28.4650 O.2   106  CYS106     -0.2867
     21  CB        16.1330    6.9470   26.3140 C.3   106  CYS106      0.0956
     22  SG        17.0820    5.7670   25.3020 S.3   106  CYS106     -0.0801
     23  N          4.3670    0.6260   18.1660 N.3   169  GLN169     -0.1245
     24  CA         5.6750    0.1340   17.7530 C.3   169  GLN169      0.1566
     25  C          5.5390   -0.4310   16.3510 C.2   169  GLN169      0.2260
     26  O          4.4730   -0.9470   16.0020 O.2   169  GLN169     -0.2867
     27  CB         6.1580   -0.9770   18.6870 C.3   169  GLN169      0.0367
     28  CG         6.4930   -0.5710   20.1060 C.3   169  GLN169      0.0905
     29  CD         6.8860   -1.7830   20.9400 C.2   169  GLN169      0.2608
     30  OE1        7.6790   -2.6250   20.4990 O.2   169  GLN169     -0.2717
     31  NE2        6.3210   -1.8900   22.1360 N.am  169  GLN169     -0.0878
     32  N         13.2660   -3.2250   18.4650 N.3   256  PRO256     -0.2102
     33  CA        12.3630   -2.4010   19.2700 C.3   256  PRO256      0.1504
     34  C         12.2090   -1.0070   18.6500 C.2   256  PRO256      0.2576
     35  O         13.1540   -0.2100   18.6020 O.2   256  PRO256     -0.2718
     36  CB        13.0670   -2.3440   20.6290 C.3   256  PRO256      0.0282
     37  CG        14.5250   -2.3870   20.2930 C.3   256  PRO256      0.0208
     38  CD        14.6500   -3.1860   18.9740 C.3   256  PRO256      0.0893
     39  N         11.0130   -0.7130   18.1610 N.am  257  ALA257     -0.1966
     40  CA        10.8430    0.4770   17.3350 C.3   257  ALA257      0.1728
     41  C          9.6220    1.2850   17.7430 C.2   257  ALA257      0.2616
     42  O          8.4950    0.8950   17.4590 O.2   257  ALA257     -0.2715
     43  CB        10.7490    0.0820   15.8860 C.3   257  ALA257      0.0334
     44  N          9.8520    2.4140   18.3980 N.am  258  VAL258     -0.1977
     45  CA         8.7630    3.2510   18.8680 C.3   258  VAL258      0.1596
     46  C          8.2170    4.0880   17.7270 C.2   258  VAL258      0.2287
     47  O          8.9660    4.8320   17.0870 O.2   258  VAL258     -0.2864
     48  CB         9.2390    4.1550   19.9980 C.3   258  VAL258      0.0276
     49  CG1        8.2200    5.2620   20.2740 C.3   258  VAL258      0.0022
     50  CG2        9.4860    3.3240   21.2530 C.3   258  VAL258      0.0022
     51  N          4.9580    5.9620   17.9030 N.3   260  ASN260     -0.1225
     52  CA         3.8460    6.8560   18.2460 C.3   260  ASN260      0.1785
     53  C          4.2160    8.2030   18.8510 C.2   260  ASN260      0.2597
     54  O          3.3510    8.9090   19.3430 O.2   260  ASN260     -0.2718
     55  CB         2.8300    6.1620   19.1620 C.3   260  ASN260      0.1169
     56  CG         3.4110    5.7760   20.5110 C.2   260  ASN260      0.2627
     57  OD1        4.5760    6.0340   20.8070 O.2   260  ASN260     -0.2716
     58  ND2        2.5900    5.1460   21.3390 N.am  260  ASN260     -0.0877
     59  N          5.4850    8.5780   18.7990 N.am  261  MET261     -0.1979
     60  CA         5.8890    9.8080   19.4530 C.3   261  MET261      0.1605
     61  C          5.9930   10.9700   18.4910 C.2   261  MET261      0.2287
     62  O          5.9560   10.7870   17.2770 O.2   261  MET261     -0.2864
     63  CB         7.1720    9.6000   20.2480 C.3   261  MET261      0.0413
     64  CG         6.9060    8.7360   21.4640 C.3   261  MET261      0.0598
     65  SD         8.2570    8.5590   22.6370 S.3   261  MET261     -0.1393
     66  CE         8.2000   10.1080   23.5680 C.3   261  MET261      0.0692
     67  N         11.3830    5.4720   15.4700 N.3   275  PHE275     -0.1227
     68  CA        12.7960    5.2330   15.7750 C.3   275  PHE275      0.1736
     69  C         12.9850    3.8720   16.4350 C.2   275  PHE275      0.2596
     70  O         12.0490    3.3090   17.0090 O.2   275  PHE275     -0.2718
     71  CB        13.3690    6.3310   16.6700 C.3   275  PHE275      0.0547
     72  CG        12.6940    6.4590   18.0200 C.ar  275  PHE275     -0.0202
     73  CD1       13.1070    5.6940   19.1000 C.ar  275  PHE275     -0.0042
     74  CD2       11.7020    7.3950   18.2250 C.ar  275  PHE275     -0.0042
     75  CE1       12.5150    5.8420   20.3520 C.ar  275  PHE275     -0.0003
     76  CE2       11.1030    7.5450   19.4770 C.ar  275  PHE275     -0.0003
     77  CZ        11.5090    6.7700   20.5360 C.ar  275  PHE275     -0.0000
     78  N         14.2000    3.3450   16.3490 N.am  276  SER276     -0.1938
     79  CA        14.4900    2.0360   16.9020 C.3   276  SER276      0.2055
     80  C         15.9070    2.0110   17.4180 C.2   276  SER276      0.2644
     81  O         16.7500    2.7570   16.9300 O.2   276  SER276     -0.2714
     82  CB        14.3220    0.9550   15.8320 C.3   276  SER276      0.2130
     83  OG        15.2470    1.1760   14.7740 O.3   276  SER276     -0.2179
     84  N         16.1550    1.1520   18.4080 N.am  277  GLY277     -0.1939
     85  CA        17.4980    0.8650   18.8920 C.3   277  GLY277      0.2014
     86  C         17.6730   -0.6440   19.0040 C.2   277  GLY277      0.2639
     87  O         17.5560   -1.3590   18.0170 O.2   277  GLY277     -0.2714
     88  N         17.9570   -1.1230   20.2090 N.am  278  TRP278     -0.1959
     89  CA        17.9920   -2.5610   20.4960 C.3   278  TRP278      0.1771
     90  C         17.5340   -2.7790   21.9300 C.2   278  TRP278      0.2619
     91  O         17.6410   -1.8860   22.7690 O.2   278  TRP278     -0.2715
     92  CB        19.3870   -3.1660   20.2660 C.3   278  TRP278      0.0590
     93  CG        20.4760   -2.4400   20.9520 C.ar  278  TRP278      0.0006
     94  CD1       20.7740   -2.4720   22.2890 C.ar  278  TRP278      0.0946
     95  CD2       21.4280   -1.5650   20.3460 C.ar  278  TRP278      0.0152
     96  NE1       21.8500   -1.6580   22.5460 N.ar  278  TRP278     -0.2442
     97  CE2       22.2750   -1.0950   21.3690 C.ar  278  TRP278      0.0810
     98  CE3       21.6530   -1.1390   19.0310 C.ar  278  TRP278      0.0012
     99  CZ2       23.3320   -0.2180   21.1210 C.ar  278  TRP278      0.0191
    100  CZ3       22.6970   -0.2660   18.7840 C.ar  278  TRP278      0.0001
    101  CH2       23.5270    0.1850   19.8270 C.ar  278  TRP278      0.0015
    102  N         17.0240   -3.9680   22.2150 N.am  279  TYR279     -0.1974
    103  CA        16.3530   -4.2120   23.4840 C.3   279  TYR279      0.1639
    104  C         17.3080   -4.2860   24.6680 C.2   279  TYR279      0.2290
    105  O         18.4310   -4.7590   24.5390 O.2   279  TYR279     -0.2864
    106  CB        15.5940   -5.5330   23.4010 C.3   279  TYR279      0.0560
    107  CG        14.1330   -5.4090   23.0500 C.ar  279  TYR279     -0.0198
    108  CD1       13.2530   -4.7310   23.8850 C.ar  279  TYR279     -0.0009
    109  CD2       13.6300   -5.9900   21.8930 C.ar  279  TYR279     -0.0009
    110  CE1       11.9080   -4.6410   23.5760 C.ar  279  TYR279      0.0417
    111  CE2       12.2890   -5.9040   21.5710 C.ar  279  TYR279      0.0417
    112  CZ        11.4340   -5.2320   22.4150 C.ar  279  TYR279      0.1957
    113  OH        10.0980   -5.1410   22.0930 O.3   279  TYR279     -0.2866
    114  N         13.0170   -5.3100   29.1970 N.3   283  GLU283     -0.1245
    115  CA        11.8200   -4.8120   28.5090 C.3   283  GLU283      0.1567
    116  C         10.9370   -5.9930   28.0970 C.2   283  GLU283      0.2260
    117  O          9.7040   -5.9490   28.2040 O.2   283  GLU283     -0.2867
    118  CB        12.1750   -3.9820   27.2650 C.3   283  GLU283      0.0388
    119  CG        12.8130   -2.5960   27.5310 C.3   283  GLU283      0.1160
    120  CD        13.2850   -1.8980   26.2360 C.2   283  GLU283      0.3649
    121  OE1       12.4850   -1.1630   25.6080 O.co2 283  GLU283     -0.2457
    122  OE2       14.4600   -2.0810   25.8310 O.co2 283  GLU283     -0.2457
    123  N         12.0190    5.7590   35.4420 N.3   369  TRP369     -0.1241
    124  CA        12.1170    4.9780   34.2070 C.3   369  TRP369      0.1605
    125  C         13.4970    4.3760   33.9320 C.2   369  TRP369      0.2264
    126  O         13.6050    3.3450   33.2630 O.2   369  TRP369     -0.2867
    127  CB        11.7320    5.8410   33.0250 C.3   369  TRP369      0.0550
    128  CG        10.2700    5.8990   32.7540 C.ar  369  TRP369      0.0003
    129  CD1        9.2770    6.3630   33.5890 C.ar  369  TRP369      0.0946
    130  CD2        9.6290    5.5100   31.5360 C.ar  369  TRP369      0.0152
    131  NE1        8.0550    6.2650   32.9480 N.ar  369  TRP369     -0.2442
    132  CE2        8.2520    5.7530   31.6880 C.ar  369  TRP369      0.0810
    133  CE3       10.0930    4.9820   30.3260 C.ar  369  TRP369      0.0012
    134  CZ2        7.3390    5.4910   30.6690 C.ar  369  TRP369      0.0191
    135  CZ3        9.1840    4.7210   29.3180 C.ar  369  TRP369      0.0001
    136  CH2        7.8230    4.9690   29.4970 C.ar  369  TRP369      0.0015
    137  N          5.0360   12.7140   23.9730 N.3   397  TYR397     -0.1241
    138  CA         3.8730   11.8810   23.7150 C.3   397  TYR397      0.1605
    139  C          2.8530   12.6920   22.9030 C.2   397  TYR397      0.2264
    140  O          2.9500   13.9140   22.7940 O.2   397  TYR397     -0.2867
    141  CB         3.2480   11.3840   25.0110 C.3   397  TYR397      0.0534
    142  CG         4.1410   10.4880   25.8400 C.ar  397  TYR397     -0.0201
    143  CD1        4.4620    9.1960   25.4210 C.ar  397  TYR397     -0.0009
    144  CD2        4.6570   10.9310   27.0510 C.ar  397  TYR397     -0.0009
    145  CE1        5.2730    8.3760   26.1930 C.ar  397  TYR397      0.0417
    146  CE2        5.4690   10.1250   27.8220 C.ar  397  TYR397      0.0417
    147  CZ         5.7700    8.8530   27.3970 C.ar  397  TYR397      0.1957
    148  OH         6.5760    8.0740   28.1890 O.3   397  TYR397     -0.2866
@<TRIPOS>BOND
     1    83    82    1
     2    67    68    1
     3    68    69    1
     4    68    71    1
     5    82    79    1
     6    43    40    1
     7    26    25    2
     8    78    69   am
     9    78    79    1
    10    25    24    1
    11    69    70    2
    12    71    72    1
    13    79    80    1
    14    81    80    2
    15    47    46    2
    16    62    61    2
    17    40    41    1
    18    40    39    1
    19    80    84   am
    20    42    41    2
    21    46    45    1
    22    41    44   am
    23    24    23    1
    24    24    27    1
    25    51    52    1
    26    87    86    2
    27    72    74   ar
    28    72    73   ar
    29    39    34   am
    30    74    76   ar
    31    52    53    1
    32    52    55    1
    33    44    45    1
    34    84    85    1
    35    32    38    1
    36    32    33    1
    37    61    60    1
    38    35    34    2
    39    34    33    1
    40    27    28    1
    41   100    98   ar
    42   100   101   ar
    43    59    53   am
    44    59    60    1
    45    53    54    2
    46    45    48    1
    47    85    86    1
    48    38    37    1
    49    86    88   am
    50    98    95   ar
    51    73    75   ar
    52    55    56    1
    53    33    36    1
    54    60    63    1
    55    76    77   ar
    56   101    99   ar
    57    48    49    1
    58    48    50    1
    59    28    29    1
    60    88    89    1
    61    63    64    1
    62    92    89    1
    63    92    93    1
    64    37    36    1
    65    95    93   ar
    66    95    97   ar
    67    75    77   ar
    68    89    90    1
    69    30    29    2
    70    56    57    2
    71    56    58   am
    72    29    31   am
    73    93    94   ar
    74    99    97   ar
    75    97    96   ar
    76    64    65    1
    77   111   109   ar
    78   111   112   ar
    79   109   107   ar
    80    90   102   am
    81    90    91    2
    82   113   112    1
    83   102   103    1
    84    94    96   ar
    85   112   110   ar
    86    65    66    1
    87   140   139    2
    88   139   138    1
    89   107   106    1
    90   107   108   ar
    91   106   103    1
    92   103   104    1
    93   110   108   ar
    94   138   137    1
    95   138   141    1
    96   105   104    2
    97   141   142    1
    98    22    21    1
    99   143   142   ar
   100   143   145   ar
   101   121   120   ar
   102   122   120   ar
   103   142   144   ar
   104   145   147   ar
   105   120   119    1
   106    21    18    1
   107   144   146   ar
   108   118   119    1
   109   118   115    1
   110   147   146   ar
   111   147   148    1
   112    18    19    1
   113    18    17    1
   114   116   117    2
   115   116   115    1
   116    19    20    2
   117   115   114    1
   118    16    14    1
   119   135   136   ar
   120   135   133   ar
   121   136   134   ar
   122    15    14    1
   123    14    13    1
   124   133   130   ar
   125    13    10    1
   126   134   132   ar
   127    10    11    1
   128    10     9    1
   129   130   132   ar
   130   130   128   ar
   131     4     3    2
   132   132   131   ar
   133     8     7    1
   134    11    12    2
   135     9     3   am
   136     3     2    1
   137     7     6    1
   138   128   127    1
   139   128   129   ar
   140     5     2    1
   141     5     6    1
   142   131   129   ar
   143   127   124    1
   144   126   125    2
   145     2     1    1
   146   125   124    1
   147   124   123    1
