@<TRIPOS>MOLECULE
tmp/4d32B03.pdb
 159 158 0 0 0
SMALL
GASTEIGER

@<TRIPOS>ATOM
      1  N         17.7380   12.6550   47.5770 N.3    38  MET38      -0.1230
      2  CA        17.4750   12.1750   48.9420 C.3    38  MET38       0.1702
      3  C         17.2790   13.2780   50.0010 C.2    38  MET38       0.2592
      4  O         16.5040   13.1030   50.9390 O.2    38  MET38      -0.2718
      5  CB        18.5820   11.2240   49.4020 C.3    38  MET38       0.0401
      6  CG        19.0480   10.2320   48.3560 C.3    38  MET38       0.0596
      7  SD        19.8720    8.8490   49.1740 S.3    38  MET38      -0.1393
      8  CE        18.5420    8.2840   50.2300 C.3    38  MET38       0.0692
      9  N         17.9830   14.4000   49.8530 N.am   39  LEU39      -0.1980
     10  CA        17.8420   15.5330   50.7700 C.3    39  LEU39       0.1596
     11  C         17.7120   16.8590   50.0070 C.2    39  LEU39       0.2287
     12  O         18.6900   17.5950   49.8800 O.2    39  LEU39      -0.2864
     13  CB        19.0620   15.6130   51.7040 C.3    39  LEU39       0.0297
     14  CG        19.4670   14.4050   52.5520 C.3    39  LEU39       0.0022
     15  CD1       20.9760   14.3760   52.8240 C.3    39  LEU39       0.0001
     16  CD2       18.6990   14.4030   53.8510 C.3    39  LEU39       0.0001
     17  N          7.5680    8.2380   52.5870 N.3   107  ARG107     -0.1231
     18  CA         8.5380    7.2100   52.2060 C.3   107  ARG107      0.1694
     19  C          8.3100    5.8300   52.8480 C.2   107  ARG107      0.2592
     20  O          8.9970    4.8770   52.5020 O.2   107  ARG107     -0.2718
     21  CB         9.9680    7.6850   52.4960 C.3   107  ARG107      0.0321
     22  CG        10.3420    8.9670   51.7670 C.3   107  ARG107      0.0489
     23  CD        11.8230    9.2900   51.8610 C.3   107  ARG107      0.2205
     24  NE        12.2730   10.1740   50.7790 N.pl3 107  ARG107     -0.0865
     25  CZ        13.4400   10.8250   50.7710 C.cat 107  ARG107      0.5346
     26  NH1       14.2710   10.7110   51.7950 N.pl3 107  ARG107      0.1354
     27  NH2       13.7780   11.5990   49.7430 N.pl3 107  ARG107      0.1354
     28  N          7.3520    5.7240   53.7710 N.am  108  CYS108     -0.1970
     29  CA         7.1430    4.4940   54.5460 C.3   108  CYS108      0.1712
     30  C          6.0630    3.6050   53.9510 C.2   108  CYS108      0.2296
     31  O          4.8730    3.9830   53.8860 O.2   108  CYS108     -0.2864
     32  CB         6.7940    4.8300   56.0010 C.3   108  CYS108      0.0983
     33  SG         6.3200    3.4430   57.0770 S.3   108  CYS108     -0.0798
     34  N         20.3770    3.9010   64.2400 N.3   171  GLN171     -0.1245
     35  CA        19.4300    2.8980   64.7270 C.3   171  GLN171      0.1566
     36  C         19.8330    2.3940   66.1120 C.2   171  GLN171      0.2260
     37  O         21.0150    2.3160   66.4220 O.2   171  GLN171     -0.2867
     38  CB        19.3300    1.7110   63.7670 C.3   171  GLN171      0.0367
     39  CG        18.6370    1.9740   62.4340 C.3   171  GLN171      0.0905
     40  CD        18.8410    0.8110   61.4670 C.2   171  GLN171      0.2608
     41  OE1       18.4410   -0.3280   61.7430 O.2   171  GLN171     -0.2717
     42  NE2       19.4860    1.0880   60.3390 N.am  171  GLN171     -0.0878
     43  N         14.0950   -3.4830   63.8970 N.3   258  PRO258     -0.2102
     44  CA        14.5660   -2.2780   63.2190 C.3   258  PRO258      0.1504
     45  C         14.0300   -1.0780   63.9670 C.2   258  PRO258      0.2576
     46  O         12.8200   -1.0110   64.2810 O.2   258  PRO258     -0.2718
     47  CB        13.9240   -2.3820   61.8360 C.3   258  PRO258      0.0282
     48  CG        12.6040   -3.1160   62.0970 C.3   258  PRO258      0.0208
     49  CD        12.8440   -4.0100   63.3220 C.3   258  PRO258      0.0893
     50  N         14.9090   -0.1350   64.2830 N.am  259  ALA259     -0.1966
     51  CA        14.4730    1.0280   65.0440 C.3   259  ALA259      0.1728
     52  C         15.2950    2.2830   64.7450 C.2   259  ALA259      0.2616
     53  O         16.4670    2.3860   65.1400 O.2   259  ALA259     -0.2715
     54  CB        14.4870    0.7170   66.5110 C.3   259  ALA259      0.0334
     55  N         14.6580    3.2290   64.0590 N.am  260  VAL260     -0.1977
     56  CA        15.2980    4.4650   63.6130 C.3   260  VAL260      0.1596
     57  C         15.2930    5.5110   64.7150 C.2   260  VAL260      0.2287
     58  O         14.2340    5.8680   65.2440 O.2   260  VAL260     -0.2864
     59  CB        14.5880    5.0190   62.3700 C.3   260  VAL260      0.0276
     60  CG1       14.8390    6.5160   62.2110 C.3   260  VAL260      0.0022
     61  CG2       15.0580    4.2670   61.1410 C.3   260  VAL260      0.0022
     62  N         17.5090    8.5780   64.6330 N.3   262  ASN262     -0.1225
     63  CA        18.1310    9.8610   64.3090 C.3   262  ASN262      0.1785
     64  C         17.2090   10.8710   63.6390 C.2   262  ASN262      0.2597
     65  O         17.6790   11.8500   63.0650 O.2   262  ASN262     -0.2718
     66  CB        19.4180    9.6850   63.4810 C.3   262  ASN262      0.1169
     67  CG        19.1730    9.0160   62.1460 C.2   262  ASN262      0.2627
     68  OD1       18.0280    8.7860   61.7360 O.2   262  ASN262     -0.2716
     69  ND2       20.2550    8.7000   61.4530 N.am  262  ASN262     -0.0877
     70  N         15.9000   10.6610   63.7020 N.am  263  MET263     -0.1979
     71  CA        15.0390   11.6350   63.0620 C.3   263  MET263      0.1605
     72  C         14.4880   12.6510   64.0280 C.2   263  MET263      0.2287
     73  O         14.6810   12.5540   65.2390 O.2   263  MET263     -0.2864
     74  CB        13.9500   10.9620   62.2340 C.3   263  MET263      0.0413
     75  CG        14.5330   10.0580   61.1550 C.3   263  MET263      0.0598
     76  SD        13.2590    9.5060   60.0180 S.3   263  MET263     -0.1393
     77  CE        13.1670   10.9500   58.9780 C.3   263  MET263      0.0692
     78  N         12.0240    5.2820   66.9730 N.3   277  PHE277     -0.1227
     79  CA        10.7980    4.4990   66.7290 C.3   277  PHE277      0.1736
     80  C         11.1290    3.1650   66.0540 C.2   277  PHE277      0.2596
     81  O         12.1830    3.0130   65.4430 O.2   277  PHE277     -0.2718
     82  CB         9.7870    5.2890   65.8850 C.3   277  PHE277      0.0547
     83  CG        10.3470    5.7650   64.5620 C.ar  277  PHE277     -0.0202
     84  CD1       11.0060    6.9850   64.4680 C.ar  277  PHE277     -0.0042
     85  CD2       10.2410    4.9810   63.4190 C.ar  277  PHE277     -0.0042
     86  CE1       11.5490    7.4100   63.2540 C.ar  277  PHE277     -0.0003
     87  CE2       10.7650    5.4070   62.1900 C.ar  277  PHE277     -0.0003
     88  CZ        11.4250    6.6240   62.1170 C.ar  277  PHE277     -0.0000
     89  N         10.2170    2.2060   66.1630 N.am  278  SER278     -0.1938
     90  CA        10.5000    0.8430   65.7410 C.3   278  SER278      0.2055
     91  C          9.2460    0.2000   65.1920 C.2   278  SER278      0.2644
     92  O          8.1380    0.4790   65.6470 O.2   278  SER278     -0.2714
     93  CB        11.0280    0.0100   66.9120 C.3   278  SER278      0.2130
     94  OG        10.0160   -0.1320   67.9070 O.3   278  SER278     -0.2179
     95  N          9.4380   -0.6490   64.1910 N.am  279  GLY279     -0.1939
     96  CA         8.3600   -1.3880   63.5770 C.3   279  GLY279      0.2014
     97  C          8.8810   -2.7990   63.4590 C.2   279  GLY279      0.2639
     98  O          9.4170   -3.3370   64.4250 O.2   279  GLY279     -0.2714
     99  N          8.7220   -3.3940   62.2820 N.am  280  TRP280     -0.1959
    100  CA         9.4030   -4.6360   61.9460 C.3   280  TRP280      0.1771
    101  C          9.8900   -4.5760   60.5100 C.2   280  TRP280      0.2619
    102  O          9.3910   -3.7920   59.6990 O.2   280  TRP280     -0.2715
    103  CB         8.5050   -5.8510   62.1270 C.3   280  TRP280      0.0590
    104  CG         7.2080   -5.7130   61.4240 C.ar  280  TRP280      0.0006
    105  CD1        6.9600   -5.9160   60.0900 C.ar  280  TRP280      0.0946
    106  CD2        5.9600   -5.3470   62.0180 C.ar  280  TRP280      0.0152
    107  NE1        5.6250   -5.6930   59.8220 N.ar  280  TRP280     -0.2442
    108  CE2        4.9930   -5.3410   60.9920 C.ar  280  TRP280      0.0810
    109  CE3        5.5640   -5.0280   63.3290 C.ar  280  TRP280      0.0012
    110  CZ2        3.6460   -5.0250   61.2360 C.ar  280  TRP280      0.0191
    111  CZ3        4.2340   -4.7090   63.5690 C.ar  280  TRP280      0.0001
    112  CH2        3.2900   -4.7170   62.5250 C.ar  280  TRP280      0.0015
    113  N         10.8480   -5.4430   60.2090 N.am  281  TYR281     -0.1974
    114  CA        11.5770   -5.3960   58.9600 C.3   281  TYR281      0.1639
    115  C         10.7600   -5.9530   57.8230 C.2   281  TYR281      0.2290
    116  O         10.1140   -6.9950   57.9680 O.2   281  TYR281     -0.2864
    117  CB        12.8300   -6.2550   59.0960 C.3   281  TYR281      0.0560
    118  CG        14.1220   -5.5330   59.4230 C.ar  281  TYR281     -0.0198
    119  CD1       14.5460   -4.4360   58.6880 C.ar  281  TYR281     -0.0009
    120  CD2       14.9510   -5.9950   60.4370 C.ar  281  TYR281     -0.0009
    121  CE1       15.7560   -3.8000   58.9850 C.ar  281  TYR281      0.0417
    122  CE2       16.1590   -5.3820   60.7210 C.ar  281  TYR281      0.0417
    123  CZ        16.5530   -4.2920   59.9980 C.ar  281  TYR281      0.1957
    124  OH        17.7490   -3.6870   60.2990 O.3   281  TYR281     -0.2866
    125  N         14.9770   -4.9460   53.1300 N.3   285  GLU285     -0.1245
    126  CA        15.8460   -4.0330   53.8820 C.3   285  GLU285      0.1567
    127  C         17.1380   -4.7670   54.2950 C.2   285  GLU285      0.2260
    128  O         18.2440   -4.2490   54.1490 O.2   285  GLU285     -0.2867
    129  CB        15.1350   -3.4410   55.1150 C.3   285  GLU285      0.0388
    130  CG        13.9350   -2.4680   54.8200 C.3   285  GLU285      0.1160
    131  CD        13.1960   -1.9640   56.1090 C.2   285  GLU285      0.3649
    132  OE1       12.3110   -2.6780   56.6480 O.co2 285  GLU285     -0.2457
    133  OE2       13.4770   -0.8360   56.5800 O.co2 285  GLU285     -0.2457
    134  N         10.9290    5.6960   46.8500 N.3   371  TRP371     -0.1241
    135  CA        11.1710    5.0090   48.1110 C.3   371  TRP371      0.1605
    136  C         10.2050    3.8300   48.3580 C.2   371  TRP371      0.2264
    137  O         10.6150    2.7890   48.8870 O.2   371  TRP371     -0.2867
    138  CB        11.1380    6.0210   49.2840 C.3   371  TRP371      0.0550
    139  CG        12.4540    6.7450   49.5080 C.ar  371  TRP371      0.0003
    140  CD1       13.0770    7.6360   48.6590 C.ar  371  TRP371      0.0946
    141  CD2       13.3040    6.6280   50.6540 C.ar  371  TRP371      0.0152
    142  NE1       14.2620    8.0640   49.2120 N.ar  371  TRP371     -0.2442
    143  CE2       14.4190    7.4660   50.4380 C.ar  371  TRP371      0.0810
    144  CE3       13.2250    5.9020   51.8460 C.ar  371  TRP371      0.0012
    145  CZ2       15.4410    7.5910   51.3670 C.ar  371  TRP371      0.0191
    146  CZ3       14.2420    6.0270   52.7640 C.ar  371  TRP371      0.0001
    147  CH2       15.3380    6.8640   52.5200 C.ar  371  TRP371      0.0015
    148  N         14.6630   14.7840   58.6650 N.3   399  TYR399     -0.1241
    149  CA        16.0670   14.4940   58.9060 C.3   399  TYR399      0.1605
    150  C         16.6530   15.5940   59.7760 C.2   399  TYR399      0.2264
    151  O         16.0740   16.6750   59.9030 O.2   399  TYR399     -0.2867
    152  CB        16.8350   14.4270   57.5920 C.3   399  TYR399      0.0534
    153  CG        16.4430   13.2560   56.7510 C.ar  399  TYR399     -0.0201
    154  CD1       16.6200   11.9620   57.2190 C.ar  399  TYR399     -0.0009
    155  CD2       15.8770   13.4370   55.4990 C.ar  399  TYR399     -0.0009
    156  CE1       16.2610   10.8820   56.4600 C.ar  399  TYR399      0.0417
    157  CE2       15.5200   12.3630   54.7260 C.ar  399  TYR399      0.0417
    158  CZ        15.7130   11.0860   55.2110 C.ar  399  TYR399      0.1957
    159  OH        15.3570   10.0050   54.4430 O.3   399  TYR399     -0.2866
@<TRIPOS>BOND
     1   134   135    1
     2     1     2    1
     3   135   136    1
     4   135   138    1
     5     6     7    1
     6     6     5    1
     7   136   137    2
     8   140   142   ar
     9   140   139   ar
    10     2     5    1
    11     2     3    1
    12     7     8    1
    13   142   143   ar
    14   138   139    1
    15   139   141   ar
    16    27    25    1
    17     9     3   am
    18     9    10    1
    19    12    11    2
    20     3     4    2
    21    11    10    1
    22   143   141   ar
    23   143   145   ar
    24   141   144   ar
    25    10    13    1
    26    25    24    2
    27    25    26    1
    28    24    23    1
    29   145   147   ar
    30    13    14    1
    31    22    23    1
    32    22    21    1
    33   144   146   ar
    34    18    21    1
    35    18    17    1
    36    18    19    1
    37    20    19    2
    38   147   146   ar
    39    14    15    1
    40    14    16    1
    41    19    28   am
    42   125   126    1
    43    28    29    1
    44   126   127    1
    45   126   129    1
    46    31    30    2
    47    30    29    1
    48   128   127    2
    49   159   158    1
    50    29    32    1
    51   157   158   ar
    52   157   155   ar
    53   130   129    1
    54   130   131    1
    55   158   156   ar
    56   155   153   ar
    57    32    33    1
    58   131   133   ar
    59   131   132   ar
    60   156   154   ar
    61   153   154   ar
    62   153   152    1
    63   152   149    1
    64   115   116    2
    65   115   114    1
    66   148   149    1
    67   119   121   ar
    68   119   118   ar
    69   149   150    1
    70   114   117    1
    71   114   113    1
    72    77    76    1
    73   121   123   ar
    74   117   118    1
    75   118   120   ar
    76   102   101    2
    77   150   151    2
    78   107   105   ar
    79   107   108   ar
    80   123   124    1
    81   123   122   ar
    82    76    75    1
    83   105   104   ar
    84   113   101   am
    85    42    40   am
    86   120   122   ar
    87   101   100    1
    88   108   110   ar
    89   108   106   ar
    90    61    59    1
    91    75    74    1
    92   110   112   ar
    93   104   106   ar
    94   104   103    1
    95    69    67   am
    96    40    41    2
    97    40    39    1
    98    68    67    2
    99    47    48    1
   100    47    44    1
   101   100   103    1
   102   100    99    1
   103   106   109   ar
   104    48    49    1
   105    88    87   ar
   106    88    86   ar
   107    67    66    1
   108    87    85   ar
   109    60    59    1
   110    74    71    1
   111    99    97   am
   112    59    56    1
   113    39    38    1
   114   112   111   ar
   115    71    70    1
   116    71    72    1
   117    65    64    2
   118    44    43    1
   119    44    45    1
   120    86    84   ar
   121    49    43    1
   122   109   111   ar
   123    85    83   ar
   124    97    96    1
   125    97    98    2
   126    66    63    1
   127    96    95    1
   128    56    55    1
   129    56    57    1
   130    64    70   am
   131    64    63    1
   132    38    35    1
   133    45    46    2
   134    45    50   am
   135    72    73    2
   136    55    52   am
   137    95    91   am
   138    34    35    1
   139    50    51    1
   140    63    62    1
   141    84    83   ar
   142    83    82    1
   143    57    58    2
   144    35    36    1
   145    52    51    1
   146    52    53    2
   147    51    54    1
   148    91    92    2
   149    91    90    1
   150    81    80    2
   151    90    89    1
   152    90    93    1
   153    82    79    1
   154    80    89   am
   155    80    79    1
   156    36    37    2
   157    79    78    1
   158    93    94    1
