@<TRIPOS>MOLECULE
tmp/4d33A02.pdb
 179 174 0 0 0
SMALL
GASTEIGER

@<TRIPOS>ATOM
      1  N         16.9900   11.4190   44.6660 N.3    40  VAL40      -0.1231
      2  CA        16.7010   11.5790   43.2480 C.3    40  VAL40       0.1692
      3  C         17.8050   10.9480   42.3800 C.2    40  VAL40       0.2591
      4  O         17.5140   10.1920   41.4540 O.2    40  VAL40      -0.2718
      5  CB        16.4940   13.0650   42.9140 C.3    40  VAL40       0.0266
      6  CG1       16.2790   13.2640   41.4260 C.3    40  VAL40       0.0020
      7  CG2       15.3120   13.6130   43.7170 C.3    40  VAL40       0.0020
      8  N         19.0630   11.2430   42.7030 N.am   41  LEU41      -0.1980
      9  CA        20.2080   10.7140   41.9560 C.3    41  LEU41       0.1596
     10  C         21.0490    9.7570   42.8150 C.2    41  LEU41       0.2287
     11  O         21.1280    9.9270   44.0340 O.2    41  LEU41      -0.2864
     12  CB        21.0950   11.8660   41.4610 C.3    41  LEU41       0.0297
     13  CG        20.4670   13.0290   40.6890 C.3    41  LEU41       0.0022
     14  CD1       21.5370   13.9750   40.1440 C.3    41  LEU41       0.0001
     15  CD2       19.5870   12.5260   39.5680 C.3    41  LEU41       0.0001
     16  N          8.6940    5.3400   36.0510 N.3   109  CYS109     -0.1235
     17  CA         7.6660    5.6680   35.0780 C.3   109  CYS109      0.1677
     18  C          6.3450    4.9720   35.3760 C.2   109  CYS109      0.2270
     19  O          6.2570    3.7360   35.3820 O.2   109  CYS109     -0.2867
     20  CB         8.1160    5.2820   33.6700 C.3   109  CYS109      0.0956
     21  SG         6.8210    5.5650   32.4660 S.3   109  CYS109     -0.0801
     22  N         17.0980   19.0990   28.6920 N.3   171  SER171     -0.1202
     23  CA        16.6460   17.9410   29.4450 C.3   171  SER171      0.2020
     24  C         15.3420   17.4570   28.8410 C.2   171  SER171      0.2618
     25  O         14.9810   16.2990   28.9820 O.2   171  SER171     -0.2717
     26  CB        16.4430   18.3000   30.9100 C.3   171  SER171      0.2103
     27  OG        15.5570   19.3920   31.0240 O.3   171  SER171     -0.2182
     28  N         14.6250   18.3560   28.1740 N.am  172  GLN172     -0.1979
     29  CA        13.4270   17.9520   27.4380 C.3   172  GLN172      0.1601
     30  C         13.4320   18.6070   26.0700 C.2   172  GLN172      0.2287
     31  O         14.0060   19.6900   25.8970 O.2   172  GLN172     -0.2864
     32  CB        12.1540   18.3300   28.2010 C.3   172  GLN172      0.0394
     33  CG        12.0020   17.6860   29.5640 C.3   172  GLN172      0.0908
     34  CD        10.7730   18.1920   30.2870 C.2   172  GLN172      0.2608
     35  OE1        9.7250   18.4290   29.6660 O.2   172  GLN172     -0.2717
     36  NE2       10.8970   18.3910   31.6000 N.am  172  GLN172     -0.0878
     37  N         10.7730   22.5910   26.5150 N.3   175  ARG175     -0.1245
     38  CA        10.7720   23.1570   27.8480 C.3   175  ARG175      0.1563
     39  C         10.7790   24.6670   27.7540 C.2   175  ARG175      0.2260
     40  O         11.1890   25.2220   26.7440 O.2   175  ARG175     -0.2867
     41  CB        11.9610   22.6550   28.6570 C.3   175  ARG175      0.0307
     42  CG        11.5060   21.9690   29.9080 C.3   175  ARG175      0.0489
     43  CD        12.6240   21.6410   30.8330 C.3   175  ARG175      0.2205
     44  NE        12.0620   21.2480   32.1190 N.pl3 175  ARG175     -0.0865
     45  CZ        12.7640   21.0970   33.2350 C.cat 175  ARG175      0.5346
     46  NH1       14.0710   21.3260   33.2300 N.pl3 175  ARG175      0.1354
     47  NH2       12.1560   20.7080   34.3510 N.pl3 175  ARG175      0.1354
     48  N          5.6050   15.6400   26.5280 N.3   259  PRO259     -0.2116
     49  CA         6.6650   15.4610   27.5220 C.3   259  PRO259      0.1372
     50  C          7.7150   14.5160   26.9550 C.2   259  PRO259      0.2244
     51  O          7.4910   13.3070   26.8070 O.2   259  PRO259     -0.2868
     52  CB         5.9240   14.8170   28.6960 C.3   259  PRO259      0.0268
     53  CG         4.8450   13.9890   28.0360 C.3   259  PRO259      0.0207
     54  CD         4.5250   14.6530   26.6920 C.3   259  PRO259      0.0892
     55  N         11.6190   13.4380   27.4250 N.3   261  VAL261     -0.1245
     56  CA        12.9140   13.4970   28.0910 C.3   261  VAL261      0.1561
     57  C         14.0120   13.3570   27.0510 C.2   261  VAL261      0.2260
     58  O         14.0280   12.4020   26.2640 O.2   261  VAL261     -0.2867
     59  CB        13.0570   12.3790   29.1150 C.3   261  VAL261      0.0252
     60  CG1       14.4350   12.4030   29.7240 C.3   261  VAL261      0.0019
     61  CG2       12.0080   12.5350   30.2000 C.3   261  VAL261      0.0019
     62  N         17.5980   13.9140   27.6870 N.3   263  ASN263     -0.1240
     63  CA        18.9930   13.8480   28.1170 C.3   263  ASN263      0.1653
     64  C         19.3270   12.6370   28.9540 C.2   263  ASN263      0.2266
     65  O         20.3190   12.6400   29.6800 O.2   263  ASN263     -0.2867
     66  CB        19.3890   15.1130   28.8720 C.3   263  ASN263      0.1155
     67  CG        18.7080   15.2210   30.2140 C.2   263  ASN263      0.2627
     68  OD1       17.7390   14.5060   30.5080 O.2   263  ASN263     -0.2716
     69  ND2       19.1990   16.1360   31.0400 N.am  263  ASN263     -0.0877
     70  N         12.9290   10.2870   24.3690 N.3   278  PHE278     -0.1227
     71  CA        11.6890    9.5330   24.3310 C.3   278  PHE278      0.1736
     72  C         10.5880   10.4550   24.8110 C.2   278  PHE278      0.2596
     73  O         10.8440   11.4110   25.5420 O.2   278  PHE278     -0.2718
     74  CB        11.7690    8.2930   25.2320 C.3   278  PHE278      0.0547
     75  CG        12.0990    8.5970   26.6760 C.ar  278  PHE278     -0.0202
     76  CD1       11.0940    8.9150   27.5830 C.ar  278  PHE278     -0.0042
     77  CD2       13.4090    8.5380   27.1290 C.ar  278  PHE278     -0.0042
     78  CE1       11.3810    9.1730   28.9080 C.ar  278  PHE278     -0.0003
     79  CE2       13.7110    8.7910   28.4670 C.ar  278  PHE278     -0.0003
     80  CZ        12.6890    9.1050   29.3590 C.ar  278  PHE278     -0.0000
     81  N          9.3610   10.1620   24.4090 N.am  279  SER279     -0.1938
     82  CA         8.2370   10.9750   24.8180 C.3   279  SER279      0.2055
     83  C          7.0530   10.0650   25.0430 C.2   279  SER279      0.2644
     84  O          6.9410    9.0130   24.4140 O.2   279  SER279     -0.2714
     85  CB         7.9160   12.0240   23.7590 C.3   279  SER279      0.2130
     86  OG         7.6590   11.4190   22.5050 O.3   279  SER279     -0.2179
     87  N          6.1810   10.4550   25.9570 N.am  280  GLY280     -0.1939
     88  CA         4.9400    9.7350   26.1400 C.3   280  GLY280      0.2014
     89  C          3.8280   10.7500   26.0540 C.2   280  GLY280      0.2639
     90  O          3.7290   11.5070   25.0840 O.2   280  GLY280     -0.2714
     91  N          2.9730   10.7500   27.0670 N.am  281  TRP281     -0.1959
     92  CA         2.0660   11.8610   27.2730 C.3   281  TRP281      0.1771
     93  C          2.0760   12.1750   28.7410 C.2   281  TRP281      0.2619
     94  O          2.5140   11.3580   29.5640 O.2   281  TRP281     -0.2715
     95  CB         0.6460   11.5690   26.7810 C.3   281  TRP281      0.0590
     96  CG         0.1040   10.2560   27.2040 C.ar  281  TRP281      0.0006
     97  CD1       -0.4370    9.9350   28.4210 C.ar  281  TRP281      0.0946
     98  CD2        0.0360    9.0740   26.4030 C.ar  281  TRP281      0.0152
     99  NE1       -0.8380    8.6100   28.4170 N.ar  281  TRP281     -0.2442
    100  CE2       -0.5510    8.0650   27.1900 C.ar  281  TRP281      0.0810
    101  CE3        0.4270    8.7690   25.0980 C.ar  281  TRP281      0.0012
    102  CZ2       -0.7640    6.7770   26.7080 C.ar  281  TRP281      0.0191
    103  CZ3        0.2000    7.4960   24.6140 C.ar  281  TRP281      0.0001
    104  CH2       -0.3830    6.5110   25.4190 C.ar  281  TRP281      0.0015
    105  N          1.5870   13.3600   29.0740 N.am  282  TYR282     -0.1974
    106  CA         1.6150   13.8090   30.4450 C.3   282  TYR282      0.1639
    107  C          0.6470   13.0770   31.3470 C.2   282  TYR282      0.2290
    108  O         -0.4660   12.7270   30.9590 O.2   282  TYR282     -0.2864
    109  CB         1.2850   15.2950   30.5030 C.3   282  TYR282      0.0560
    110  CG         2.4990   16.1550   30.4730 C.ar  282  TYR282     -0.0198
    111  CD1        3.4280   16.0940   31.5060 C.ar  282  TYR282     -0.0009
    112  CD2        2.7300   17.0300   29.4180 C.ar  282  TYR282     -0.0009
    113  CE1        4.5470   16.8910   31.5000 C.ar  282  TYR282      0.0417
    114  CE2        3.8530   17.8230   29.3960 C.ar  282  TYR282      0.0417
    115  CZ         4.7550   17.7490   30.4420 C.ar  282  TYR282      0.1957
    116  OH         5.8800   18.5410   30.4510 O.3   282  TYR282     -0.2866
    117  N          2.0970   16.0020   36.7350 N.3   286  GLU286     -0.1245
    118  CA         3.4170   16.4930   36.3120 C.3   286  GLU286      0.1567
    119  C          3.3240   17.9860   35.9920 C.2   286  GLU286      0.2260
    120  O          4.2540   18.7410   36.2500 O.2   286  GLU286     -0.2867
    121  CB         3.9540   15.7750   35.0510 C.3   286  GLU286      0.0388
    122  CG         4.1280   14.2510   35.1090 C.3   286  GLU286      0.1160
    123  CD         4.5480   13.6440   33.7330 C.2   286  GLU286      0.3649
    124  OE1        5.7180   13.8290   33.2990 O.co2 286  GLU286     -0.2457
    125  OE2        3.7120   12.9680   33.0830 O.co2 286  GLU286     -0.2457
    126  N          5.1860   21.0950   37.7790 N.3   291  ASN291     -0.1240
    127  CA         5.6760   22.1990   36.9620 C.3   291  ASN291      0.1653
    128  C          5.0810   23.5340   37.3480 C.2   291  ASN291      0.2266
    129  O          5.7950   24.5140   37.4380 O.2   291  ASN291     -0.2867
    130  CB         5.4390   21.9140   35.4840 C.3   291  ASN291      0.1155
    131  CG         6.1610   20.6750   35.0310 C.2   291  ASN291      0.2627
    132  OD1        7.0550   20.1930   35.7260 O.2   291  ASN291     -0.2716
    133  ND2        5.7780   20.1390   33.8760 N.am  291  ASN291     -0.0877
    134  N          9.5970   25.9240   40.9740 N.3   297  ARG297     -0.1245
    135  CA         9.2140   26.0040   39.5660 C.3   297  ARG297      0.1563
    136  C          8.3810   27.2670   39.3650 C.2   297  ARG297      0.2260
    137  O          8.7670   28.3370   39.8350 O.2   297  ARG297     -0.2867
    138  CB         8.4750   24.7500   39.1000 C.3   297  ARG297      0.0307
    139  CG         9.3100   23.4650   39.1710 C.3   297  ARG297      0.0489
    140  CD        10.5120   23.4880   38.2290 C.3   297  ARG297      0.2205
    141  NE        10.0930   23.4720   36.8300 N.pl3 297  ARG297     -0.0865
    142  CZ         9.6050   22.3990   36.2200 C.cat 297  ARG297      0.5346
    143  NH1        9.4670   21.2530   36.8970 N.pl3 297  ARG297      0.1354
    144  NH2        9.2400   22.4770   34.9440 N.pl3 297  ARG297      0.1354
    145  N          8.1880    7.8800   43.4420 N.3   372  TRP372     -0.1241
    146  CA         7.9490    8.5210   42.1500 C.3   372  TRP372      0.1605
    147  C          6.6360    8.0860   41.5340 C.2   372  TRP372      0.2264
    148  O          6.0170    8.8350   40.7670 O.2   372  TRP372     -0.2867
    149  CB         9.0800    8.1970   41.1760 C.3   372  TRP372      0.0550
    150  CG        10.2520    9.0650   41.3770 C.ar  372  TRP372      0.0003
    151  CD1       11.0400    9.1410   42.4830 C.ar  372  TRP372      0.0946
    152  CD2       10.7800   10.0000   40.4340 C.ar  372  TRP372      0.0152
    153  NE1       12.0290   10.0830   42.2880 N.ar  372  TRP372     -0.2442
    154  CE2       11.8900   10.6220   41.0370 C.ar  372  TRP372      0.0810
    155  CE3       10.4170   10.3720   39.1360 C.ar  372  TRP372      0.0012
    156  CZ2       12.6510   11.5990   40.3800 C.ar  372  TRP372      0.0191
    157  CZ3       11.1700   11.3410   38.4840 C.ar  372  TRP372      0.0001
    158  CH2       12.2710   11.9400   39.1060 C.ar  372  TRP372      0.0015
    159  N         20.2440    8.5150   34.2000 N.3   400  TYR400     -0.1227
    160  CA        20.5750    9.9280   34.1640 C.3   400  TYR400      0.1736
    161  C         22.0090   10.0200   33.6840 C.2   400  TYR400      0.2595
    162  O         22.7820    9.0690   33.8160 O.2   400  TYR400     -0.2718
    163  CB        20.4740   10.5260   35.5590 C.3   400  TYR400      0.0548
    164  CG        19.0680   10.5460   36.1100 C.ar  400  TYR400     -0.0200
    165  CD1       18.0170   11.0490   35.3620 C.ar  400  TYR400     -0.0009
    166  CD2       18.7960   10.0580   37.3800 C.ar  400  TYR400     -0.0009
    167  CE1       16.7350   11.0740   35.8660 C.ar  400  TYR400      0.0417
    168  CE2       17.5200   10.0820   37.8940 C.ar  400  TYR400      0.0417
    169  CZ        16.4930   10.5900   37.1310 C.ar  400  TYR400      0.1957
    170  OH        15.2140   10.6090   37.6420 O.3   400  TYR400     -0.2866
    171  N         22.3740   11.1570   33.1230 N.am  401  GLN401     -0.1979
    172  CA        23.7670   11.3660   32.7930 C.3   401  GLN401      0.1601
    173  C         24.0730   12.8190   33.0810 C.2   401  GLN401      0.2287
    174  O         23.1750   13.6520   33.0580 O.2   401  GLN401     -0.2864
    175  CB        24.0500   10.9780   31.3300 C.3   401  GLN401      0.0394
    176  CG        23.3030   11.8000   30.3000 C.3   401  GLN401      0.0908
    177  CD        23.4550   11.2540   28.8890 C.2   401  GLN401      0.2608
    178  OE1       24.4930   10.6930   28.5270 O.2   401  GLN401     -0.2717
    179  NE2       22.4180   11.4260   28.0810 N.am  401  GLN401     -0.0878
@<TRIPOS>BOND
     1    86    85    1
     2    85    82    1
     3    71    70    1
     4    71    72    1
     5    71    74    1
     6    81    72   am
     7    81    82    1
     8    84    83    2
     9   103   101   ar
    10   103   104   ar
    11    72    73    2
    12    82    83    1
    13    83    87   am
    14    90    89    2
    15   101    98   ar
    16    74    75    1
    17   104   102   ar
    18    31    30    2
    19    87    88    1
    20    89    88    1
    21    89    91   am
    22    30    29    1
    23    58    57    2
    24    98   100   ar
    25    98    96   ar
    26    37    38    1
    27    48    54    1
    28    48    49    1
    29    75    77   ar
    30    75    76   ar
    31    54    53    1
    32   102   100   ar
    33    40    39    2
    34    95    96    1
    35    95    92    1
    36    51    50    2
    37    50    49    1
    38    57    56    1
    39    91    92    1
    40    77    79   ar
    41   100    99   ar
    42    96    97   ar
    43    92    93    1
    44    55    56    1
    45    29    28    1
    46    29    32    1
    47    49    52    1
    48    76    78   ar
    49    62    63    1
    50    39    38    1
    51    38    41    1
    52    53    52    1
    53   179   177   am
    54    56    59    1
    55    63    66    1
    56    63    64    1
    57    28    24   am
    58    32    33    1
    59    99    97   ar
    60    79    80   ar
    61   178   177    2
    62    41    42    1
    63    22    23    1
    64    93   105   am
    65    93    94    2
    66    24    25    2
    67    24    23    1
    68    66    67    1
    69   177   176    1
    70    78    80   ar
    71    64    65    2
    72   105   106    1
    73    59    60    1
    74    59    61    1
    75   114   112   ar
    76   114   115   ar
    77   112   110   ar
    78    23    26    1
    79    33    34    1
    80    35    34    2
    81    42    43    1
    82    67    68    2
    83    67    69   am
    84    34    36   am
    85   176   175    1
    86   115   116    1
    87   115   113   ar
    88   106   109    1
    89   106   107    1
    90   110   109    1
    91   110   111   ar
    92    43    44    1
    93    26    27    1
    94   108   107    2
    95   175   172    1
    96   113   111   ar
    97    44    45    2
    98    21    20    1
    99   172   173    1
   100   172   171    1
   101   174   173    2
   102   125   123   ar
   103   171   161   am
   104    46    45    1
   105    45    47    1
   106   124   123   ar
   107    20    17    1
   108   161   162    2
   109   161   160    1
   110   123   122    1
   111   133   131   am
   112   160   159    1
   113   160   163    1
   114   144   142    1
   115   131   130    1
   116   131   132    2
   117   121   122    1
   118   121   118    1
   119    17    18    1
   120    17    16    1
   121   165   167   ar
   122   165   164   ar
   123    18    19    2
   124   130   127    1
   125   163   164    1
   126   167   169   ar
   127   119   120    2
   128   119   118    1
   129   164   166   ar
   130   142   141    2
   131   142   143    1
   132   118   117    1
   133   141   140    1
   134   127   128    1
   135   127   126    1
   136   169   170    1
   137   169   168   ar
   138   128   129    2
   139   166   168   ar
   140   140   139    1
   141   157   158   ar
   142   157   155   ar
   143   138   139    1
   144   138   135    1
   145   158   156   ar
   146   155   152   ar
   147   136   135    1
   148   136   137    2
   149   135   134    1
   150    15    13    1
   151    14    13    1
   152   156   154   ar
   153   152   154   ar
   154   152   150   ar
   155    13    12    1
   156   148   147    2
   157   154   153   ar
   158   149   150    1
   159   149   146    1
   160   150   151   ar
   161     6     5    1
   162     4     3    2
   163    12     9    1
   164   147   146    1
   165     9     8    1
   166     9    10    1
   167   146   145    1
   168   153   151   ar
   169     3     8   am
   170     3     2    1
   171    10    11    2
   172     5     2    1
   173     5     7    1
   174     2     1    1
