@<TRIPOS>MOLECULE
tmp/4d34A02.pdb
 148 147 0 0 0
SMALL
GASTEIGER

@<TRIPOS>ATOM
      1  N         17.5250   11.5590   45.4830 N.3    40  VAL40      -0.1231
      2  CA        17.2290   11.7270   44.0450 C.3    40  VAL40       0.1692
      3  C         18.3250   11.1910   43.0800 C.2    40  VAL40       0.2591
      4  O         18.0170   10.4670   42.1160 O.2    40  VAL40      -0.2718
      5  CB        16.8870   13.2100   43.7720 C.3    40  VAL40       0.0266
      6  CG1       16.7290   13.5000   42.2880 C.3    40  VAL40       0.0020
      7  CG2       15.5990   13.5690   44.4900 C.3    40  VAL40       0.0020
      8  N         19.5860   11.5320   43.3540 N.am   41  LEU41      -0.1980
      9  CA        20.7500   11.0270   42.6120 C.3    41  LEU41       0.1596
     10  C         21.5040   10.0170   43.4810 C.2    41  LEU41       0.2287
     11  O         21.6190   10.2330   44.6800 O.2    41  LEU41      -0.2864
     12  CB        21.6980   12.1770   42.2780 C.3    41  LEU41       0.0297
     13  CG        21.0600   13.5130   41.8620 C.3    41  LEU41       0.0022
     14  CD1       22.0890   14.6440   41.9310 C.3    41  LEU41       0.0001
     15  CD2       20.4160   13.4030   40.4880 C.3    41  LEU41       0.0001
     16  N         12.6250    1.0510   29.3450 N.3   103  TRP103     -0.1241
     17  CA        11.4280    1.7200   29.8450 C.3   103  TRP103      0.1605
     18  C         10.7640    0.8330   30.8640 C.2   103  TRP103      0.2264
     19  O         10.5010    1.2320   31.9970 O.2   103  TRP103     -0.2867
     20  CB        10.4720    2.0270   28.6850 C.3   103  TRP103      0.0550
     21  CG         9.1630    2.7540   29.0600 C.ar  103  TRP103      0.0003
     22  CD1        8.8410    3.2980   30.2470 C.ar  103  TRP103      0.0946
     23  CD2        8.0690    3.0250   28.1890 C.ar  103  TRP103      0.0152
     24  NE1        7.6030    3.8680   30.1940 N.ar  103  TRP103     -0.2442
     25  CE2        7.0940    3.6920   28.9450 C.ar  103  TRP103      0.0810
     26  CE3        7.7980    2.7260   26.8390 C.ar  103  TRP103      0.0012
     27  CZ2        5.8630    4.0730   28.4150 C.ar  103  TRP103      0.0191
     28  CZ3        6.5760    3.1050   26.3080 C.ar  103  TRP103      0.0001
     29  CH2        5.6200    3.7820   27.0940 C.ar  103  TRP103      0.0015
     30  N          8.8930    5.4330   36.6650 N.3   109  CYS109     -0.1235
     31  CA         7.8480    5.7160   35.7010 C.3   109  CYS109      0.1677
     32  C          6.5250    4.9940   36.0060 C.2   109  CYS109      0.2270
     33  O          6.4160    3.7420   36.0530 O.2   109  CYS109     -0.2867
     34  CB         8.3030    5.3470   34.3000 C.3   109  CYS109      0.0956
     35  SG         7.1630    5.8510   32.9820 S.3   109  CYS109     -0.0801
     36  N         14.9670   18.7410   28.7210 N.3   172  GLN172     -0.1245
     37  CA        13.8350   18.3320   27.9210 C.3   172  GLN172      0.1566
     38  C         13.9300   18.9410   26.5420 C.2   172  GLN172      0.2260
     39  O         14.6660   19.9260   26.3130 O.2   172  GLN172     -0.2867
     40  CB        12.5250   18.7620   28.5500 C.3   172  GLN172      0.0367
     41  CG        12.1560   18.0750   29.8610 C.3   172  GLN172      0.0905
     42  CD        10.8010   18.5760   30.4060 C.2   172  GLN172      0.2608
     43  OE1        9.8140   18.7390   29.6570 O.2   172  GLN172     -0.2717
     44  NE2       10.7480   18.7910   31.7120 N.am  172  GLN172     -0.0878
     45  N          5.9620   15.8960   26.8540 N.3   259  PRO259     -0.2116
     46  CA         7.0090   15.7130   27.8010 C.3   259  PRO259      0.1372
     47  C          8.1150   14.7780   27.2960 C.2   259  PRO259      0.2244
     48  O          7.9700   13.5510   27.2550 O.2   259  PRO259     -0.2868
     49  CB         6.2670   15.1070   28.9930 C.3   259  PRO259      0.0268
     50  CG         5.2200   14.2490   28.3780 C.3   259  PRO259      0.0207
     51  CD         4.8140   15.0130   27.1510 C.3   259  PRO259      0.0892
     52  N         12.1340   13.7460   27.7260 N.3   261  VAL261     -0.1245
     53  CA        13.3480   13.7950   28.4970 C.3   261  VAL261      0.1561
     54  C         14.4900   13.5530   27.5210 C.2   261  VAL261      0.2260
     55  O         14.4390   12.6250   26.6870 O.2   261  VAL261     -0.2867
     56  CB        13.3740   12.6760   29.5490 C.3   261  VAL261      0.0252
     57  CG1       14.7060   12.6720   30.2790 C.3   261  VAL261      0.0019
     58  CG2       12.1710   12.7730   30.5160 C.3   261  VAL261      0.0019
     59  N         19.0180   11.8540   29.4610 N.3   264  MET264     -0.1245
     60  CA        19.2770   10.5680   30.1290 C.3   264  MET264      0.1570
     61  C         20.0590    9.6680   29.2270 C.2   264  MET264      0.2261
     62  O         19.9460    9.7060   27.9940 O.2   264  MET264     -0.2867
     63  CB        17.9990    9.9330   30.6160 C.3   264  MET264      0.0387
     64  CG        17.4270   10.6820   31.8140 C.3   264  MET264      0.0595
     65  SD        16.0630    9.8570   32.6730 S.3   264  MET264     -0.1393
     66  CE        16.9850    8.8500   33.8490 C.3   264  MET264      0.0692
     67  N         13.3700   10.5170   24.8640 N.3   278  PHE278     -0.1227
     68  CA        12.1070    9.8000   24.8180 C.3   278  PHE278      0.1736
     69  C         10.9870   10.7120   25.2470 C.2   278  PHE278      0.2596
     70  O         11.2370   11.7250   25.9270 O.2   278  PHE278     -0.2718
     71  CB        12.1210    8.5740   25.7130 C.3   278  PHE278      0.0547
     72  CG        12.4580    8.8500   27.1530 C.ar  278  PHE278     -0.0202
     73  CD1       13.7610    8.8160   27.5800 C.ar  278  PHE278     -0.0042
     74  CD2       11.4660    9.0940   28.0770 C.ar  278  PHE278     -0.0042
     75  CE1       14.0760    9.0550   28.8900 C.ar  278  PHE278     -0.0003
     76  CE2       11.7620    9.3380   29.3920 C.ar  278  PHE278     -0.0003
     77  CZ        13.0720    9.3130   29.8020 C.ar  278  PHE278     -0.0000
     78  N          9.7690   10.3430   24.8470 N.am  279  SER279     -0.1938
     79  CA         8.5650   11.0900   25.2180 C.3   279  SER279      0.2055
     80  C          7.3410   10.2060   25.3610 C.2   279  SER279      0.2644
     81  O          7.2520    9.1350   24.7680 O.2   279  SER279     -0.2714
     82  CB         8.2570   12.2070   24.2220 C.3   279  SER279      0.2130
     83  OG         7.9570   11.7110   22.9470 O.3   279  SER279     -0.2179
     84  N          6.4000   10.6810   26.1490 N.am  280  GLY280     -0.1939
     85  CA         5.1610    9.9910   26.3990 C.3   280  GLY280      0.2014
     86  C          4.0620   11.0230   26.4050 C.2   280  GLY280      0.2639
     87  O          3.9450   11.7560   25.4630 O.2   280  GLY280     -0.2714
     88  N          3.2340   11.0310   27.4440 N.am  281  TRP281     -0.1959
     89  CA         2.2430   12.0720   27.6590 C.3   281  TRP281      0.1771
     90  C          2.2160   12.3290   29.1530 C.2   281  TRP281      0.2619
     91  O          2.6600   11.4970   29.9680 O.2   281  TRP281     -0.2715
     92  CB         0.8650   11.7260   27.0890 C.3   281  TRP281      0.0590
     93  CG         0.2730   10.4380   27.5330 C.ar  281  TRP281      0.0006
     94  CD1       -0.3500   10.1950   28.7140 C.ar  281  TRP281      0.0946
     95  CD2        0.2290    9.2100   26.7960 C.ar  281  TRP281      0.0152
     96  NE1       -0.7660    8.8870   28.7690 N.ar  281  TRP281     -0.2442
     97  CE2       -0.4210    8.2600   27.6070 C.ar  281  TRP281      0.0810
     98  CE3        0.7040    8.8150   25.5510 C.ar  281  TRP281      0.0012
     99  CZ2       -0.6320    6.9320   27.1990 C.ar  281  TRP281      0.0191
    100  CZ3        0.4950    7.4910   25.1330 C.ar  281  TRP281      0.0001
    101  CH2       -0.1690    6.5670   25.9560 C.ar  281  TRP281      0.0015
    102  N          1.7580   13.5210   29.5110 N.am  282  TYR282     -0.1974
    103  CA         1.8360   13.9910   30.8740 C.3   282  TYR282      0.1639
    104  C          0.8370   13.2510   31.7380 C.2   282  TYR282      0.2290
    105  O         -0.2920   12.9340   31.3110 O.2   282  TYR282     -0.2864
    106  CB         1.5850   15.5410   30.9330 C.3   282  TYR282      0.0560
    107  CG         2.8510   16.4150   30.9670 C.ar  282  TYR282     -0.0198
    108  CD1        3.7620   16.3160   32.0030 C.ar  282  TYR282     -0.0009
    109  CD2        3.1300   17.3370   29.9540 C.ar  282  TYR282     -0.0009
    110  CE1        4.9150   17.1170   32.0430 C.ar  282  TYR282      0.0417
    111  CE2        4.2810   18.1310   29.9820 C.ar  282  TYR282      0.0417
    112  CZ         5.1650   18.0360   31.0290 C.ar  282  TYR282      0.1957
    113  OH         6.3030   18.8260   31.0660 O.3   282  TYR282     -0.2866
    114  N          2.1690   16.2820   37.2450 N.3   286  GLU286     -0.1196
    115  CA         3.5390   16.6930   36.8230 C.3   286  GLU286      0.1783
    116  C          3.4020   18.2400   36.6450 C.2   286  GLU286      0.2306
    117  O          4.2430   19.0620   37.0460 O.2   286  GLU286     -0.2863
    118  CB         4.0480   15.9380   35.4880 C.2   286  GLU286      0.0071
    119  CG         4.6590   14.4570   35.5150 C.2   286  GLU286      0.0834
    120  CD         4.9340   13.6880   34.1040 C.2   286  GLU286      0.3877
    121  OE1        4.0070   13.1720   33.4460 O.co2 286  GLU286     -0.2406
    122  OE2        6.1020   13.4820   33.6200 O.co2 286  GLU286     -0.2406
    123  N          8.2690    8.0810   44.1280 N.3   371  TRP371     -0.1241
    124  CA         7.9800    8.6400   42.8050 C.3   371  TRP371      0.1605
    125  C          6.7090    8.1350   42.1650 C.2   371  TRP371      0.2264
    126  O          6.1320    8.8140   41.2970 O.2   371  TRP371     -0.2867
    127  CB         9.0970    8.3590   41.8350 C.3   371  TRP371      0.0550
    128  CG        10.2910    9.1540   42.1490 C.ar  371  TRP371      0.0003
    129  CD1       10.9850    9.1160   43.2930 C.ar  371  TRP371      0.0946
    130  CD2       10.9250   10.1220   41.3170 C.ar  371  TRP371      0.0152
    131  NE1       12.0290    9.9990   43.2390 N.ar  371  TRP371     -0.2442
    132  CE2       12.0190   10.6280   42.0340 C.ar  371  TRP371      0.0810
    133  CE3       10.6800   10.6050   40.0310 C.ar  371  TRP371      0.0012
    134  CZ2       12.8490   11.6300   41.5400 C.ar  371  TRP371      0.0191
    135  CZ3       11.5100   11.5880   39.5140 C.ar  371  TRP371      0.0001
    136  CH2       12.5780   12.1050   40.2870 C.ar  371  TRP371      0.0015
    137  N         20.8240    8.6800   34.8770 N.3   399  TYR399     -0.1241
    138  CA        21.2360   10.0760   34.8170 C.3   399  TYR399      0.1605
    139  C         22.6690   10.0890   34.3160 C.2   399  TYR399      0.2264
    140  O         23.3240    9.0480   34.2770 O.2   399  TYR399     -0.2867
    141  CB        21.1550   10.7600   36.1850 C.3   399  TYR399      0.0534
    142  CG        19.7400   10.8520   36.7450 C.ar  399  TYR399     -0.0201
    143  CD1       18.7510   11.5770   36.0680 C.ar  399  TYR399     -0.0009
    144  CD2       19.3960   10.2450   37.9680 C.ar  399  TYR399     -0.0009
    145  CE1       17.4560   11.6770   36.5630 C.ar  399  TYR399      0.0417
    146  CE2       18.0940   10.3470   38.4690 C.ar  399  TYR399      0.0417
    147  CZ        17.1300   11.0690   37.7480 C.ar  399  TYR399      0.1957
    148  OH        15.8390   11.1750   38.1940 O.3   399  TYR399     -0.2866
@<TRIPOS>BOND
     1    83    82    1
     2    82    79    1
     3    81    80    2
     4    68    67    1
     5    68    69    1
     6    68    71    1
     7    78    79    1
     8    78    69   am
     9   100    98   ar
    10   100   101   ar
    11    79    80    1
    12    69    70    2
    13    80    84   am
    14    87    86    2
    15    98    95   ar
    16    71    72    1
    17   101    99   ar
    18    84    85    1
    19    28    26   ar
    20    28    29   ar
    21    39    38    2
    22    85    86    1
    23    86    88   am
    24    38    37    1
    25    55    54    2
    26    95    93   ar
    27    95    97   ar
    28    26    23   ar
    29    45    51    1
    30    45    46    1
    31    92    93    1
    32    92    89    1
    33    29    27   ar
    34    51    50    1
    35    72    73   ar
    36    72    74   ar
    37    99    97   ar
    38    48    47    2
    39    47    46    1
    40    88    89    1
    41    54    53    1
    42    93    94   ar
    43    73    75   ar
    44    97    96   ar
    45    89    90    1
    46    52    53    1
    47    46    49    1
    48    37    40    1
    49    37    36    1
    50    62    61    2
    51    74    76   ar
    52    23    25   ar
    53    23    21   ar
    54    50    49    1
    55    27    25   ar
    56    53    56    1
    57    40    41    1
    58    20    21    1
    59    20    17    1
    60    94    96   ar
    61    75    77   ar
    62    25    24   ar
    63    21    22   ar
    64    90   102   am
    65    90    91    2
    66    61    60    1
    67    16    17    1
    68    76    77   ar
    69    59    60    1
    70   102   103    1
    71    56    57    1
    72    56    58    1
    73    43    42    2
    74    17    18    1
    75    41    42    1
    76   109   111   ar
    77   109   107   ar
    78   111   112   ar
    79    60    63    1
    80    24    22   ar
    81    42    44   am
    82    63    64    1
    83    18    19    2
    84   103   106    1
    85   103   104    1
    86   106   107    1
    87   107   108   ar
    88   112   113    1
    89   112   110   ar
    90   105   104    2
    91    64    65    1
    92   108   110   ar
    93    65    66    1
    94    35    34    1
    95   121   120   ar
    96   122   120   ar
    97   120   119    1
    98   140   139    2
    99    34    31    1
   100   139   138    1
   101   138   137    1
   102   138   141    1
   103   118   119    2
   104   118   115    1
   105    31    32    1
   106    31    30    1
   107    32    33    2
   108   143   145   ar
   109   143   142   ar
   110   141   142    1
   111   145   147   ar
   112   116   115    1
   113   116   117    2
   114   142   144   ar
   115   115   114    1
   116   147   148    1
   117   147   146   ar
   118   144   146   ar
   119   135   133   ar
   120   135   136   ar
   121   133   130   ar
   122   136   134   ar
   123    15    13    1
   124   126   125    2
   125   130   132   ar
   126   130   128   ar
   127   134   132   ar
   128   127   128    1
   129   127   124    1
   130    13    14    1
   131    13    12    1
   132   132   131   ar
   133     4     3    2
   134   128   129   ar
   135   125   124    1
   136    12     9    1
   137     6     5    1
   138     9     8    1
   139     9    10    1
   140   124   123    1
   141     3     8   am
   142     3     2    1
   143   131   129   ar
   144    10    11    2
   145     5     2    1
   146     5     7    1
   147     2     1    1
