@<TRIPOS>MOLECULE
tmp/4d36B03.pdb
 145 144 0 0 0
SMALL
GASTEIGER

@<TRIPOS>ATOM
      1  N          6.0540   -1.9160   55.4370 N.3    38  VAL38      -0.1231
      2  CA         5.5530   -1.4840   56.7470 C.3    38  VAL38       0.1692
      3  C          6.2040   -2.2410   57.9180 C.2    38  VAL38       0.2591
      4  O          6.6280   -1.6360   58.9110 O.2    38  VAL38      -0.2718
      5  CB         4.0130   -1.6370   56.8360 C.3    38  VAL38       0.0266
      6  CG1        3.4970   -1.2580   58.2470 C.3    38  VAL38       0.0020
      7  CG2        3.3400   -0.7790   55.7730 C.3    38  VAL38       0.0020
      8  N          6.2910   -3.5610   57.7860 N.am   39  LEU39      -0.1980
      9  CA         6.8050   -4.4170   58.8610 C.3    39  LEU39       0.1596
     10  C          8.1000   -5.1420   58.4950 C.2    39  LEU39       0.2287
     11  O          8.3490   -5.4230   57.3210 O.2    39  LEU39      -0.2864
     12  CB         5.7560   -5.4750   59.2410 C.3    39  LEU39       0.0297
     13  CG         4.4470   -4.9260   59.8070 C.3    39  LEU39       0.0022
     14  CD1        3.4760   -6.0510   60.0930 C.3    39  LEU39       0.0001
     15  CD2        4.7530   -4.1410   61.0590 C.3    39  LEU39       0.0001
     16  N          7.8900    9.1160   63.2860 N.3   108  CYS108     -0.1235
     17  CA         7.0910   10.1070   64.0190 C.3   108  CYS108      0.1677
     18  C          7.3870   11.5470   63.5720 C.2   108  CYS108      0.2270
     19  O          8.5290   12.0120   63.6600 O.2   108  CYS108     -0.2867
     20  CB         7.2980    9.9660   65.5370 C.3   108  CYS108      0.0956
     21  SG         6.2630   11.0790   66.5610 S.3   108  CYS108     -0.0801
     22  N         -4.3790   -2.3590   69.9520 N.3   170  SER170     -0.1202
     23  CA        -3.3010   -1.6430   69.2870 C.3   170  SER170      0.2020
     24  C         -3.2750   -0.1800   69.7350 C.2   170  SER170      0.2618
     25  O         -2.2360    0.4680   69.6970 O.2   170  SER170     -0.2717
     26  CB        -3.4080   -1.7700   67.7580 C.3   170  SER170      0.2103
     27  OG        -4.5980   -1.1670   67.2880 O.3   170  SER170     -0.2182
     28  N         -4.4170    0.3330   70.1820 N.am  171  GLN171     -0.1979
     29  CA        -4.4720    1.6850   70.7270 C.3   171  GLN171      0.1601
     30  C         -5.3480    1.6750   71.9770 C.2   171  GLN171      0.2287
     31  O         -6.2230    0.8200   72.1020 O.2   171  GLN171     -0.2864
     32  CB        -5.0580    2.6800   69.7030 C.3   171  GLN171      0.0394
     33  CG        -4.2740    2.8830   68.4040 C.3   171  GLN171      0.0908
     34  CD        -4.9480    3.9140   67.4860 C.2   171  GLN171      0.2608
     35  OE1       -5.5420    4.9020   67.9560 O.2   171  GLN171     -0.2717
     36  NE2       -4.8760    3.6790   66.1820 N.am  171  GLN171     -0.0878
     37  N         -4.6720    9.9980   70.7330 N.3   258  PRO258     -0.2102
     38  CA        -4.0140    8.9620   69.9300 C.3   258  PRO258      0.1504
     39  C         -2.9560    8.2740   70.7780 C.2   258  PRO258      0.2576
     40  O         -1.9050    8.8530   71.0510 O.2   258  PRO258     -0.2718
     41  CB        -3.3610    9.7610   68.7960 C.3   258  PRO258      0.0282
     42  CG        -3.0600   11.1030   69.4140 C.3   258  PRO258      0.0208
     43  CD        -4.0210   11.3130   70.5890 C.3   258  PRO258      0.0893
     44  N         -3.2330    7.0470   71.1960 N.am  259  ALA259     -0.1966
     45  CA        -2.3520    6.3620   72.1330 C.3   259  ALA259      0.1728
     46  C         -2.0030    4.9650   71.6450 C.2   259  ALA259      0.2616
     47  O         -2.8660    4.0950   71.6010 O.2   259  ALA259     -0.2715
     48  CB        -2.9990    6.2920   73.5240 C.3   259  ALA259      0.0334
     49  N         -0.7360    4.7590   71.2930 N.am  260  VAL260     -0.1977
     50  CA        -0.2730    3.4730   70.8000 C.3   260  VAL260      0.1596
     51  C          0.0050    2.5490   71.9770 C.2   260  VAL260      0.2287
     52  O          0.6940    2.9430   72.9270 O.2   260  VAL260     -0.2864
     53  CB         1.0050    3.6310   69.9610 C.3   260  VAL260      0.0276
     54  CG1        1.4820    2.2720   69.4420 C.3   260  VAL260      0.0022
     55  CG2        0.7440    4.5910   68.7840 C.3   260  VAL260      0.0022
     56  N          3.2690   -1.4400   70.9660 N.3   263  MET263     -0.1245
     57  CA         4.6760   -1.4010   70.5840 C.3   263  MET263      0.1570
     58  C          5.5530   -1.7460   71.7660 C.2   263  MET263      0.2261
     59  O          5.1650   -1.5780   72.9230 O.2   263  MET263     -0.2867
     60  CB         5.0800   -0.0380   69.9680 C.3   263  MET263      0.0387
     61  CG         4.5470    0.1510   68.5300 C.3   263  MET263      0.0595
     62  SD         5.1180    1.6380   67.6770 S.3   263  MET263     -0.1393
     63  CE         6.6950    1.0840   67.0040 C.3   263  MET263      0.0692
     64  N          1.9900    4.8240   74.7590 N.3   277  PHE277     -0.1227
     65  CA         2.3220    6.2360   74.7070 C.3   277  PHE277      0.1736
     66  C          1.2760    6.9910   73.9080 C.2   277  PHE277      0.2596
     67  O          0.5790    6.4080   73.0620 O.2   277  PHE277     -0.2718
     68  CB         3.7080    6.4440   74.0920 C.3   277  PHE277      0.0547
     69  CG         3.8290    5.9450   72.6680 C.ar  277  PHE277     -0.0202
     70  CD1        3.4670    6.7600   71.5900 C.ar  277  PHE277     -0.0042
     71  CD2        4.3130    4.6680   72.4080 C.ar  277  PHE277     -0.0042
     72  CE1        3.5880    6.2980   70.2700 C.ar  277  PHE277     -0.0003
     73  CE2        4.4430    4.1950   71.0870 C.ar  277  PHE277     -0.0003
     74  CZ         4.0790    5.0070   70.0220 C.ar  277  PHE277     -0.0000
     75  N          1.1820    8.2910   74.1730 N.am  278  SER278     -0.1938
     76  CA         0.2550    9.1460   73.4450 C.3   278  SER278      0.2055
     77  C          0.7930   10.5540   73.2690 C.2   278  SER278      0.2644
     78  O          1.5140   11.0690   74.1320 O.2   278  SER278     -0.2714
     79  CB        -1.0980    9.2110   74.1560 C.3   278  SER278      0.2130
     80  OG        -0.9270    9.6100   75.5040 O.3   278  SER278     -0.2179
     81  N          0.4290   11.1730   72.1460 N.am  279  GLY279     -0.1939
     82  CA         0.6960   12.5820   71.9330 C.3   279  GLY279      0.2014
     83  C         -0.6050   13.2870   71.6080 C.2   279  GLY279      0.2639
     84  O         -1.5550   13.3000   72.4020 O.2   279  GLY279     -0.2714
     85  N         -0.6490   13.8830   70.4250 N.am  280  TRP280     -0.1959
     86  CA        -1.8940   14.4170   69.9260 C.3   280  TRP280      0.1771
     87  C         -1.9620   14.1730   68.4220 C.2   280  TRP280      0.2619
     88  O         -0.9410   13.9320   67.7710 O.2   280  TRP280     -0.2715
     89  CB        -2.0670   15.9020   70.3080 C.3   280  TRP280      0.0590
     90  CG        -0.9140   16.8010   69.9280 C.ar  280  TRP280      0.0006
     91  CD1       -0.6200   17.2830   68.6800 C.ar  280  TRP280      0.0946
     92  CD2        0.0720   17.3530   70.8110 C.ar  280  TRP280      0.0152
     93  NE1        0.4950   18.1000   68.7320 N.ar  280  TRP280     -0.2442
     94  CE2        0.9420   18.1500   70.0280 C.ar  280  TRP280      0.0810
     95  CE3        0.3070   17.2470   72.1880 C.ar  280  TRP280      0.0012
     96  CZ2        2.0320   18.8380   70.5820 C.ar  280  TRP280      0.0191
     97  CZ3        1.3890   17.9230   72.7350 C.ar  280  TRP280      0.0001
     98  CH2        2.2350   18.7160   71.9330 C.ar  280  TRP280      0.0015
     99  N         -3.1640   14.2320   67.8680 N.am  281  TYR281     -0.1974
    100  CA        -3.3320   13.9200   66.4660 C.3   281  TYR281      0.1639
    101  C         -2.7610   14.9770   65.5280 C.2   281  TYR281      0.2290
    102  O         -2.8370   16.1870   65.7920 O.2   281  TYR281     -0.2864
    103  CB        -4.8060   13.7120   66.1530 C.3   281  TYR281      0.0560
    104  CG        -5.2300   12.2670   66.2080 C.ar  281  TYR281     -0.0198
    105  CD1       -4.6630   11.3320   65.3530 C.ar  281  TYR281     -0.0009
    106  CD2       -6.2060   11.8410   67.1030 C.ar  281  TYR281     -0.0009
    107  CE1       -5.0510   10.0050   65.3850 C.ar  281  TYR281      0.0417
    108  CE2       -6.6050   10.5260   67.1440 C.ar  281  TYR281      0.0417
    109  CZ        -6.0270    9.6080   66.2780 C.ar  281  TYR281      0.1957
    110  OH        -6.4160    8.2840   66.3080 O.3   281  TYR281     -0.2866
    111  N         -4.2160   12.1420   59.9050 N.3   285  GLU285     -0.1245
    112  CA        -4.3790   10.7800   60.4320 C.3   285  GLU285      0.1567
    113  C         -5.8720   10.4540   60.5200 C.2   285  GLU285      0.2260
    114  O         -6.3160    9.3520   60.1550 O.2   285  GLU285     -0.2867
    115  CB        -3.7590   10.6320   61.8420 C.3   285  GLU285      0.0388
    116  CG        -2.2060   10.7060   61.9610 C.3   285  GLU285      0.1160
    117  CD        -1.6970   10.7140   63.4480 C.2   285  GLU285      0.3649
    118  OE1       -1.5670    9.6270   64.0700 O.co2 285  GLU285     -0.2457
    119  OE2       -1.4170   11.8080   64.0060 O.co2 285  GLU285     -0.2457
    120  N          6.6780    7.9850   55.5890 N.3   370  TRP370     -0.1241
    121  CA         5.7870    8.1460   56.7360 C.3   370  TRP370      0.1605
    122  C          5.7000    9.5890   57.1830 C.2   370  TRP370      0.2264
    123  O          4.6570   10.0270   57.6860 O.2   370  TRP370     -0.2867
    124  CB         6.2360    7.2560   57.9010 C.3   370  TRP370      0.0550
    125  CG         5.7980    5.8450   57.7250 C.ar  370  TRP370      0.0003
    126  CD1        6.1710    4.9950   56.7350 C.ar  370  TRP370      0.0946
    127  CD2        4.8870    5.1190   58.5610 C.ar  370  TRP370      0.0152
    128  NE1        5.5470    3.7780   56.8960 N.ar  370  TRP370     -0.2442
    129  CE2        4.7520    3.8280   58.0090 C.ar  370  TRP370      0.0810
    130  CE3        4.1770    5.4370   59.7290 C.ar  370  TRP370      0.0012
    131  CZ2        3.9340    2.8420   58.5830 C.ar  370  TRP370      0.0191
    132  CZ3        3.3600    4.4540   60.3010 C.ar  370  TRP370      0.0001
    133  CH2        3.2510    3.1720   59.7260 C.ar  370  TRP370      0.0015
    134  N          7.9620   -2.8960   66.6740 N.3   398  TYR398     -0.1241
    135  CA         6.7860   -3.7490   66.5700 C.3   398  TYR398      0.1605
    136  C          7.0360   -5.0790   67.2840 C.2   398  TYR398      0.2264
    137  O          8.1850   -5.4650   67.5100 O.2   398  TYR398     -0.2867
    138  CB         6.4360   -4.0090   65.1080 C.3   398  TYR398      0.0534
    139  CG         6.0650   -2.7680   64.3450 C.ar  398  TYR398     -0.0201
    140  CD1        4.9940   -1.9740   64.7410 C.ar  398  TYR398     -0.0009
    141  CD2        6.7760   -2.3940   63.2190 C.ar  398  TYR398     -0.0009
    142  CE1        4.6440   -0.8250   64.0290 C.ar  398  TYR398      0.0417
    143  CE2        6.4330   -1.2620   62.4950 C.ar  398  TYR398      0.0417
    144  CZ         5.3690   -0.4810   62.9020 C.ar  398  TYR398      0.1957
    145  OH         5.0450    0.6420   62.1750 O.3   398  TYR398     -0.2866
@<TRIPOS>BOND
     1     1     2    1
     2   120   121    1
     3     7     5    1
     4   126   128   ar
     5   126   125   ar
     6   121   122    1
     7   121   124    1
     8     2     5    1
     9     2     3    1
    10     5     6    1
    11   128   129   ar
    12   122   123    2
    13    11    10    2
    14   125   124    1
    15   125   127   ar
    16     8     3   am
    17     8     9    1
    18     3     4    2
    19   129   127   ar
    20   129   131   ar
    21    10     9    1
    22   127   130   ar
    23   131   133   ar
    24     9    12    1
    25    12    13    1
    26   133   132   ar
    27   130   132   ar
    28    13    14    1
    29    13    15    1
    30   111   112    1
    31   114   113    2
    32   112   113    1
    33   112   115    1
    34   115   116    1
    35   116   117    1
    36   145   144    1
    37   143   144   ar
    38   143   141   ar
    39   144   142   ar
    40   141   139   ar
    41    16    17    1
    42   117   119   ar
    43   117   118   ar
    44    18    19    2
    45    18    17    1
    46    17    20    1
    47   142   140   ar
    48   139   140   ar
    49   139   138    1
    50   138   135    1
    51   105   107   ar
    52   105   104   ar
    53   107   109   ar
    54   101   102    2
    55   101   100    1
    56    20    21    1
    57   103   104    1
    58   103   100    1
    59    36    34   am
    60   104   106   ar
    61   109   110    1
    62   109   108   ar
    63   100    99    1
    64   135   134    1
    65   135   136    1
    66    63    62    1
    67   106   108   ar
    68   136   137    2
    69    27    26    1
    70    34    35    2
    71    34    33    1
    72    62    61    1
    73    26    23    1
    74    88    87    2
    75    99    87   am
    76    33    32    1
    77    87    86    1
    78    61    60    1
    79    91    93   ar
    80    91    90   ar
    81    93    94   ar
    82    55    53    1
    83    41    42    1
    84    41    38    1
    85    23    24    1
    86    23    22    1
    87    42    43    1
    88    54    53    1
    89    25    24    2
    90    32    29    1
    91    24    28   am
    92    86    89    1
    93    86    85    1
    94    90    89    1
    95    90    92   ar
    96    38    37    1
    97    38    39    1
    98    53    50    1
    99    60    57    1
   100    74    72   ar
   101    74    73   ar
   102    94    96   ar
   103    94    92   ar
   104    28    29    1
   105    72    70   ar
   106    85    83   am
   107    96    98   ar
   108    57    56    1
   109    57    58    1
   110    43    37    1
   111    29    30    1
   112    39    40    2
   113    39    44   am
   114    50    49    1
   115    50    51    1
   116    92    95   ar
   117    73    71   ar
   118    44    45    1
   119    49    46   am
   120    70    69   ar
   121    47    46    2
   122    83    82    1
   123    83    84    2
   124    46    45    1
   125    58    59    2
   126    82    81    1
   127    98    97   ar
   128    30    31    2
   129    51    52    2
   130    45    48    1
   131    81    77   am
   132    95    97   ar
   133    71    69   ar
   134    69    68    1
   135    67    66    2
   136    77    76    1
   137    77    78    2
   138    76    79    1
   139    76    75    1
   140    66    75   am
   141    66    65    1
   142    68    65    1
   143    79    80    1
   144    65    64    1
