@<TRIPOS>MOLECULE
tmp/4d37A02.pdb
 139 138 0 0 0
SMALL
GASTEIGER

@<TRIPOS>ATOM
      1  N         17.1600   11.4920   45.3940 N.3    40  VAL40      -0.1231
      2  CA        16.9050   11.7010   43.9690 C.3    40  VAL40       0.1692
      3  C         18.0720   11.1820   43.1270 C.2    40  VAL40       0.2591
      4  O         17.8750   10.4850   42.1350 O.2    40  VAL40      -0.2718
      5  CB        16.6650   13.1850   43.6540 C.3    40  VAL40       0.0266
      6  CG1       16.5840   13.4040   42.1470 C.3    40  VAL40       0.0020
      7  CG2       15.3980   13.6690   44.3380 C.3    40  VAL40       0.0020
      8  N         19.2810   11.5330   43.5580 N.am   41  LEU41      -0.1980
      9  CA        20.5230   11.1630   42.8940 C.3    41  LEU41       0.1596
     10  C         21.5240   10.7290   43.9600 C.2    41  LEU41       0.2287
     11  O         22.1990   11.5660   44.5600 O.2    41  LEU41      -0.2864
     12  CB        21.0900   12.3740   42.1600 C.3    41  LEU41       0.0297
     13  CG        21.0820   12.4380   40.6370 C.3    41  LEU41       0.0022
     14  CD1       21.2840   13.8750   40.2050 C.3    41  LEU41       0.0001
     15  CD2       22.1770   11.5510   40.0530 C.3    41  LEU41       0.0001
     16  N          8.7810    5.3400   36.6590 N.3   108  CYS108     -0.1235
     17  CA         7.7640    5.6930   35.6730 C.3   108  CYS108      0.1677
     18  C          6.4620    4.9420   35.9090 C.2   108  CYS108      0.2270
     19  O          6.4140    3.7000   35.8230 O.2   108  CYS108     -0.2867
     20  CB         8.2520    5.3880   34.2560 C.3   108  CYS108      0.0956
     21  SG         7.0180    5.7100   32.9970 S.3   108  CYS108     -0.0801
     22  N         14.6380   18.7450   28.6520 N.3   171  GLN171     -0.1245
     23  CA        13.5080   18.2770   27.8440 C.3   171  GLN171      0.1566
     24  C         13.5390   18.9010   26.4380 C.2   171  GLN171      0.2260
     25  O         14.2050   19.9260   26.2210 O.2   171  GLN171     -0.2867
     26  CB        12.1690   18.5790   28.5220 C.3   171  GLN171      0.0367
     27  CG        12.0170   18.0610   29.9470 C.3   171  GLN171      0.0905
     28  CD        10.6620   18.4000   30.5410 C.2   171  GLN171      0.2608
     29  OE1        9.6560   18.4950   29.8150 O.2   171  GLN171     -0.2717
     30  NE2       10.6260   18.6010   31.8730 N.am  171  GLN171     -0.0878
     31  N          5.5820   15.7200   26.8270 N.3   258  PRO258     -0.2102
     32  CA         6.5960   15.6050   27.8760 C.3   258  PRO258      0.1504
     33  C          7.7170   14.7040   27.3520 C.2   258  PRO258      0.2576
     34  O          7.5500   13.4670   27.2520 O.2   258  PRO258     -0.2718
     35  CB         5.8200   14.9310   29.0200 C.3   258  PRO258      0.0282
     36  CG         4.7830   14.0750   28.3140 C.3   258  PRO258      0.0208
     37  CD         4.5500   14.6680   26.9290 C.3   258  PRO258      0.0893
     38  N          8.8480   15.3220   27.0150 N.am  259  ALA259     -0.1966
     39  CA         9.9020   14.6130   26.3010 C.3   259  ALA259      0.1728
     40  C         11.2540   14.7360   27.0020 C.2   259  ALA259      0.2616
     41  O         11.8850   15.7880   26.9460 O.2   259  ALA259     -0.2715
     42  CB         9.9880   15.1320   24.8570 C.3   259  ALA259      0.0334
     43  N         11.7000   13.6630   27.6550 N.am  260  VAL260     -0.1977
     44  CA        12.9650   13.7040   28.4010 C.3   260  VAL260      0.1596
     45  C         14.1450   13.5380   27.4500 C.2   260  VAL260      0.2287
     46  O         14.1870   12.5800   26.6550 O.2   260  VAL260     -0.2864
     47  CB        13.0160   12.6120   29.5000 C.3   260  VAL260      0.0276
     48  CG1       14.3810   12.5620   30.1640 C.3   260  VAL260      0.0022
     49  CG2       11.9710   12.8830   30.5390 C.3   260  VAL260      0.0022
     50  N         18.7110   11.9580   29.3630 N.3   263  MET263     -0.1245
     51  CA        19.0060   10.6790   30.0040 C.3   263  MET263      0.1570
     52  C         19.7840    9.7050   29.1180 C.2   263  MET263      0.2261
     53  O         19.6260    9.6900   27.8970 O.2   263  MET263     -0.2867
     54  CB        17.7290   10.0300   30.5150 C.3   263  MET263      0.0387
     55  CG        17.2100   10.6850   31.7940 C.3   263  MET263      0.0595
     56  SD        15.8350    9.7690   32.4720 S.3   263  MET263     -0.1393
     57  CE        16.7310    8.5730   33.4740 C.3   263  MET263      0.0692
     58  N         13.0860   10.5000   24.7520 N.3   277  PHE277     -0.1227
     59  CA        11.8340    9.7600   24.7380 C.3   277  PHE277      0.1736
     60  C         10.6970   10.6500   25.2150 C.2   277  PHE277      0.2596
     61  O         10.9290   11.6530   25.8970 O.2   277  PHE277     -0.2718
     62  CB        11.9320    8.5000   25.6140 C.3   277  PHE277      0.0547
     63  CG        12.2080    8.7790   27.0800 C.ar  277  PHE277     -0.0202
     64  CD1       11.1650    9.0220   27.9650 C.ar  277  PHE277     -0.0042
     65  CD2       13.5060    8.7760   27.5720 C.ar  277  PHE277     -0.0042
     66  CE1       11.4090    9.2390   29.3210 C.ar  277  PHE277     -0.0003
     67  CE2       13.7620    9.0020   28.9220 C.ar  277  PHE277     -0.0003
     68  CZ        12.7110    9.2300   29.8000 C.ar  277  PHE277     -0.0000
     69  N          9.4710   10.2850   24.8580 N.am  278  SER278     -0.1938
     70  CA         8.3190   11.0860   25.2390 C.3   278  SER278      0.2055
     71  C          7.1050   10.2010   25.4100 C.2   278  SER278      0.2644
     72  O          6.9660    9.1670   24.7260 O.2   278  SER278     -0.2714
     73  CB         8.0380   12.1380   24.1650 C.3   278  SER278      0.2130
     74  OG         7.5230   11.5280   22.9990 O.3   278  SER278     -0.2179
     75  N          6.2280   10.5910   26.3310 N.am  279  GLY279     -0.1939
     76  CA         4.9780    9.8710   26.5270 C.3   279  GLY279      0.2014
     77  C          3.8260   10.8540   26.4680 C.2   279  GLY279      0.2639
     78  O          3.7030   11.6090   25.5060 O.2   279  GLY279     -0.2714
     79  N          2.9660   10.8180   27.4810 N.am  280  TRP280     -0.1959
     80  CA         2.0140   11.8970   27.7220 C.3   280  TRP280      0.1771
     81  C          2.0170   12.2200   29.2170 C.2   280  TRP280      0.2619
     82  O          2.4670   11.4130   30.0390 O.2   280  TRP280     -0.2715
     83  CB         0.6070   11.5600   27.2200 C.3   280  TRP280      0.0590
     84  CG         0.1070   10.2410   27.6600 C.ar  280  TRP280      0.0006
     85  CD1       -0.4260    9.9290   28.8830 C.ar  280  TRP280      0.0946
     86  CD2        0.0630    9.0320   26.8790 C.ar  280  TRP280      0.0152
     87  NE1       -0.7880    8.5960   28.9080 N.ar  280  TRP280     -0.2442
     88  CE2       -0.4960    8.0260   27.6910 C.ar  280  TRP280      0.0810
     89  CE3        0.4480    8.7060   25.5760 C.ar  280  TRP280      0.0012
     90  CZ2       -0.6840    6.7100   27.2420 C.ar  280  TRP280      0.0191
     91  CZ3        0.2640    7.4020   25.1280 C.ar  280  TRP280      0.0001
     92  CH2       -0.2970    6.4190   25.9610 C.ar  280  TRP280      0.0015
     93  N          1.5250   13.4010   29.5730 N.am  281  TYR281     -0.1974
     94  CA         1.6140   13.8440   30.9570 C.3   281  TYR281      0.1639
     95  C          0.6610   13.1070   31.8980 C.2   281  TYR281      0.2290
     96  O         -0.4680   12.7710   31.5360 O.2   281  TYR281     -0.2864
     97  CB         1.3170   15.3410   31.0460 C.3   281  TYR281      0.0560
     98  CG         2.5390   16.2180   31.0390 C.ar  281  TYR281     -0.0198
     99  CD1        3.4400   16.1880   32.0900 C.ar  281  TYR281     -0.0009
    100  CD2        2.7820   17.0970   29.9870 C.ar  281  TYR281     -0.0009
    101  CE1        4.5620   17.0030   32.0850 C.ar  281  TYR281      0.0417
    102  CE2        3.9000   17.9130   29.9740 C.ar  281  TYR281      0.0417
    103  CZ         4.7840   17.8680   31.0240 C.ar  281  TYR281      0.1957
    104  OH         5.8960   18.6860   31.0330 O.3   281  TYR281     -0.2866
    105  N          1.9920   16.0380   37.3560 N.3   285  GLU285     -0.1245
    106  CA         3.2840   16.5660   36.8990 C.3   285  GLU285      0.1567
    107  C          3.1570   18.0970   36.6630 C.2   285  GLU285      0.2260
    108  O          3.9550   18.8910   37.1770 O.2   285  GLU285     -0.2867
    109  CB         3.7680   15.8520   35.6020 C.3   285  GLU285      0.0388
    110  CG         4.3900   14.4270   35.7270 C.3   285  GLU285      0.1160
    111  CD         4.7360   13.7490   34.3260 C.2   285  GLU285      0.3649
    112  OE1        3.8410   13.1550   33.6790 O.co2 285  GLU285     -0.2457
    113  OE2        5.9070   13.7930   33.8690 O.co2 285  GLU285     -0.2457
    114  N          8.2770    7.9010   44.0550 N.3   370  TRP370     -0.1241
    115  CA         8.0750    8.5450   42.7580 C.3   370  TRP370      0.1605
    116  C          6.7750    8.0920   42.1320 C.2   370  TRP370      0.2264
    117  O          6.1600    8.8190   41.3490 O.2   370  TRP370     -0.2867
    118  CB         9.2290    8.2160   41.8220 C.3   370  TRP370      0.0550
    119  CG        10.4030    9.1200   41.9950 C.ar  370  TRP370      0.0003
    120  CD1       11.2200    9.2200   43.0890 C.ar  370  TRP370      0.0946
    121  CD2       10.9010   10.0480   41.0330 C.ar  370  TRP370      0.0152
    122  NE1       12.1990   10.1610   42.8580 N.ar  370  TRP370     -0.2442
    123  CE2       12.0220   10.6860   41.6030 C.ar  370  TRP370      0.0810
    124  CE3       10.5120   10.3950   39.7340 C.ar  370  TRP370      0.0012
    125  CZ2       12.7560   11.6610   40.9200 C.ar  370  TRP370      0.0191
    126  CZ3       11.2340   11.3640   39.0580 C.ar  370  TRP370      0.0001
    127  CH2       12.3430   11.9850   39.6490 C.ar  370  TRP370      0.0015
    128  N         20.6470    8.6830   34.6910 N.3   398  TYR398     -0.1241
    129  CA        21.0230   10.0870   34.6810 C.3   398  TYR398      0.1605
    130  C         22.4650   10.1520   34.2040 C.2   398  TYR398      0.2264
    131  O         23.1970    9.1660   34.3000 O.2   398  TYR398     -0.2867
    132  CB        20.9240   10.6650   36.0850 C.3   398  TYR398      0.0534
    133  CG        19.5180   10.7740   36.6200 C.ar  398  TYR398     -0.0201
    134  CD1       18.4960   11.3000   35.8440 C.ar  398  TYR398     -0.0009
    135  CD2       19.2150   10.3630   37.9110 C.ar  398  TYR398     -0.0009
    136  CE1       17.2110   11.4120   36.3340 C.ar  398  TYR398      0.0417
    137  CE2       17.9310   10.4670   38.4100 C.ar  398  TYR398      0.0417
    138  CZ        16.9330   10.9930   37.6180 C.ar  398  TYR398      0.1957
    139  OH        15.6520   11.0980   38.1110 O.3   398  TYR398     -0.2866
@<TRIPOS>BOND
     1    74    73    1
     2    73    70    1
     3    72    71    2
     4    59    58    1
     5    59    60    1
     6    59    62    1
     7    42    39    1
     8    69    60   am
     9    69    70    1
    10    91    89   ar
    11    91    92   ar
    12    60    61    2
    13    70    71    1
    14    71    75   am
    15    78    77    2
    16    89    86   ar
    17    62    63    1
    18    92    90   ar
    19    25    24    2
    20    39    40    1
    21    39    38    1
    22    75    76    1
    23    24    23    1
    24    77    76    1
    25    77    79   am
    26    46    45    2
    27    31    37    1
    28    31    32    1
    29    86    84   ar
    30    86    88   ar
    31    37    36    1
    32    41    40    2
    33    40    43   am
    34    38    33   am
    35    63    65   ar
    36    63    64   ar
    37    83    84    1
    38    83    80    1
    39    90    88   ar
    40    34    33    2
    41    33    32    1
    42    45    44    1
    43    79    80    1
    44    65    67   ar
    45    43    44    1
    46    84    85   ar
    47    88    87   ar
    48    80    81    1
    49    23    26    1
    50    23    22    1
    51    32    35    1
    52    53    52    2
    53    64    66   ar
    54    36    35    1
    55    44    47    1
    56    26    27    1
    57    85    87   ar
    58    67    68   ar
    59    52    51    1
    60    81    93   am
    61    81    82    2
    62    66    68   ar
    63    50    51    1
    64    47    48    1
    65    47    49    1
    66    93    94    1
    67    29    28    2
    68    27    28    1
    69   102   100   ar
    70   102   103   ar
    71   100    98   ar
    72    51    54    1
    73    54    55    1
    74    28    30   am
    75    94    97    1
    76    94    95    1
    77   103   104    1
    78   103   101   ar
    79    98    97    1
    80    98    99   ar
    81    96    95    2
    82    55    56    1
    83   101    99   ar
    84    56    57    1
    85    21    20    1
    86   112   111   ar
    87   113   111   ar
    88   130   131    2
    89   130   129    1
    90    20    17    1
    91   111   110    1
    92   129   128    1
    93   129   132    1
    94   109   110    1
    95   109   106    1
    96    17    18    1
    97    17    16    1
    98    19    18    2
    99   134   136   ar
   100   134   133   ar
   101   132   133    1
   102   136   138   ar
   103   133   135   ar
   104   107   106    1
   105   107   108    2
   106   106   105    1
   107   138   139    1
   108   138   137   ar
   109   135   137   ar
   110   126   127   ar
   111   126   124   ar
   112   127   125   ar
   113   124   121   ar
   114    15    13    1
   115    14    13    1
   116    13    12    1
   117   125   123   ar
   118   121   123   ar
   119   121   119   ar
   120   117   116    2
   121   123   122   ar
   122   118   119    1
   123   118   115    1
   124   119   120   ar
   125   116   115    1
   126     4     3    2
   127     6     5    1
   128    12     9    1
   129   115   114    1
   130   122   120   ar
   131     9     8    1
   132     9    10    1
   133     3     8   am
   134     3     2    1
   135     5     2    1
   136     5     7    1
   137    10    11    2
   138     2     1    1
