@<TRIPOS>MOLECULE
tmp/4d38A02.pdb
 153 152 0 0 0
SMALL
GASTEIGER

@<TRIPOS>ATOM
      1  N         17.2420   11.6140   45.4250 N.3    40  VAL40      -0.1231
      2  CA        16.9470   11.7750   43.9980 C.3    40  VAL40       0.1692
      3  C         18.1060   11.3270   43.1020 C.2    40  VAL40       0.2591
      4  O         17.9200   10.5710   42.1460 O.2    40  VAL40      -0.2718
      5  CB        16.6020   13.2360   43.6570 C.3    40  VAL40       0.0266
      6  CG1       16.3980   13.4040   42.1350 C.3    40  VAL40       0.0020
      7  CG2       15.3710   13.6920   44.4480 C.3    40  VAL40       0.0020
      8  N         19.2960   11.8260   43.4140 N.am   41  LEU41      -0.1980
      9  CA        20.5220   11.4070   42.7550 C.3    41  LEU41       0.1596
     10  C         21.3920   10.7430   43.8140 C.2    41  LEU41       0.2287
     11  O         22.0290   11.4190   44.6250 O.2    41  LEU41      -0.2864
     12  CB        21.2500   12.6140   42.1530 C.3    41  LEU41       0.0297
     13  CG        20.6240   13.3100   40.9420 C.3    41  LEU41       0.0022
     14  CD1       20.9030   14.7910   40.9990 C.3    41  LEU41       0.0001
     15  CD2       21.1770   12.7220   39.6520 C.3    41  LEU41       0.0001
     16  N          8.9410    5.3820   36.6650 N.3   108  CYS108     -0.1235
     17  CA         7.9120    5.6930   35.6810 C.3   108  CYS108      0.1677
     18  C          6.5810    4.9950   35.9190 C.2   108  CYS108      0.2270
     19  O          6.4780    3.7610   35.8800 O.2   108  CYS108     -0.2867
     20  CB         8.3830    5.3650   34.2640 C.3   108  CYS108      0.0956
     21  SG         7.0920    5.7000   33.0100 S.3   108  CYS108     -0.0801
     22  N         17.3850   19.4290   29.1550 N.3   170  SER170     -0.1202
     23  CA        16.8740   18.3110   29.9070 C.3   170  SER170      0.2020
     24  C         15.5810   17.8010   29.2750 C.2   170  SER170      0.2618
     25  O         15.2770   16.6060   29.3610 O.2   170  SER170     -0.2717
     26  CB        16.6580   18.7100   31.3710 C.3   170  SER170      0.2103
     27  OG        15.6260   19.6650   31.4880 O.3   170  SER170     -0.2182
     28  N         14.8240   18.6950   28.6400 N.am  171  GLN171     -0.1979
     29  CA        13.6750   18.2640   27.8410 C.3   171  GLN171      0.1601
     30  C         13.6960   18.8740   26.4410 C.2   171  GLN171      0.2287
     31  O         14.4110   19.8650   26.1890 O.2   171  GLN171     -0.2864
     32  CB        12.3550   18.6110   28.5070 C.3   171  GLN171      0.0394
     33  CG        12.1620   18.0310   29.8690 C.3   171  GLN171      0.0908
     34  CD        10.8390   18.4530   30.4690 C.2   171  GLN171      0.2608
     35  OE1        9.8420   18.6110   29.7460 O.2   171  GLN171     -0.2717
     36  NE2       10.8180   18.6530   31.7930 N.am  171  GLN171     -0.0878
     37  N          5.7540   15.7450   26.8350 N.3   258  PRO258     -0.2102
     38  CA         6.7720   15.5780   27.8680 C.3   258  PRO258      0.1504
     39  C          7.8950   14.6910   27.3450 C.2   258  PRO258      0.2576
     40  O          7.7440   13.4780   27.2770 O.2   258  PRO258     -0.2718
     41  CB         5.9980   14.8860   28.9840 C.3   258  PRO258      0.0282
     42  CG         4.9620   14.0450   28.2540 C.3   258  PRO258      0.0208
     43  CD         4.6480   14.7760   26.9750 C.3   258  PRO258      0.0893
     44  N          9.0160   15.3000   26.9830 N.am  259  ALA259     -0.1966
     45  CA        10.0870   14.5770   26.3170 C.3   259  ALA259      0.1728
     46  C         11.4200   14.7180   27.0480 C.2   259  ALA259      0.2616
     47  O         12.0060   15.7940   27.0780 O.2   259  ALA259     -0.2715
     48  CB        10.2130   15.0590   24.8630 C.3   259  ALA259      0.0334
     49  N         11.9080   13.6340   27.6370 N.am  260  VAL260     -0.1977
     50  CA        13.1460   13.7080   28.4120 C.3   260  VAL260      0.1596
     51  C         14.3130   13.5470   27.4710 C.2   260  VAL260      0.2287
     52  O         14.3160   12.6400   26.6480 O.2   260  VAL260     -0.2864
     53  CB        13.2180   12.6080   29.4880 C.3   260  VAL260      0.0276
     54  CG1       14.5540   12.6460   30.2060 C.3   260  VAL260      0.0022
     55  CG2       12.0670   12.7540   30.4780 C.3   260  VAL260      0.0022
     56  N         17.9900   14.3460   28.3660 N.3   262  ASN262     -0.1225
     57  CA        19.3420   14.3490   28.8980 C.3   262  ASN262      0.1785
     58  C         19.7130   13.0300   29.5500 C.2   262  ASN262      0.2597
     59  O         20.7700   12.9110   30.1610 O.2   262  ASN262     -0.2718
     60  CB        19.5610   15.5220   29.8600 C.3   262  ASN262      0.1169
     61  CG        18.7270   15.4230   31.1370 C.2   262  ASN262      0.2627
     62  OD1       17.6970   14.7380   31.2000 O.2   262  ASN262     -0.2716
     63  ND2       19.1680   16.1420   32.1630 N.am  262  ASN262     -0.0877
     64  N         18.8410   12.0350   29.4090 N.am  263  MET263     -0.1979
     65  CA        19.1020   10.7210   29.9900 C.3   263  MET263      0.1605
     66  C         19.9250    9.7830   29.0990 C.2   263  MET263      0.2287
     67  O         19.8000    9.7740   27.8710 O.2   263  MET263     -0.2864
     68  CB        17.8120   10.0560   30.4600 C.3   263  MET263      0.0413
     69  CG        17.2170   10.7280   31.6980 C.3   263  MET263      0.0598
     70  SD        15.9780    9.7570   32.5650 S.3   263  MET263     -0.1393
     71  CE        17.0420    8.8600   33.6840 C.3   263  MET263      0.0692
     72  N         13.3080   10.5380   24.7950 N.3   277  PHE277     -0.1227
     73  CA        12.0550    9.7920   24.7680 C.3   277  PHE277      0.1736
     74  C         10.9120   10.6680   25.2510 C.2   277  PHE277      0.2596
     75  O         11.1400   11.6540   25.9400 O.2   277  PHE277     -0.2718
     76  CB        12.1570    8.5300   25.6210 C.3   277  PHE277      0.0547
     77  CG        12.4560    8.7980   27.0700 C.ar  277  PHE277     -0.0202
     78  CD1       11.4290    9.0590   27.9680 C.ar  277  PHE277     -0.0042
     79  CD2       13.7660    8.7900   27.5340 C.ar  277  PHE277     -0.0042
     80  CE1       11.6960    9.3050   29.3160 C.ar  277  PHE277     -0.0003
     81  CE2       14.0470    9.0320   28.8850 C.ar  277  PHE277     -0.0003
     82  CZ        12.9990    9.2850   29.7740 C.ar  277  PHE277     -0.0000
     83  N          9.6870   10.2890   24.9080 N.am  278  SER278     -0.1938
     84  CA         8.5110   11.0680   25.2650 C.3   278  SER278      0.2055
     85  C          7.2750   10.1890   25.4130 C.2   278  SER278      0.2644
     86  O          7.1200    9.1690   24.7210 O.2   278  SER278     -0.2714
     87  CB         8.2420   12.1120   24.1910 C.3   278  SER278      0.2130
     88  OG         8.0500   11.4860   22.9290 O.3   278  SER278     -0.2179
     89  N          6.3880   10.6010   26.3110 N.am  279  GLY279     -0.1939
     90  CA         5.1360    9.9080   26.5460 C.3   279  GLY279      0.2014
     91  C          4.0280   10.9370   26.4830 C.2   279  GLY279      0.2639
     92  O          4.0560   11.8140   25.6380 O.2   279  GLY279     -0.2714
     93  N          3.0460   10.8210   27.3680 N.am  280  TRP280     -0.1959
     94  CA         2.1210   11.9120   27.6210 C.3   280  TRP280      0.1771
     95  C          2.1520   12.2160   29.1220 C.2   280  TRP280      0.2619
     96  O          2.7070   11.4350   29.9030 O.2   280  TRP280     -0.2715
     97  CB         0.7090   11.6000   27.1200 C.3   280  TRP280      0.0590
     98  CG         0.1690   10.2980   27.5910 C.ar  280  TRP280      0.0006
     99  CD1       -0.3990   10.0310   28.8100 C.ar  280  TRP280      0.0946
    100  CD2        0.1370    9.0660   26.8530 C.ar  280  TRP280      0.0152
    101  NE1       -0.7750    8.7050   28.8750 N.ar  280  TRP280     -0.2442
    102  CE2       -0.4630    8.0940   27.6880 C.ar  280  TRP280      0.0810
    103  CE3        0.5460    8.6950   25.5680 C.ar  280  TRP280      0.0012
    104  CZ2       -0.6560    6.7710   27.2780 C.ar  280  TRP280      0.0191
    105  CZ3        0.3630    7.3840   25.1660 C.ar  280  TRP280      0.0001
    106  CH2       -0.2390    6.4370   26.0190 C.ar  280  TRP280      0.0015
    107  N          1.5790   13.3530   29.5150 N.am  281  TYR281     -0.1974
    108  CA         1.6850   13.8230   30.8920 C.3   281  TYR281      0.1639
    109  C          0.7160   13.1180   31.8220 C.2   281  TYR281      0.2290
    110  O         -0.4430   12.8640   31.4710 O.2   281  TYR281     -0.2864
    111  CB         1.4110   15.3360   30.9930 C.3   281  TYR281      0.0560
    112  CG         2.6410   16.2070   30.9790 C.ar  281  TYR281     -0.0198
    113  CD1        3.5310   16.2030   32.0430 C.ar  281  TYR281     -0.0009
    114  CD2        2.9160   17.0420   29.8940 C.ar  281  TYR281     -0.0009
    115  CE1        4.6660   17.0080   32.0290 C.ar  281  TYR281      0.0417
    116  CE2        4.0410   17.8480   29.8770 C.ar  281  TYR281      0.0417
    117  CZ         4.9080   17.8370   30.9490 C.ar  281  TYR281      0.1957
    118  OH         6.0310   18.6420   30.9400 O.3   281  TYR281     -0.2866
    119  N          2.0350   16.1110   37.2700 N.3   285  GLU285     -0.1245
    120  CA         3.3480   16.6070   36.8610 C.3   285  GLU285      0.1567
    121  C          3.2700   18.1280   36.5870 C.2   285  GLU285      0.2260
    122  O          4.1680   18.8860   36.9620 O.2   285  GLU285     -0.2867
    123  CB         3.8690   15.8750   35.6120 C.3   285  GLU285      0.0388
    124  CG         4.5590   14.5100   35.8220 C.3   285  GLU285      0.1160
    125  CD         4.8880   13.7930   34.4660 C.2   285  GLU285      0.3649
    126  OE1        3.9540   13.3150   33.7740 O.co2 285  GLU285     -0.2457
    127  OE2        6.0820   13.7040   34.0830 O.co2 285  GLU285     -0.2457
    128  N          8.3900    7.9680   44.1220 N.3   370  TRP370     -0.1241
    129  CA         8.1390    8.5510   42.7980 C.3   370  TRP370      0.1605
    130  C          6.8510    8.0620   42.1290 C.2   370  TRP370      0.2264
    131  O          6.3410    8.7210   41.2330 O.2   370  TRP370     -0.2867
    132  CB         9.3250    8.3060   41.8670 C.3   370  TRP370      0.0550
    133  CG        10.4950    9.2260   42.0840 C.ar  370  TRP370      0.0003
    134  CD1       11.2940    9.3000   43.1930 C.ar  370  TRP370      0.0946
    135  CD2       11.0210   10.1770   41.1480 C.ar  370  TRP370      0.0152
    136  NE1       12.2770   10.2470   43.0110 N.ar  370  TRP370     -0.2442
    137  CE2       12.1310   10.8020   41.7650 C.ar  370  TRP370      0.0810
    138  CE3       10.6610   10.5630   39.8470 C.ar  370  TRP370      0.0012
    139  CZ2       12.8790   11.7990   41.1260 C.ar  370  TRP370      0.0191
    140  CZ3       11.3920   11.5540   39.2150 C.ar  370  TRP370      0.0001
    141  CH2       12.4960   12.1570   39.8520 C.ar  370  TRP370      0.0015
    142  N         20.6420    8.7850   34.6950 N.3   398  TYR398     -0.1241
    143  CA        21.0960   10.1620   34.7600 C.3   398  TYR398      0.1605
    144  C         22.5630   10.2500   34.3060 C.2   398  TYR398      0.2264
    145  O         23.3500    9.3470   34.5610 O.2   398  TYR398     -0.2867
    146  CB        21.0140   10.6250   36.2020 C.3   398  TYR398      0.0534
    147  CG        19.6170   10.8350   36.7320 C.ar  398  TYR398     -0.0201
    148  CD1       18.6440   11.4730   35.9640 C.ar  398  TYR398     -0.0009
    149  CD2       19.2740   10.4170   38.0160 C.ar  398  TYR398     -0.0009
    150  CE1       17.3690   11.6870   36.4590 C.ar  398  TYR398      0.0417
    151  CE2       18.0060   10.6330   38.5210 C.ar  398  TYR398      0.0417
    152  CZ        17.0560   11.2630   37.7380 C.ar  398  TYR398      0.1957
    153  OH        15.7910   11.4710   38.2380 O.3   398  TYR398     -0.2866
@<TRIPOS>BOND
     1    88    87    1
     2    87    84    1
     3    86    85    2
     4    73    72    1
     5    73    74    1
     6    73    76    1
     7    48    45    1
     8    83    74   am
     9    83    84    1
    10   105   103   ar
    11   105   106   ar
    12    74    75    2
    13    84    85    1
    14    85    89   am
    15   103   100   ar
    16    76    77    1
    17    92    91    2
    18   106   104   ar
    19    31    30    2
    20    89    90    1
    21    45    44    1
    22    45    46    1
    23    30    29    1
    24    91    90    1
    25    91    93   am
    26    52    51    2
    27    37    43    1
    28    37    38    1
    29   100    98   ar
    30   100   102   ar
    31    43    42    1
    32    44    39   am
    33    46    47    2
    34    46    49   am
    35    77    79   ar
    36    77    78   ar
    37    97    98    1
    38    97    94    1
    39    40    39    2
    40   104   102   ar
    41    39    38    1
    42    93    94    1
    43    51    50    1
    44    79    81   ar
    45    98    99   ar
    46    94    95    1
    47    49    50    1
    48   102   101   ar
    49    29    32    1
    50    29    28    1
    51    38    41    1
    52    67    66    2
    53    78    80   ar
    54    42    41    1
    55    56    57    1
    56    50    53    1
    57    32    33    1
    58    28    24   am
    59    99   101   ar
    60    81    82   ar
    61    57    58    1
    62    57    60    1
    63    66    65    1
    64    95   107   am
    65    95    96    2
    66    22    23    1
    67    24    25    2
    68    24    23    1
    69    80    82   ar
    70    64    58   am
    71    64    65    1
    72    53    54    1
    73    53    55    1
    74   107   108    1
    75    58    59    2
    76    35    34    2
    77    60    61    1
    78    33    34    1
    79   116   114   ar
    80   116   117   ar
    81   114   112   ar
    82    23    26    1
    83    65    68    1
    84    68    69    1
    85    34    36   am
    86   108   111    1
    87   108   109    1
    88   118   117    1
    89   117   115   ar
    90   112   111    1
    91   112   113   ar
    92    61    62    2
    93    61    63   am
    94    26    27    1
    95   110   109    2
    96    69    70    1
    97   115   113   ar
    98    70    71    1
    99    21    20    1
   100   126   125   ar
   101   127   125   ar
   102    20    17    1
   103   144   145    2
   104   144   143    1
   105   125   124    1
   106   142   143    1
   107   143   146    1
   108   123   124    1
   109   123   120    1
   110    17    18    1
   111    17    16    1
   112    19    18    2
   113   148   150   ar
   114   148   147   ar
   115   146   147    1
   116   150   152   ar
   117   121   120    1
   118   121   122    2
   119   147   149   ar
   120   120   119    1
   121   152   153    1
   122   152   151   ar
   123   149   151   ar
   124   140   138   ar
   125   140   141   ar
   126    15    13    1
   127   138   135   ar
   128   141   139   ar
   129    13    14    1
   130    13    12    1
   131   139   137   ar
   132   135   137   ar
   133   135   133   ar
   134   131   130    2
   135   137   136   ar
   136   132   133    1
   137   132   129    1
   138   133   134   ar
   139   130   129    1
   140     6     5    1
   141     4     3    2
   142    12     9    1
   143     9     8    1
   144     9    10    1
   145   129   128    1
   146   136   134   ar
   147     3     8   am
   148     3     2    1
   149     5     2    1
   150     5     7    1
   151    10    11    2
   152     2     1    1
