@<TRIPOS>MOLECULE
tmp/4d39B03.pdb
 173 171 0 0 0
SMALL
GASTEIGER

@<TRIPOS>ATOM
      1  N          6.1450   -1.7620   55.2540 N.3    38  VAL38      -0.1231
      2  CA         5.6460   -1.3440   56.5600 C.3    38  VAL38       0.1692
      3  C          6.3030   -2.1060   57.7230 C.2    38  VAL38       0.2591
      4  O          6.7900   -1.4960   58.6830 O.2    38  VAL38      -0.2718
      5  CB         4.1240   -1.5190   56.6350 C.3    38  VAL38       0.0266
      6  CG1        3.6120   -1.1980   58.0440 C.3    38  VAL38       0.0020
      7  CG2        3.4420   -0.6400   55.5840 C.3    38  VAL38       0.0020
      8  N          6.3250   -3.4330   57.6240 N.am   39  LEU39      -0.1980
      9  CA         6.8350   -4.2740   58.7090 C.3    39  LEU39       0.1596
     10  C          8.1320   -5.0020   58.3480 C.2    39  LEU39       0.2287
     11  O          8.3510   -5.3550   57.1840 O.2    39  LEU39      -0.2864
     12  CB         5.7850   -5.3270   59.1100 C.3    39  LEU39       0.0297
     13  CG         4.4040   -4.8720   59.5910 C.3    39  LEU39       0.0022
     14  CD1        3.4940   -6.0670   59.8470 C.3    39  LEU39       0.0001
     15  CD2        4.5180   -4.0000   60.8290 C.3    39  LEU39       0.0001
     16  N          7.9260    9.1390   63.1270 N.3   108  CYS108     -0.1235
     17  CA         7.1750   10.1840   63.8500 C.3   108  CYS108      0.1677
     18  C          7.4770   11.6110   63.3800 C.2   108  CYS108      0.2270
     19  O          8.6160   12.0850   63.4700 O.2   108  CYS108     -0.2867
     20  CB         7.3870   10.0720   65.3740 C.3   108  CYS108      0.0956
     21  SG         6.2770   11.1340   66.3870 S.3   108  CYS108     -0.0801
     22  N         -4.5250   -2.1870   69.8490 N.3   170  SER170     -0.1202
     23  CA        -3.4190   -1.5240   69.1700 C.3   170  SER170      0.2020
     24  C         -3.3690   -0.0450   69.5580 C.2   170  SER170      0.2618
     25  O         -2.3190    0.5930   69.4700 O.2   170  SER170     -0.2717
     26  CB        -3.4680   -1.7430   67.6440 C.3   170  SER170      0.2103
     27  OG        -4.5630   -1.0830   67.0500 O.3   170  SER170     -0.2182
     28  N         -4.4980    0.4970   70.0080 N.am  171  GLN171     -0.1979
     29  CA        -4.5210    1.8530   70.5710 C.3   171  GLN171      0.1601
     30  C         -5.3620    1.8330   71.8330 C.2   171  GLN171      0.2287
     31  O         -6.2340    0.9740   71.9590 O.2   171  GLN171     -0.2864
     32  CB        -5.1090    2.8770   69.5700 C.3   171  GLN171      0.0394
     33  CG        -4.3250    3.0430   68.2660 C.3   171  GLN171      0.0908
     34  CD        -4.9760    4.0470   67.3240 C.2   171  GLN171      0.2608
     35  OE1       -5.5210    5.0670   67.7650 O.2   171  GLN171     -0.2717
     36  NE2       -4.9310    3.7590   66.0210 N.am  171  GLN171     -0.0878
     37  N        -10.0390    3.1900   70.4920 N.3   174  ARG174     -0.1245
     38  CA       -10.3210    2.8380   69.0990 C.3   174  ARG174      0.1563
     39  C        -11.7470    2.3350   68.9500 C.2   174  ARG174      0.2260
     40  O        -12.3310    1.8160   69.9090 O.2   174  ARG174     -0.2867
     41  CB        -9.3210    1.8020   68.5710 C.3   174  ARG174      0.0307
     42  CG        -8.4090    2.3580   67.4600 C.3   174  ARG174      0.0489
     43  CD        -7.8270    1.2650   66.5760 C.3   174  ARG174      0.2205
     44  NE        -7.3000    1.8130   65.3250 N.pl3 174  ARG174     -0.0865
     45  CZ        -6.6670    1.0960   64.3970 C.cat 174  ARG174      0.5346
     46  NH1       -6.4780   -0.2110   64.5750 N.pl3 174  ARG174      0.1354
     47  NH2       -6.2130    1.6840   63.2910 N.pl3 174  ARG174      0.1354
     48  N         -4.6180   10.1400   70.6310 N.3   258  PRO258     -0.2102
     49  CA        -3.9850    9.1270   69.7840 C.3   258  PRO258      0.1504
     50  C         -2.9270    8.4180   70.6050 C.2   258  PRO258      0.2576
     51  O         -1.8870    8.9910   70.8960 O.2   258  PRO258     -0.2718
     52  CB        -3.3350    9.9630   68.6700 C.3   258  PRO258      0.0282
     53  CG        -3.0090   11.2800   69.3210 C.3   258  PRO258      0.0208
     54  CD        -3.9080   11.4290   70.5660 C.3   258  PRO258      0.0893
     55  N         -3.1980    7.1800   70.9880 N.am  259  ALA259     -0.1966
     56  CA        -2.3370    6.4950   71.9400 C.3   259  ALA259      0.1728
     57  C         -1.9820    5.0980   71.4620 C.2   259  ALA259      0.2616
     58  O         -2.8340    4.2070   71.4750 O.2   259  ALA259     -0.2715
     59  CB        -3.0220    6.4190   73.2960 C.3   259  ALA259      0.0334
     60  N         -0.7250    4.8940   71.0680 N.am  260  VAL260     -0.1977
     61  CA        -0.2970    3.5790   70.5840 C.3   260  VAL260      0.1596
     62  C         -0.0110    2.6360   71.7500 C.2   260  VAL260      0.2287
     63  O          0.7040    3.0090   72.6820 O.2   260  VAL260     -0.2864
     64  CB         0.9500    3.6870   69.6930 C.3   260  VAL260      0.0276
     65  CG1        1.4750    2.3090   69.3310 C.3   260  VAL260      0.0022
     66  CG2        0.6150    4.4570   68.4050 C.3   260  VAL260      0.0022
     67  N          0.4930   -1.0560   71.2420 N.3   262  ASN262     -0.1225
     68  CA         0.9710   -2.3690   70.7690 C.3   262  ASN262      0.1785
     69  C          2.4740   -2.4580   70.4920 C.2   262  ASN262      0.2597
     70  O          2.9550   -3.4990   70.0180 O.2   262  ASN262     -0.2718
     71  CB         0.1980   -2.8450   69.5160 C.3   262  ASN262      0.1169
     72  CG         0.3650   -1.9110   68.3150 C.2   262  ASN262      0.2627
     73  OD1        1.0570   -0.8920   68.3840 O.2   262  ASN262     -0.2716
     74  ND2       -0.2730   -2.2660   67.1960 N.am  262  ASN262     -0.0877
     75  N          3.2160   -1.3880   70.7810 N.am  263  MET263     -0.1979
     76  CA         4.6290   -1.3630   70.4070 C.3   263  MET263      0.1605
     77  C          5.5240   -1.7080   71.5780 C.2   263  MET263      0.2287
     78  O          5.1470   -1.5590   72.7490 O.2   263  MET263     -0.2864
     79  CB         5.0470   -0.0120   69.7790 C.3   263  MET263      0.0413
     80  CG         4.3590    0.2810   68.4330 C.3   263  MET263      0.0598
     81  SD         5.0840    1.6470   67.4910 S.3   263  MET263     -0.1393
     82  CE         6.5240    0.8210   66.8040 C.3   263  MET263      0.0692
     83  N          2.0260    4.8420   74.4890 N.3   277  PHE277     -0.1227
     84  CA         2.3790    6.2590   74.4540 C.3   277  PHE277      0.1736
     85  C          1.3070    7.0670   73.7300 C.2   277  PHE277      0.2596
     86  O          0.5620    6.5230   72.9090 O.2   277  PHE277     -0.2718
     87  CB         3.7580    6.4620   73.8070 C.3   277  PHE277      0.0547
     88  CG         3.8620    5.9270   72.3980 C.ar  277  PHE277     -0.0202
     89  CD1        3.5020    6.7180   71.3080 C.ar  277  PHE277     -0.0042
     90  CD2        4.3290    4.6390   72.1650 C.ar  277  PHE277     -0.0042
     91  CE1        3.6090    6.2230   69.9870 C.ar  277  PHE277     -0.0003
     92  CE2        4.4410    4.1350   70.8660 C.ar  277  PHE277     -0.0003
     93  CZ         4.0780    4.9370   69.7690 C.ar  277  PHE277     -0.0000
     94  N          1.2290    8.3630   74.0230 N.am  278  SER278     -0.1938
     95  CA         0.2690    9.2180   73.3210 C.3   278  SER278      0.2055
     96  C          0.7830   10.6400   73.1170 C.2   278  SER278      0.2644
     97  O          1.5170   11.1730   73.9510 O.2   278  SER278     -0.2714
     98  CB        -1.0650    9.2550   74.0700 C.3   278  SER278      0.2130
     99  OG        -0.8830    9.7530   75.3770 O.3   278  SER278     -0.2179
    100  N          0.3900   11.2540   72.0030 N.am  279  GLY279     -0.1939
    101  CA         0.6980   12.6570   71.7730 C.3   279  GLY279      0.2014
    102  C         -0.5750   13.4180   71.4650 C.2   279  GLY279      0.2639
    103  O         -1.5350   13.4070   72.2520 O.2   279  GLY279     -0.2714
    104  N         -0.5840   14.0900   70.3200 N.am  280  TRP280     -0.1959
    105  CA        -1.8260   14.6090   69.7700 C.3   280  TRP280      0.1771
    106  C         -1.8530   14.3270   68.2690 C.2   280  TRP280      0.2619
    107  O         -0.8160   14.1060   67.6550 O.2   280  TRP280     -0.2715
    108  CB        -2.0250   16.0990   70.0970 C.3   280  TRP280      0.0590
    109  CG        -0.8630   16.9570   69.7320 C.ar  280  TRP280      0.0006
    110  CD1       -0.5470   17.4300   68.4830 C.ar  280  TRP280      0.0946
    111  CD2        0.1410   17.4580   70.6170 C.ar  280  TRP280      0.0152
    112  NE1        0.5940   18.2020   68.5430 N.ar  280  TRP280     -0.2442
    113  CE2        1.0370   18.2320   69.8420 C.ar  280  TRP280      0.0810
    114  CE3        0.3680   17.3370   71.9900 C.ar  280  TRP280      0.0012
    115  CZ2        2.1460   18.8700   70.3990 C.ar  280  TRP280      0.0191
    116  CZ3        1.4640   17.9650   72.5400 C.ar  280  TRP280      0.0001
    117  CH2        2.3410   18.7280   71.7460 C.ar  280  TRP280      0.0015
    118  N         -3.0440   14.3200   67.6880 N.am  281  TYR281     -0.1974
    119  CA        -3.2090   13.9770   66.2930 C.3   281  TYR281      0.1639
    120  C         -2.6620   15.0440   65.3580 C.2   281  TYR281      0.2290
    121  O         -2.7460   16.2460   65.6510 O.2   281  TYR281     -0.2864
    122  CB        -4.6970   13.7830   65.9880 C.3   281  TYR281      0.0560
    123  CG        -5.1560   12.3490   66.0560 C.ar  281  TYR281     -0.0198
    124  CD1       -4.6130   11.3970   65.2150 C.ar  281  TYR281     -0.0009
    125  CD2       -6.1480   11.9500   66.9520 C.ar  281  TYR281     -0.0009
    126  CE1       -5.0320   10.0850   65.2560 C.ar  281  TYR281      0.0417
    127  CE2       -6.5730   10.6330   67.0050 C.ar  281  TYR281      0.0417
    128  CZ        -6.0110    9.7090   66.1480 C.ar  281  TYR281      0.1957
    129  OH        -6.4210    8.3890   66.1750 O.3   281  TYR281     -0.2866
    130  N         -4.2040   12.1900   59.8100 N.3   285  GLU285     -0.1245
    131  CA        -4.3430   10.8130   60.3130 C.3   285  GLU285      0.1567
    132  C         -5.8360   10.5180   60.3930 C.2   285  GLU285      0.2260
    133  O         -6.2890    9.4380   60.0000 O.2   285  GLU285     -0.2867
    134  CB        -3.7040   10.6070   61.7170 C.3   285  GLU285      0.0388
    135  CG        -2.1870   10.9290   61.8900 C.3   285  GLU285      0.1160
    136  CD        -1.6810   10.8180   63.3780 C.2   285  GLU285      0.3649
    137  OE1       -1.6930    9.7000   63.9540 O.co2 285  GLU285     -0.2457
    138  OE2       -1.2460   11.8430   63.9760 O.co2 285  GLU285     -0.2457
    139  N          6.6520    7.9710   55.3940 N.3   370  TRP370     -0.1241
    140  CA         5.7570    8.1600   56.5440 C.3   370  TRP370      0.1605
    141  C          5.6970    9.6180   56.9750 C.2   370  TRP370      0.2264
    142  O          4.6800   10.0850   57.4960 O.2   370  TRP370     -0.2867
    143  CB         6.2220    7.2970   57.7260 C.3   370  TRP370      0.0550
    144  CG         5.7540    5.8700   57.6430 C.ar  370  TRP370      0.0003
    145  CD1        6.0880    4.9460   56.6940 C.ar  370  TRP370      0.0946
    146  CD2        4.8690    5.2110   58.5550 C.ar  370  TRP370      0.0152
    147  NE1        5.4520    3.7540   56.9520 N.ar  370  TRP370     -0.2442
    148  CE2        4.7020    3.8860   58.0930 C.ar  370  TRP370      0.0810
    149  CE3        4.2010    5.6140   59.7190 C.ar  370  TRP370      0.0012
    150  CZ2        3.8900    2.9550   58.7570 C.ar  370  TRP370      0.0191
    151  CZ3        3.3950    4.6870   60.3790 C.ar  370  TRP370      0.0001
    152  CH2        3.2500    3.3710   59.8960 C.ar  370  TRP370      0.0015
    153  N          7.8580   -2.7700   66.4570 N.3   398  TYR398     -0.1227
    154  CA         6.6650   -3.5870   66.3260 C.3   398  TYR398      0.1736
    155  C          6.8810   -4.9290   67.0190 C.2   398  TYR398      0.2595
    156  O          8.0140   -5.3790   67.1900 O.2   398  TYR398     -0.2718
    157  CB         6.3420   -3.8230   64.8510 C.3   398  TYR398      0.0548
    158  CG         6.0150   -2.5630   64.0890 C.ar  398  TYR398     -0.0200
    159  CD1        4.9310   -1.7750   64.4460 C.ar  398  TYR398     -0.0009
    160  CD2        6.7740   -2.1790   62.9960 C.ar  398  TYR398     -0.0009
    161  CE1        4.6190   -0.6250   63.7370 C.ar  398  TYR398      0.0417
    162  CE2        6.4770   -1.0380   62.2800 C.ar  398  TYR398      0.0417
    163  CZ         5.4000   -0.2590   62.6530 C.ar  398  TYR398      0.1957
    164  OH         5.1050    0.8870   61.9380 O.3   398  TYR398     -0.2866
    165  N          5.7920   -5.5830   67.3980 N.am  399  GLN399     -0.1979
    166  CA         5.8810   -6.9240   67.9620 C.3   399  GLN399      0.1601
    167  C          4.6200   -7.6480   67.5370 C.2   399  GLN399      0.2287
    168  O          3.6540   -7.0010   67.1130 O.2   399  GLN399     -0.2864
    169  CB         6.0380   -6.8690   69.4940 C.3   399  GLN399      0.0394
    170  CG         4.8210   -6.3940   70.2610 C.3   399  GLN399      0.0908
    171  CD         5.1240   -6.0940   71.7330 C.2   399  GLN399      0.2608
    172  OE1        5.8330   -6.8400   72.4100 O.2   399  GLN399     -0.2717
    173  NE2        4.5880   -4.9950   72.2220 N.am  399  GLN399     -0.0878
@<TRIPOS>BOND
     1     1     2    1
     2   139   140    1
     3     7     5    1
     4   140   141    1
     5   140   143    1
     6     2     5    1
     7     2     3    1
     8     5     6    1
     9   145   147   ar
    10   145   144   ar
    11   147   148   ar
    12   141   142    2
    13    11    10    2
    14     8     3   am
    15     8     9    1
    16   144   143    1
    17   144   146   ar
    18     3     4    2
    19   148   146   ar
    20   148   150   ar
    21    10     9    1
    22   146   149   ar
    23     9    12    1
    24   150   152   ar
    25    12    13    1
    26    13    14    1
    27    13    15    1
    28   149   151   ar
    29   130   131    1
    30   152   151   ar
    31   133   132    2
    32   131   132    1
    33   131   134    1
    34   134   135    1
    35   135   136    1
    36   164   163    1
    37   162   163   ar
    38   162   160   ar
    39   163   161   ar
    40   160   158   ar
    41    16    17    1
    42    47    45    1
    43   136   137   ar
    44   136   138   ar
    45    18    19    2
    46    18    17    1
    47   161   159   ar
    48    17    20    1
    49   158   159   ar
    50   158   157    1
    51    45    46    1
    52    45    44    2
    53   157   154    1
    54   124   126   ar
    55   124   123   ar
    56   126   128   ar
    57    44    43    1
    58   120   121    2
    59   120   119    1
    60    20    21    1
    61   122   123    1
    62   122   119    1
    63    36    34   am
    64   123   125   ar
    65   128   129    1
    66   128   127   ar
    67   119   118    1
    68   154   153    1
    69   154   155    1
    70    43    42    1
    71    82    81    1
    72   125   127   ar
    73   155   156    2
    74   155   165   am
    75    27    26    1
    76   168   167    2
    77    74    72   am
    78    34    35    2
    79    34    33    1
    80   165   166    1
    81    42    41    1
    82    81    80    1
    83   167   166    1
    84    26    23    1
    85   107   106    2
    86   118   106   am
    87   166   169    1
    88    33    32    1
    89   106   105    1
    90    72    73    2
    91    72    71    1
    92    66    64    1
    93    80    79    1
    94   110   112   ar
    95   110   109   ar
    96   112   113   ar
    97    41    38    1
    98    52    53    1
    99    52    49    1
   100    39    38    1
   101    39    40    2
   102    38    37    1
   103    23    24    1
   104    23    22    1
   105    53    54    1
   106    65    64    1
   107    25    24    2
   108   169   170    1
   109    71    68    1
   110    24    28   am
   111    32    29    1
   112    64    61    1
   113   109   108    1
   114   109   111   ar
   115    93    91   ar
   116    93    92   ar
   117   105   108    1
   118   105   104    1
   119    79    76    1
   120    49    50    1
   121    49    48    1
   122   113   115   ar
   123   113   111   ar
   124    91    89   ar
   125    28    29    1
   126    70    69    2
   127   170   171    1
   128   104   102   am
   129   115   117   ar
   130    76    75    1
   131    76    77    1
   132    69    68    1
   133    69    75   am
   134    54    48    1
   135    29    30    1
   136    61    60    1
   137    61    62    1
   138    50    51    2
   139    50    55   am
   140   111   114   ar
   141    68    67    1
   142    92    90   ar
   143    55    56    1
   144    60    57   am
   145    89    88   ar
   146    57    58    2
   147    57    56    1
   148   102   101    1
   149   102   103    2
   150    77    78    2
   151   171   173   am
   152   171   172    2
   153   117   116   ar
   154    62    63    2
   155   101   100    1
   156    30    31    2
   157    56    59    1
   158   114   116   ar
   159   100    96   am
   160    90    88   ar
   161    88    87    1
   162    86    85    2
   163    96    95    1
   164    96    97    2
   165    95    94    1
   166    95    98    1
   167    85    94   am
   168    85    84    1
   169    87    84    1
   170    98    99    1
   171    84    83    1
