@<TRIPOS>MOLECULE
tmp/4d39B04.pdb
 103 99 0 0 0
SMALL
GASTEIGER

@<TRIPOS>ATOM
      1  N         -3.6990   -5.8340   74.5360 N.3   168  TRP168     -0.1241
      2  CA        -4.0520   -6.4610   73.2570 C.3   168  TRP168      0.1605
      3  C         -4.5130   -5.4540   72.2180 C.2   168  TRP168      0.2264
      4  O         -4.3340   -5.6760   71.0210 O.2   168  TRP168     -0.2867
      5  CB        -5.0990   -7.5660   73.4210 C.3   168  TRP168      0.0550
      6  CG        -4.5240   -8.8400   73.9880 C.ar  168  TRP168      0.0003
      7  CD1       -3.4690   -8.9480   74.8540 C.ar  168  TRP168      0.0946
      8  CD2       -4.9600  -10.1840   73.7150 C.ar  168  TRP168      0.0152
      9  NE1       -3.2290  -10.2780   75.1370 N.ar  168  TRP168     -0.2442
     10  CE2       -4.1290  -11.0530   74.4550 C.ar  168  TRP168      0.0810
     11  CE3       -5.9780  -10.7340   72.9230 C.ar  168  TRP168      0.0012
     12  CZ2       -4.2850  -12.4420   74.4310 C.ar  168  TRP168      0.0191
     13  CZ3       -6.1330  -12.1170   72.8990 C.ar  168  TRP168      0.0001
     14  CH2       -5.2910  -12.9570   73.6510 C.ar  168  TRP168      0.0015
     15  N         -4.5250   -2.1870   69.8490 N.3   170  SER170     -0.1217
     16  CA        -3.4190   -1.5240   69.1700 C.3   170  SER170      0.1889
     17  C         -3.3690   -0.0450   69.5580 C.2   170  SER170      0.2288
     18  O         -2.3190    0.5930   69.4700 O.2   170  SER170     -0.2866
     19  CB        -3.4680   -1.7430   67.6440 C.3   170  SER170      0.2089
     20  OG        -4.5630   -1.0830   67.0500 O.3   170  SER170     -0.2183
     21  N        -10.0390    3.1900   70.4920 N.3   174  ARG174     -0.1245
     22  CA       -10.3210    2.8380   69.0990 C.3   174  ARG174      0.1563
     23  C        -11.7470    2.3350   68.9500 C.2   174  ARG174      0.2260
     24  O        -12.3310    1.8160   69.9090 O.2   174  ARG174     -0.2867
     25  CB        -9.3210    1.8020   68.5710 C.3   174  ARG174      0.0307
     26  CG        -8.4090    2.3580   67.4600 C.3   174  ARG174      0.0489
     27  CD        -7.8270    1.2650   66.5760 C.3   174  ARG174      0.2205
     28  NE        -7.3000    1.8130   65.3250 N.pl3 174  ARG174     -0.0865
     29  CZ        -6.6670    1.0960   64.3970 C.cat 174  ARG174      0.5346
     30  NH1       -6.4780   -0.2110   64.5750 N.pl3 174  ARG174      0.1354
     31  NH2       -6.2130    1.6840   63.2910 N.pl3 174  ARG174      0.1354
     32  N        -10.5800   -1.8340   60.4120 N.3   190  ALA190     -0.1231
     33  CA        -9.2420   -2.0940   60.9120 C.3   190  ALA190      0.1694
     34  C         -9.3000   -2.8920   62.2150 C.2   190  ALA190      0.2592
     35  O         -8.2970   -3.4440   62.6550 O.2   190  ALA190     -0.2718
     36  CB        -8.5020   -0.7770   61.1260 C.3   190  ALA190      0.0304
     37  N        -10.4770   -2.9550   62.8300 N.am  191  ASN191     -0.1974
     38  CA       -10.5690   -3.4700   64.1910 C.3   191  ASN191      0.1688
     39  C        -11.5100   -4.6410   64.3510 C.2   191  ASN191      0.2292
     40  O        -11.9230   -4.9510   65.4680 O.2   191  ASN191     -0.2864
     41  CB       -10.9680   -2.3470   65.1530 C.3   191  ASN191      0.1181
     42  CG        -9.9610   -1.2250   65.1590 C.2   191  ASN191      0.2629
     43  OD1       -8.7550   -1.4690   65.0940 O.2   191  ASN191     -0.2716
     44  ND2      -10.4440    0.0140   65.2240 N.am  191  ASN191     -0.0877
     45  N        -10.9470   -7.7620   64.1310 N.3   193  GLU193     -0.1231
     46  CA       -10.3990   -8.8880   64.8750 C.3   193  GLU193      0.1699
     47  C        -10.3970   -8.6220   66.3820 C.2   193  GLU193      0.2592
     48  O        -10.9220   -9.4300   67.1660 O.2   193  GLU193     -0.2718
     49  CB        -9.0030   -9.2590   64.3660 C.3   193  GLU193      0.0402
     50  CG        -8.5020  -10.5850   64.9320 C.3   193  GLU193      0.1161
     51  CD        -7.3220  -11.1640   64.1720 C.2   193  GLU193      0.3649
     52  OE1       -6.6250  -10.4000   63.4730 O.co2 193  GLU193     -0.2457
     53  OE2       -7.0960  -12.3900   64.2780 O.co2 193  GLU193     -0.2457
     54  N         -9.8250   -7.4900   66.7890 N.am  194  ILE194     -0.1980
     55  CA        -9.8220   -7.1290   68.2070 C.3   194  ILE194      0.1595
     56  C        -11.2480   -6.9960   68.7580 C.2   194  ILE194      0.2287
     57  O        -11.5070   -7.3550   69.9120 O.2   194  ILE194     -0.2864
     58  CB        -8.9970   -5.8450   68.4690 C.3   194  ILE194      0.0276
     59  CG1       -8.8580   -5.6170   69.9710 C.3   194  ILE194      0.0022
     60  CG2       -9.5900   -4.6390   67.7460 C.3   194  ILE194      0.0022
     61  CD1       -7.9940   -6.6890   70.6390 C.3   194  ILE194      0.0001
     62  N          0.4930   -1.0560   71.2420 N.3   262  ASN262     -0.1240
     63  CA         0.9710   -2.3690   70.7690 C.3   262  ASN262      0.1653
     64  C          2.4740   -2.4580   70.4920 C.2   262  ASN262      0.2266
     65  O          2.9550   -3.4990   70.0180 O.2   262  ASN262     -0.2867
     66  CB         0.1980   -2.8450   69.5160 C.3   262  ASN262      0.1155
     67  CG         0.3650   -1.9110   68.3150 C.2   262  ASN262      0.2627
     68  OD1        1.0570   -0.8920   68.3840 O.2   262  ASN262     -0.2716
     69  ND2       -0.2730   -2.2660   67.1960 N.am  262  ASN262     -0.0877
     70  N          7.8580   -2.7700   66.4570 N.3   398  TYR398     -0.1241
     71  CA         6.6650   -3.5870   66.3260 C.3   398  TYR398      0.1605
     72  C          6.8810   -4.9290   67.0190 C.2   398  TYR398      0.2264
     73  O          8.0140   -5.3790   67.1900 O.2   398  TYR398     -0.2867
     74  CB         6.3420   -3.8230   64.8510 C.3   398  TYR398      0.0534
     75  CG         6.0150   -2.5630   64.0890 C.ar  398  TYR398     -0.0201
     76  CD1        4.9310   -1.7750   64.4460 C.ar  398  TYR398     -0.0009
     77  CD2        6.7740   -2.1790   62.9960 C.ar  398  TYR398     -0.0009
     78  CE1        4.6190   -0.6250   63.7370 C.ar  398  TYR398      0.0417
     79  CE2        6.4770   -1.0380   62.2800 C.ar  398  TYR398      0.0417
     80  CZ         5.4000   -0.2590   62.6530 C.ar  398  TYR398      0.1957
     81  OH         5.1050    0.8870   61.9380 O.3   398  TYR398     -0.2866
     82  N          1.0560   -9.4970   67.4200 N.3   401  ASP401     -0.1239
     83  CA        -0.1860   -9.5230   68.1830 C.3   401  ASP401      0.1674
     84  C         -0.1720  -10.7620   69.0950 C.2   401  ASP401      0.2266
     85  O          0.1280  -11.8640   68.6370 O.2   401  ASP401     -0.2867
     86  CB        -1.3990   -9.5330   67.2420 C.3   401  ASP401      0.1410
     87  CG        -1.5880   -8.2090   66.5190 C.2   401  ASP401      0.3668
     88  OD1       -1.2800   -7.1590   67.1170 O.co2 401  ASP401     -0.2456
     89  OD2       -2.0470   -8.2110   65.3510 O.co2 401  ASP401     -0.2456
     90  N         -2.1550  -12.7870   70.4120 N.3   403  TRP403     -0.1241
     91  CA        -3.0030  -13.9550   70.1800 C.3   403  TRP403      0.1605
     92  C         -2.5090  -14.7790   68.9860 C.2   403  TRP403      0.2264
     93  O         -1.7340  -14.3030   68.1500 O.2   403  TRP403     -0.2867
     94  CB        -4.4640  -13.5360   69.9750 C.3   403  TRP403      0.0550
     95  CG        -4.6820  -12.6860   68.7630 C.ar  403  TRP403      0.0003
     96  CD1       -4.9260  -13.1200   67.4890 C.ar  403  TRP403      0.0946
     97  CD2       -4.6810  -11.2520   68.7050 C.ar  403  TRP403      0.0152
     98  NE1       -5.0740  -12.0420   66.6450 N.ar  403  TRP403     -0.2442
     99  CE2       -4.9320  -10.8860   67.3680 C.ar  403  TRP403      0.0810
    100  CE3       -4.5000  -10.2440   69.6550 C.ar  403  TRP403      0.0012
    101  CZ2       -5.0000   -9.5550   66.9570 C.ar  403  TRP403      0.0191
    102  CZ3       -4.5670   -8.9220   69.2420 C.ar  403  TRP403      0.0001
    103  CH2       -4.8180   -8.5920   67.9060 C.ar  403  TRP403      0.0015
@<TRIPOS>BOND
     1    32    33    1
     2    33    36    1
     3    33    34    1
     4    81    80    1
     5    34    35    2
     6    34    37   am
     7    79    80   ar
     8    79    77   ar
     9    80    78   ar
    10    37    38    1
    11    77    75   ar
    12    31    29    1
    13    52    51   ar
    14    78    76   ar
    15    75    76   ar
    16    75    74    1
    17    45    46    1
    18    51    53   ar
    19    51    50    1
    20    38    39    1
    21    38    41    1
    22    39    40    2
    23    49    46    1
    24    49    50    1
    25    29    30    1
    26    29    28    2
    27    74    71    1
    28    46    47    1
    29    43    42    2
    30    41    42    1
    31    42    44   am
    32    28    27    1
    33    89    87   ar
    34    71    70    1
    35    71    72    1
    36    47    54   am
    37    47    48    2
    38    87    88   ar
    39    87    86    1
    40    27    26    1
    41    98    99   ar
    42    98    96   ar
    43    54    55    1
    44   101    99   ar
    45   101   103   ar
    46    72    73    2
    47    20    19    1
    48    69    67   am
    49    86    83    1
    50    99    97   ar
    51    82    83    1
    52    26    25    1
    53    96    95   ar
    54    19    16    1
    55    60    58    1
    56   103   102   ar
    57    93    92    2
    58    83    84    1
    59    55    58    1
    60    55    56    1
    61    67    68    2
    62    67    66    1
    63    58    59    1
    64    25    22    1
    65    85    84    2
    66    97    95   ar
    67    97   100   ar
    68    56    57    2
    69    95    94    1
    70    23    22    1
    71    23    24    2
    72    92    91    1
    73    22    21    1
    74    16    17    1
    75    16    15    1
    76   102   100   ar
    77    18    17    2
    78    66    63    1
    79    59    61    1
    80    94    91    1
    81    65    64    2
    82    91    90    1
    83    64    63    1
    84    63    62    1
    85     4     3    2
    86     3     2    1
    87    13    11   ar
    88    13    14   ar
    89    11     8   ar
    90     2     5    1
    91     2     1    1
    92     5     6    1
    93    14    12   ar
    94     8     6   ar
    95     8    10   ar
    96     6     7   ar
    97    12    10   ar
    98    10     9   ar
    99     7     9   ar
