@<TRIPOS>MOLECULE
tmp/4d3aA02.pdb
 178 177 0 0 0
SMALL
GASTEIGER

@<TRIPOS>ATOM
      1  N         17.3210   11.6600   45.4830 N.3    40  VAL40      -0.1231
      2  CA        17.0800   11.8520   44.0450 C.3    40  VAL40       0.1692
      3  C         18.2340   11.3640   43.1600 C.2    40  VAL40       0.2591
      4  O         18.0280   10.6000   42.2120 O.2    40  VAL40      -0.2718
      5  CB        16.7780   13.3110   43.7170 C.3    40  VAL40       0.0266
      6  CG1       16.5340   13.4720   42.2200 C.3    40  VAL40       0.0020
      7  CG2       15.5650   13.7890   44.5140 C.3    40  VAL40       0.0020
      8  N         19.4380   11.8300   43.4730 N.am   41  LEU41      -0.1980
      9  CA        20.6580   11.3720   42.8290 C.3    41  LEU41       0.1596
     10  C         21.4900   10.6770   43.8900 C.2    41  LEU41       0.2287
     11  O         22.0920   11.3420   44.7400 O.2    41  LEU41      -0.2864
     12  CB        21.4760   12.5570   42.3090 C.3    41  LEU41       0.0297
     13  CG        20.7860   13.7200   41.5970 C.3    41  LEU41       0.0022
     14  CD1       21.6910   14.9540   41.5640 C.3    41  LEU41       0.0001
     15  CD2       20.3670   13.3140   40.1940 C.3    41  LEU41       0.0001
     16  N         12.6720    1.1500   29.3630 N.3   103  TRP103     -0.1241
     17  CA        11.4560    1.8070   29.8420 C.3   103  TRP103      0.1605
     18  C         10.7480    0.8950   30.8310 C.2   103  TRP103      0.2264
     19  O         10.3060    1.3200   31.9050 O.2   103  TRP103     -0.2867
     20  CB        10.5190    2.1310   28.6770 C.3   103  TRP103      0.0550
     21  CG         9.2190    2.8480   29.0640 C.ar  103  TRP103      0.0003
     22  CD1        8.9010    3.3990   30.2830 C.ar  103  TRP103      0.0946
     23  CD2        8.0810    3.0780   28.2160 C.ar  103  TRP103      0.0152
     24  NE1        7.6410    3.9510   30.2360 N.ar  103  TRP103     -0.2442
     25  CE2        7.1120    3.7610   28.9780 C.ar  103  TRP103      0.0810
     26  CE3        7.7900    2.7750   26.8770 C.ar  103  TRP103      0.0012
     27  CZ2        5.8710    4.1420   28.4580 C.ar  103  TRP103      0.0191
     28  CZ3        6.5560    3.1560   26.3540 C.ar  103  TRP103      0.0001
     29  CH2        5.6140    3.8330   27.1430 C.ar  103  TRP103      0.0015
     30  N          8.9150    5.3760   36.7090 N.3   109  CYS109     -0.1235
     31  CA         7.8900    5.7120   35.7310 C.3   109  CYS109      0.1677
     32  C          6.5240    5.0410   35.9790 C.2   109  CYS109      0.2270
     33  O          6.3680    3.8130   35.8910 O.2   109  CYS109     -0.2867
     34  CB         8.3620    5.3690   34.3140 C.3   109  CYS109      0.0956
     35  SG         7.1400    5.8350   33.0710 S.3   109  CYS109     -0.0801
     36  N         17.4080   19.5480   29.1140 N.3   171  SER171     -0.1202
     37  CA        16.9200   18.4160   29.8870 C.3   171  SER171      0.2020
     38  C         15.6390   17.8850   29.2660 C.2   171  SER171      0.2618
     39  O         15.3280   16.6920   29.3790 O.2   171  SER171     -0.2717
     40  CB        16.6790   18.8100   31.3430 C.3   171  SER171      0.2103
     41  OG        15.6760   19.8040   31.4430 O.3   171  SER171     -0.2182
     42  N         14.9020   18.7670   28.5980 N.am  172  GLN172     -0.1979
     43  CA        13.7340   18.3430   27.8280 C.3   172  GLN172      0.1601
     44  C         13.7590   18.9930   26.4440 C.2   172  GLN172      0.2287
     45  O         14.3700   20.0570   26.2670 O.2   172  GLN172     -0.2864
     46  CB        12.4230   18.7010   28.5420 C.3   172  GLN172      0.0394
     47  CG        12.1390   17.9610   29.8270 C.3   172  GLN172      0.0908
     48  CD        10.8240   18.4110   30.4620 C.2   172  GLN172      0.2608
     49  OE1        9.7980   18.5480   29.7690 O.2   172  GLN172     -0.2717
     50  NE2       10.8530   18.6730   31.7800 N.am  172  GLN172     -0.0878
     51  N         10.9560   23.0800   26.8150 N.3   175  ARG175     -0.1245
     52  CA        10.9050   23.6530   28.1580 C.3   175  ARG175      0.1563
     53  C         10.9440   25.1810   28.1120 C.2   175  ARG175      0.2260
     54  O         11.4480   25.7750   27.1500 O.2   175  ARG175     -0.2867
     55  CB        12.0230   23.0880   29.0500 C.3   175  ARG175      0.0307
     56  CG        11.4970   22.1660   30.1610 C.3   175  ARG175      0.0489
     57  CD        12.4840   22.0440   31.3050 C.3   175  ARG175      0.2205
     58  NE        11.8560   21.6010   32.5510 N.pl3 175  ARG175     -0.0865
     59  CZ        12.5310   21.3180   33.6650 C.cat 175  ARG175      0.5346
     60  NH1       13.8560   21.4280   33.6740 N.pl3 175  ARG175      0.1354
     61  NH2       11.8920   20.9100   34.7650 N.pl3 175  ARG175      0.1354
     62  N          5.8280   15.9960   26.6760 N.3   259  PRO259     -0.2102
     63  CA         6.9740   15.9080   27.5820 C.3   259  PRO259      0.1504
     64  C          8.0220   15.0000   26.9610 C.2   259  PRO259      0.2576
     65  O          7.7200   13.8730   26.5700 O.2   259  PRO259     -0.2718
     66  CB         6.3730   15.2630   28.8290 C.3   259  PRO259      0.0282
     67  CG         5.2680   14.3670   28.2700 C.3   259  PRO259      0.0208
     68  CD         4.7380   15.0700   27.0420 C.3   259  PRO259      0.0893
     69  N          9.2470   15.4900   26.8520 N.am  260  ALA260     -0.1966
     70  CA        10.2820   14.7160   26.2030 C.3   260  ALA260      0.1728
     71  C         11.6100   14.8750   26.9340 C.2   260  ALA260      0.2616
     72  O         12.2510   15.9260   26.8600 O.2   260  ALA260     -0.2715
     73  CB        10.4020   15.1430   24.7530 C.3   260  ALA260      0.0334
     74  N         12.0220   13.8280   27.6390 N.am  261  VAL261     -0.1977
     75  CA        13.2710   13.8610   28.4000 C.3   261  VAL261      0.1596
     76  C         14.4520   13.6740   27.4520 C.2   261  VAL261      0.2287
     77  O         14.4620   12.7400   26.6430 O.2   261  VAL261     -0.2864
     78  CB        13.2770   12.7620   29.4760 C.3   261  VAL261      0.0276
     79  CG1       14.6190   12.7000   30.1800 C.3   261  VAL261      0.0022
     80  CG2       12.1620   13.0250   30.4870 C.3   261  VAL261      0.0022
     81  N         18.0920   14.3330   28.3420 N.3   263  ASN263     -0.1225
     82  CA        19.4500   14.3610   28.8670 C.3   263  ASN263      0.1785
     83  C         19.8200   13.0820   29.6040 C.2   263  ASN263      0.2597
     84  O         20.8540   13.0170   30.2840 O.2   263  ASN263     -0.2718
     85  CB        19.6530   15.5760   29.7710 C.3   263  ASN263      0.1169
     86  CG        18.8060   15.5180   31.0280 C.2   263  ASN263      0.2627
     87  OD1       17.8360   14.7480   31.1250 O.2   263  ASN263     -0.2716
     88  ND2       19.1580   16.3480   32.0010 N.am  263  ASN263     -0.0877
     89  N         18.9750   12.0620   29.4750 N.am  264  MET264     -0.1979
     90  CA        19.2760   10.7750   30.0990 C.3   264  MET264      0.1605
     91  C         20.0570    9.8410   29.1750 C.2   264  MET264      0.2287
     92  O         19.9480    9.9060   27.9480 O.2   264  MET264     -0.2864
     93  CB        18.0140   10.1040   30.6250 C.3   264  MET264      0.0413
     94  CG        17.4020   10.8390   31.8180 C.3   264  MET264      0.0598
     95  SD        16.0230    9.9140   32.5110 S.3   264  MET264     -0.1393
     96  CE        16.9280    8.8570   33.6790 C.3   264  MET264      0.0692
     97  N         13.3880   10.5620   24.8590 N.3   278  PHE278     -0.1227
     98  CA        12.1290    9.8230   24.8360 C.3   278  PHE278      0.1736
     99  C         10.9770   10.7340   25.2470 C.2   278  PHE278      0.2596
    100  O         11.1660   11.6710   26.0440 O.2   278  PHE278     -0.2718
    101  CB        12.1950    8.5740   25.7260 C.3   278  PHE278      0.0547
    102  CG        12.5380    8.8580   27.1550 C.ar  278  PHE278     -0.0202
    103  CD1       11.5450    9.2140   28.0710 C.ar  278  PHE278     -0.0042
    104  CD2       13.8470    8.7650   27.5910 C.ar  278  PHE278     -0.0042
    105  CE1       11.8580    9.4780   29.3990 C.ar  278  PHE278     -0.0003
    106  CE2       14.1830    9.0380   28.9240 C.ar  278  PHE278     -0.0003
    107  CZ        13.1860    9.3850   29.8280 C.ar  278  PHE278     -0.0000
    108  N          9.7970   10.4830   24.6790 N.am  279  SER279     -0.1938
    109  CA         8.6100   11.2570   25.0190 C.3   279  SER279      0.2055
    110  C          7.4410   10.3170   25.2610 C.2   279  SER279      0.2644
    111  O          7.3920    9.2200   24.7020 O.2   279  SER279     -0.2714
    112  CB         8.2650   12.2380   23.9050 C.3   279  SER279      0.2130
    113  OG         7.8940   11.5550   22.7200 O.3   279  SER279     -0.2179
    114  N          6.5090   10.7440   26.1030 N.am  280  GLY280     -0.1939
    115  CA         5.2900    9.9950   26.3490 C.3   280  GLY280      0.2014
    116  C          4.1200   10.9680   26.3070 C.2   280  GLY280      0.2639
    117  O          3.9260   11.6710   25.3110 O.2   280  GLY280     -0.2714
    118  N          3.3360   10.9930   27.3820 N.am  281  TRP281     -0.1959
    119  CA         2.3770   12.0690   27.6160 C.3   281  TRP281      0.1771
    120  C          2.3040   12.3260   29.1230 C.2   281  TRP281      0.2619
    121  O          2.6270   11.4430   29.9340 O.2   281  TRP281     -0.2715
    122  CB         0.9960   11.7460   27.0170 C.3   281  TRP281      0.0590
    123  CG         0.4170   10.4540   27.4850 C.ar  281  TRP281      0.0006
    124  CD1       -0.1930   10.2110   28.6870 C.ar  281  TRP281      0.0946
    125  CD2        0.3980    9.2110   26.7650 C.ar  281  TRP281      0.0152
    126  NE1       -0.5890    8.8930   28.7530 N.ar  281  TRP281     -0.2442
    127  CE2       -0.2410    8.2600   27.5890 C.ar  281  TRP281      0.0810
    128  CE3        0.8580    8.8140   25.5110 C.ar  281  TRP281      0.0012
    129  CZ2       -0.4320    6.9310   27.1890 C.ar  281  TRP281      0.0191
    130  CZ3        0.6660    7.4940   25.1120 C.ar  281  TRP281      0.0001
    131  CH2        0.0310    6.5670   25.9500 C.ar  281  TRP281      0.0015
    132  N          1.8890   13.5270   29.5120 N.am  282  TYR282     -0.1974
    133  CA         1.9440   13.9050   30.9210 C.3   282  TYR282      0.1639
    134  C          0.9390   13.1760   31.8070 C.2   282  TYR282      0.2290
    135  O         -0.1970   12.8750   31.3930 O.2   282  TYR282     -0.2864
    136  CB         1.6660   15.3900   31.0830 C.3   282  TYR282      0.0560
    137  CG         2.8800   16.2690   31.0390 C.ar  282  TYR282     -0.0198
    138  CD1        3.8430   16.2020   32.0310 C.ar  282  TYR282     -0.0009
    139  CD2        3.0450   17.1970   30.0190 C.ar  282  TYR282     -0.0009
    140  CE1        4.9490   17.0280   31.9970 C.ar  282  TYR282      0.0417
    141  CE2        4.1390   18.0260   29.9780 C.ar  282  TYR282      0.0417
    142  CZ         5.0880   17.9390   30.9660 C.ar  282  TYR282      0.1957
    143  OH         6.1830   18.7620   30.9260 O.3   282  TYR282     -0.2866
    144  N          2.1860   16.2080   37.2240 N.3   286  GLU286     -0.1245
    145  CA         3.4880   16.7200   36.7580 C.3   286  GLU286      0.1567
    146  C          3.3760   18.2290   36.4760 C.2   286  GLU286      0.2260
    147  O          4.2590   19.0240   36.8300 O.2   286  GLU286     -0.2867
    148  CB         3.9690   15.9870   35.4730 C.3   286  GLU286      0.0388
    149  CG         4.6600   14.6060   35.6370 C.3   286  GLU286      0.1160
    150  CD         4.8780   13.8300   34.2890 C.2   286  GLU286      0.3649
    151  OE1        3.8920   13.4710   33.6020 O.co2 286  GLU286     -0.2457
    152  OE2        6.0420   13.5290   33.9140 O.co2 286  GLU286     -0.2457
    153  N          8.2880    8.0020   44.0910 N.3   371  TRP371     -0.1241
    154  CA         8.0650    8.6400   42.7770 C.3   371  TRP371      0.1605
    155  C          6.7980    8.1520   42.1050 C.2   371  TRP371      0.2264
    156  O          6.1990    8.8640   41.2990 O.2   371  TRP371     -0.2867
    157  CB         9.2360    8.3740   41.8210 C.3   371  TRP371      0.0550
    158  CG        10.4310    9.1990   42.1250 C.ar  371  TRP371      0.0003
    159  CD1       11.1610    9.2000   43.2880 C.ar  371  TRP371      0.0946
    160  CD2       11.0480   10.1640   41.2600 C.ar  371  TRP371      0.0152
    161  NE1       12.1930   10.1130   43.1920 N.ar  371  TRP371     -0.2442
    162  CE2       12.1470   10.7130   41.9590 C.ar  371  TRP371      0.0810
    163  CE3       10.7740   10.6200   39.9690 C.ar  371  TRP371      0.0012
    164  CZ2       12.9750   11.6930   41.4020 C.ar  371  TRP371      0.0191
    165  CZ3       11.6010   11.5940   39.4100 C.ar  371  TRP371      0.0001
    166  CH2       12.6860   12.1190   40.1280 C.ar  371  TRP371      0.0015
    167  N         20.8140    8.8370   34.8140 N.3   399  TYR399     -0.1241
    168  CA        21.2930   10.2170   34.7960 C.3   399  TYR399      0.1605
    169  C         22.7350   10.2560   34.3060 C.2   399  TYR399      0.2264
    170  O         23.4790    9.2920   34.4720 O.2   399  TYR399     -0.2867
    171  CB        21.2390   10.7970   36.1990 C.3   399  TYR399      0.0534
    172  CG        19.8390   10.9770   36.7540 C.ar  399  TYR399     -0.0201
    173  CD1       18.8070   11.4660   35.9550 C.ar  399  TYR399     -0.0009
    174  CD2       19.5550   10.6750   38.0870 C.ar  399  TYR399     -0.0009
    175  CE1       17.5310   11.6470   36.4670 C.ar  399  TYR399      0.0417
    176  CE2       18.2860   10.8560   38.6110 C.ar  399  TYR399      0.0417
    177  CZ        17.2800   11.3410   37.7950 C.ar  399  TYR399      0.1957
    178  OH        16.0200   11.5140   38.3090 O.3   399  TYR399     -0.2866
@<TRIPOS>BOND
     1   113   112    1
     2   112   109    1
     3   108   109    1
     4   108    99   am
     5   111   110    2
     6    73    70    1
     7    98    97    1
     8    98    99    1
     9    98   101    1
    10   109   110    1
    11   130   128   ar
    12   130   131   ar
    13    99   100    2
    14   110   114   am
    15   117   116    2
    16   128   125   ar
    17   101   102    1
    18   131   129   ar
    19   114   115    1
    20    70    69    1
    21    70    71    1
    22    45    44    2
    23   116   115    1
    24   116   118   am
    25    28    26   ar
    26    28    29   ar
    27    44    43    1
    28    65    64    2
    29    77    76    2
    30    62    68    1
    31    62    63    1
    32   125   123   ar
    33   125   127   ar
    34    51    52    1
    35    69    64   am
    36    72    71    2
    37    26    23   ar
    38    71    74   am
    39    64    63    1
    40   122   123    1
    41   122   119    1
    42    68    67    1
    43    29    27   ar
    44    54    53    2
    45   102   104   ar
    46   102   103   ar
    47   129   127   ar
    48   118   119    1
    49    76    75    1
    50   123   124   ar
    51    63    66    1
    52   127   126   ar
    53   104   106   ar
    54   119   120    1
    55    74    75    1
    56    43    46    1
    57    43    42    1
    58    92    91    2
    59   103   105   ar
    60    53    52    1
    61    52    55    1
    62    23    25   ar
    63    23    21   ar
    64    67    66    1
    65    81    82    1
    66    75    78    1
    67    27    25   ar
    68    46    47    1
    69    42    38   am
    70    20    21    1
    71    20    17    1
    72   124   126   ar
    73    82    83    1
    74    82    85    1
    75   106   107   ar
    76    25    24   ar
    77    55    56    1
    78    21    22   ar
    79    36    37    1
    80   120   132   am
    81   120   121    2
    82    91    90    1
    83    38    39    2
    84    38    37    1
    85    16    17    1
    86   105   107   ar
    87    89    83   am
    88    89    90    1
    89    78    79    1
    90    78    80    1
    91   132   133    1
    92    83    84    2
    93    49    48    2
    94    85    86    1
    95    47    48    1
    96    17    18    1
    97    37    40    1
    98   141   139   ar
    99   141   142   ar
   100   139   137   ar
   101    90    93    1
   102    56    57    1
   103    24    22   ar
   104    48    50   am
   105    93    94    1
   106    18    19    2
   107   133   136    1
   108   133   134    1
   109   143   142    1
   110   142   140   ar
   111    86    87    2
   112    86    88   am
   113   137   136    1
   114   137   138   ar
   115    57    58    1
   116    40    41    1
   117   135   134    2
   118    94    95    1
   119   140   138   ar
   120    95    96    1
   121    58    59    2
   122    35    34    1
   123   151   150   ar
   124    59    60    1
   125    59    61    1
   126   152   150   ar
   127   150   149    1
   128   169   170    2
   129   169   168    1
   130    34    31    1
   131   168   167    1
   132   168   171    1
   133   148   149    1
   134   148   145    1
   135    31    32    1
   136    31    30    1
   137    33    32    2
   138   173   175   ar
   139   173   172   ar
   140   171   172    1
   141   175   177   ar
   142   146   145    1
   143   146   147    2
   144   172   174   ar
   145   145   144    1
   146   177   178    1
   147   177   176   ar
   148   174   176   ar
   149   165   163   ar
   150   165   166   ar
   151   163   160   ar
   152   166   164   ar
   153    15    13    1
   154   160   162   ar
   155   160   158   ar
   156   156   155    2
   157   164   162   ar
   158    14    13    1
   159    13    12    1
   160   157   158    1
   161   157   154    1
   162   162   161   ar
   163   155   154    1
   164   158   159   ar
   165     4     3    2
   166     6     5    1
   167    12     9    1
   168   154   153    1
   169     9     8    1
   170     9    10    1
   171     3     8   am
   172     3     2    1
   173   161   159   ar
   174     5     2    1
   175     5     7    1
   176    10    11    2
   177     2     1    1
