@<TRIPOS>MOLECULE
tmp/4d3bB03.pdb
 173 170 0 0 0
SMALL
GASTEIGER

@<TRIPOS>ATOM
      1  N         18.0310   12.1860   47.4420 N.3    38  MET38      -0.1230
      2  CA        17.8160   11.6350   48.7800 C.3    38  MET38       0.1702
      3  C         17.4380   12.7110   49.8010 C.2    38  MET38       0.2592
      4  O         16.5190   12.5160   50.5940 O.2    38  MET38      -0.2718
      5  CB        19.0400   10.8430   49.2390 C.3    38  MET38       0.0401
      6  CG        19.2780    9.5930   48.4070 C.3    38  MET38       0.0596
      7  SD        20.1290    8.2590   49.2720 S.3    38  MET38      -0.1393
      8  CE        18.7950    7.6510   50.2980 C.3    38  MET38       0.0692
      9  N         18.1230   13.8510   49.7450 N.am   39  LEU39      -0.1980
     10  CA        17.8700   14.9570   50.6710 C.3    39  LEU39       0.1596
     11  C         17.8020   16.2980   49.9380 C.2    39  LEU39       0.2287
     12  O         18.8080   17.0000   49.8300 O.2    39  LEU39      -0.2864
     13  CB        18.9770   15.0150   51.7280 C.3    39  LEU39       0.0297
     14  CG        19.2860   13.7220   52.4770 C.3    39  LEU39       0.0022
     15  CD1       20.7510   13.6340   52.8770 C.3    39  LEU39       0.0001
     16  CD2       18.4070   13.6120   53.7100 C.3    39  LEU39       0.0001
     17  N          7.8010    7.8590   52.4620 N.3   107  ARG107     -0.1231
     18  CA         8.7590    6.8100   52.1120 C.3   107  ARG107      0.1694
     19  C          8.5040    5.4510   52.7610 C.2   107  ARG107      0.2592
     20  O          9.1760    4.4740   52.4320 O.2   107  ARG107     -0.2718
     21  CB        10.1930    7.2790   52.4030 C.3   107  ARG107      0.0321
     22  CG        10.6220    8.4240   51.5010 C.3   107  ARG107      0.0489
     23  CD        12.0280    8.9180   51.7840 C.3   107  ARG107      0.2205
     24  NE        12.5090    9.7220   50.6530 N.pl3 107  ARG107     -0.0865
     25  CZ        13.6620   10.3820   50.6390 C.cat 107  ARG107      0.5346
     26  NH1       14.4560   10.3400   51.7060 N.pl3 107  ARG107      0.1354
     27  NH2       14.0170   11.0740   49.5630 N.pl3 107  ARG107      0.1354
     28  N          7.5180    5.3810   53.6520 N.am  108  CYS108     -0.1970
     29  CA         7.2600    4.1540   54.4050 C.3   108  CYS108      0.1712
     30  C          6.1600    3.3120   53.7790 C.2   108  CYS108      0.2296
     31  O          5.0220    3.7580   53.6620 O.2   108  CYS108     -0.2864
     32  CB         6.8830    4.4830   55.8630 C.3   108  CYS108      0.0983
     33  SG         6.5530    2.9980   56.8520 S.3   108  CYS108     -0.0798
     34  N         20.4100    3.8170   64.0290 N.3   171  GLN171     -0.1245
     35  CA        19.3940    2.8650   64.4810 C.3   171  GLN171      0.1566
     36  C         19.7470    2.3600   65.8800 C.2   171  GLN171      0.2260
     37  O         20.9230    2.2900   66.2290 O.2   171  GLN171     -0.2867
     38  CB        19.2980    1.6560   63.5520 C.3   171  GLN171      0.0367
     39  CG        18.8150    1.9150   62.1300 C.3   171  GLN171      0.0905
     40  CD        18.9600    0.6660   61.2620 C.2   171  GLN171      0.2608
     41  OE1       18.5730   -0.4460   61.6660 O.2   171  GLN171     -0.2717
     42  NE2       19.5520    0.8330   60.0860 N.am  171  GLN171     -0.0878
     43  N         22.4810   -1.8030   65.4810 N.3   174  ARG174     -0.1245
     44  CA        23.2430   -1.9030   64.2250 C.3   174  ARG174      0.1563
     45  C         24.5930   -2.5380   64.5100 C.2   174  ARG174      0.2260
     46  O         25.0530   -2.5140   65.6520 O.2   174  ARG174     -0.2867
     47  CB        23.4730   -0.5200   63.5920 C.3   174  ARG174      0.0307
     48  CG        22.2920    0.0370   62.8230 C.3   174  ARG174      0.0489
     49  CD        22.6940    1.1790   61.8990 C.3   174  ARG174      0.2205
     50  NE        22.7820    0.7150   60.5150 N.pl3 174  ARG174     -0.0865
     51  CZ        23.0350    1.4970   59.4710 C.cat 174  ARG174      0.5346
     52  NH1       23.2350    2.7940   59.6450 N.pl3 174  ARG174      0.1354
     53  NH2       23.0880    0.9780   58.2540 N.pl3 174  ARG174      0.1354
     54  N         14.0730   -3.4110   63.5540 N.3   258  PRO258     -0.2102
     55  CA        14.5260   -2.2410   62.8010 C.3   258  PRO258      0.1504
     56  C         14.0190   -0.9680   63.4670 C.2   258  PRO258      0.2576
     57  O         12.8080   -0.7080   63.5210 O.2   258  PRO258     -0.2718
     58  CB        13.8640   -2.4320   61.4290 C.3   258  PRO258      0.0282
     59  CG        12.5590   -3.1590   61.7470 C.3   258  PRO258      0.0208
     60  CD        12.8460   -4.0090   62.9820 C.3   258  PRO258      0.0893
     61  N         14.9410   -0.1800   63.9990 N.am  259  ALA259     -0.1966
     62  CA        14.5440    0.9320   64.8490 C.3   259  ALA259      0.1728
     63  C         15.3000    2.2000   64.4950 C.2   259  ALA259      0.2616
     64  O         16.4370    2.3760   64.9150 O.2   259  ALA259     -0.2715
     65  CB        14.7570    0.5640   66.3280 C.3   259  ALA259      0.0334
     66  N         14.6680    3.0850   63.7260 N.am  260  VAL260     -0.1977
     67  CA        15.3310    4.3170   63.2780 C.3   260  VAL260      0.1596
     68  C         15.4210    5.3100   64.4240 C.2   260  VAL260      0.2287
     69  O         14.4120    5.6330   65.0320 O.2   260  VAL260     -0.2864
     70  CB        14.5430    4.9870   62.1640 C.3   260  VAL260      0.0276
     71  CG1       15.0970    6.3930   61.8750 C.3   260  VAL260      0.0022
     72  CG2       14.5740    4.1220   60.8940 C.3   260  VAL260      0.0022
     73  N         17.5210    8.4090   64.3530 N.3   262  ASN262     -0.1240
     74  CA        18.1790    9.6770   64.0660 C.3   262  ASN262      0.1653
     75  C         17.3000   10.7370   63.4120 C.2   262  ASN262      0.2266
     76  O         17.7930   11.7810   63.0020 O.2   262  ASN262     -0.2867
     77  CB        19.4500    9.4610   63.2300 C.3   262  ASN262      0.1155
     78  CG        19.1720    8.8050   61.8940 C.2   262  ASN262      0.2627
     79  OD1       18.0310    8.4560   61.5760 O.2   262  ASN262     -0.2716
     80  ND2       20.2210    8.6340   61.0960 N.am  262  ASN262     -0.0877
     81  N         11.8790    5.1500   66.6740 N.3   277  PHE277     -0.1227
     82  CA        10.6860    4.3870   66.3340 C.3   277  PHE277      0.1736
     83  C         11.0610    3.0370   65.7040 C.2   277  PHE277      0.2596
     84  O         12.1510    2.8820   65.1710 O.2   277  PHE277     -0.2718
     85  CB         9.7520    5.1990   65.4220 C.3   277  PHE277      0.0547
     86  CG        10.3440    5.5540   64.0660 C.ar  277  PHE277     -0.0202
     87  CD1       10.4010    4.6160   63.0380 C.ar  277  PHE277     -0.0042
     88  CD2       10.7940    6.8450   63.8120 C.ar  277  PHE277     -0.0042
     89  CE1       10.9200    4.9550   61.7800 C.ar  277  PHE277     -0.0003
     90  CE2       11.3170    7.1930   62.5700 C.ar  277  PHE277     -0.0003
     91  CZ        11.3780    6.2470   61.5490 C.ar  277  PHE277     -0.0000
     92  N         10.1720    2.0540   65.8030 N.am  278  SER278     -0.1938
     93  CA        10.4610    0.7220   65.2630 C.3   278  SER278      0.2055
     94  C          9.2040    0.0450   64.7450 C.2   278  SER278      0.2644
     95  O          8.1130    0.2680   65.2680 O.2   278  SER278     -0.2714
     96  CB        11.1620   -0.1690   66.3030 C.3   278  SER278      0.2130
     97  OG        10.3860   -0.2750   67.4900 O.3   278  SER278     -0.2179
     98  N          9.3590   -0.7570   63.6910 N.am  279  GLY279     -0.1939
     99  CA         8.2760   -1.6060   63.2290 C.3   279  GLY279      0.2014
    100  C          8.7640   -3.0370   63.1580 C.2   279  GLY279      0.2639
    101  O          9.2340   -3.5960   64.1570 O.2   279  GLY279     -0.2714
    102  N          8.6350   -3.6390   61.9780 N.am  280  TRP280     -0.1959
    103  CA         9.3120   -4.8950   61.6720 C.3   280  TRP280      0.1771
    104  C          9.8800   -4.8140   60.2560 C.2   280  TRP280      0.2619
    105  O          9.5260   -3.9120   59.5010 O.2   280  TRP280     -0.2715
    106  CB         8.3720   -6.0930   61.8120 C.3   280  TRP280      0.0590
    107  CG         7.0420   -5.9320   61.1510 C.ar  280  TRP280      0.0006
    108  CD1        6.7450   -6.1470   59.8260 C.ar  280  TRP280      0.0946
    109  CD2        5.8150   -5.5600   61.7840 C.ar  280  TRP280      0.0152
    110  NE1        5.4050   -5.9130   59.6070 N.ar  280  TRP280     -0.2442
    111  CE2        4.8140   -5.5590   60.7940 C.ar  280  TRP280      0.0810
    112  CE3        5.4640   -5.2370   63.1010 C.ar  280  TRP280      0.0012
    113  CZ2        3.4800   -5.2330   61.0820 C.ar  280  TRP280      0.0191
    114  CZ3        4.1480   -4.9060   63.3820 C.ar  280  TRP280      0.0001
    115  CH2        3.1710   -4.9140   62.3800 C.ar  280  TRP280      0.0015
    116  N         10.7640   -5.7360   59.8990 N.am  281  TYR281     -0.1974
    117  CA        11.4410   -5.6540   58.6060 C.3   281  TYR281      0.1639
    118  C         10.5920   -6.1450   57.4420 C.2   281  TYR281      0.2290
    119  O          9.8040   -7.0920   57.5830 O.2   281  TYR281     -0.2864
    120  CB        12.7040   -6.5080   58.6220 C.3   281  TYR281      0.0560
    121  CG        13.9680   -5.7830   58.9940 C.ar  281  TYR281     -0.0198
    122  CD1       14.5330   -4.8460   58.1290 C.ar  281  TYR281     -0.0009
    123  CD2       14.6230   -6.0600   60.1910 C.ar  281  TYR281     -0.0009
    124  CE1       15.7020   -4.1930   58.4550 C.ar  281  TYR281      0.0417
    125  CE2       15.7980   -5.4160   60.5240 C.ar  281  TYR281      0.0417
    126  CZ        16.3280   -4.4840   59.6630 C.ar  281  TYR281      0.1957
    127  OH        17.5040   -3.8490   59.9920 O.3   281  TYR281     -0.2866
    128  N         14.9160   -5.2560   52.8460 N.3   285  GLU285     -0.1245
    129  CA        15.7950   -4.3140   53.5370 C.3   285  GLU285      0.1567
    130  C         17.1020   -5.0240   53.8850 C.2   285  GLU285      0.2260
    131  O         18.1870   -4.4900   53.6670 O.2   285  GLU285     -0.2867
    132  CB        15.1470   -3.7330   54.8140 C.3   285  GLU285      0.0388
    133  CG        13.8460   -2.9490   54.5930 C.3   285  GLU285      0.1160
    134  CD        13.2720   -2.3530   55.8880 C.2   285  GLU285      0.3649
    135  OE1       13.8900   -1.4030   56.4280 O.co2 285  GLU285     -0.2457
    136  OE2       12.2020   -2.8230   56.3630 O.co2 285  GLU285     -0.2457
    137  N         27.8070   -2.2100   51.4070 N.3   296  ARG296     -0.1245
    138  CA        27.4490   -2.8440   52.6880 C.3   296  ARG296      0.1563
    139  C         28.1720   -4.1850   52.8330 C.2   296  ARG296      0.2260
    140  O         29.3580   -4.2730   52.5200 O.2   296  ARG296     -0.2867
    141  CB        25.9300   -2.9940   52.8330 C.3   296  ARG296      0.0307
    142  CG        25.1450   -1.6840   52.6720 C.3   296  ARG296      0.0489
    143  CD        25.3760   -0.7130   53.8200 C.3   296  ARG296      0.2205
    144  NE        25.0220   -1.3060   55.1110 N.pl3 296  ARG296     -0.0865
    145  CZ        23.7790   -1.4110   55.5740 C.cat 296  ARG296      0.5346
    146  NH1       22.7630   -0.9600   54.8510 N.pl3 296  ARG296      0.1354
    147  NH2       23.5460   -1.9560   56.7670 N.pl3 296  ARG296      0.1354
    148  N         10.9880    5.3420   46.7170 N.3   371  TRP371     -0.1241
    149  CA        11.2730    4.5870   47.9280 C.3   371  TRP371      0.1605
    150  C         10.3050    3.4390   48.1680 C.2   371  TRP371      0.2264
    151  O         10.6670    2.4260   48.7750 O.2   371  TRP371     -0.2867
    152  CB        11.2550    5.5350   49.1430 C.3   371  TRP371      0.0550
    153  CG        12.5800    6.2020   49.3890 C.ar  371  TRP371      0.0003
    154  CD1       13.2580    7.0390   48.5380 C.ar  371  TRP371      0.0946
    155  CD2       13.3900    6.0860   50.5690 C.ar  371  TRP371      0.0152
    156  NE1       14.4360    7.4440   49.1210 N.ar  371  TRP371     -0.2442
    157  CE2       14.5380    6.8760   50.3670 C.ar  371  TRP371      0.0810
    158  CE3       13.2460    5.4000   51.7760 C.ar  371  TRP371      0.0012
    159  CZ2       15.5460    6.9880   51.3330 C.ar  371  TRP371      0.0191
    160  CZ3       14.2470    5.5150   52.7410 C.ar  371  TRP371      0.0001
    161  CH2       15.3800    6.3030   52.5110 C.ar  371  TRP371      0.0015
    162  N         14.6640   14.5300   58.3720 N.3   399  TYR399     -0.1241
    163  CA        16.0690   14.2660   58.5970 C.3   399  TYR399      0.1605
    164  C         16.6700   15.4270   59.3580 C.2   399  TYR399      0.2264
    165  O         16.1340   16.5420   59.3530 O.2   399  TYR399     -0.2867
    166  CB        16.7870   14.0570   57.2690 C.3   399  TYR399      0.0534
    167  CG        16.2230   12.8950   56.5000 C.ar  399  TYR399     -0.0201
    168  CD1       16.4920   11.5870   56.8860 C.ar  399  TYR399     -0.0009
    169  CD2       15.4010   13.1040   55.4010 C.ar  399  TYR399     -0.0009
    170  CE1       15.9690   10.5110   56.1830 C.ar  399  TYR399      0.0417
    171  CE2       14.8780   12.0410   54.6870 C.ar  399  TYR399      0.0417
    172  CZ        15.1630   10.7510   55.0840 C.ar  399  TYR399      0.1957
    173  OH        14.6400    9.7000   54.3750 O.3   399  TYR399     -0.2866
@<TRIPOS>BOND
     1   148   149    1
     2     1     2    1
     3   149   150    1
     4   149   152    1
     5   150   151    2
     6     6     5    1
     7     6     7    1
     8   154   156   ar
     9   154   153   ar
    10     2     5    1
    11     2     3    1
    12   156   157   ar
    13   152   153    1
    14     7     8    1
    15   153   155   ar
    16    27    25    1
    17     9     3   am
    18     9    10    1
    19     3     4    2
    20    12    11    2
    21    11    10    1
    22   157   155   ar
    23   157   159   ar
    24   155   158   ar
    25    25    24    2
    26    25    26    1
    27    24    23    1
    28    10    13    1
    29   159   161   ar
    30   137   138    1
    31    22    23    1
    32    22    21    1
    33    13    14    1
    34   158   160   ar
    35    18    21    1
    36    18    17    1
    37    18    19    1
    38    20    19    2
    39    14    15    1
    40    14    16    1
    41   161   160   ar
    42   140   139    2
    43   142   141    1
    44   142   143    1
    45   138   141    1
    46   138   139    1
    47    19    28   am
    48   128   129    1
    49   129   130    1
    50   129   132    1
    51    28    29    1
    52    31    30    2
    53   131   130    2
    54    30    29    1
    55   143   144    1
    56   173   172    1
    57    29    32    1
    58   133   132    1
    59   133   134    1
    60   171   172   ar
    61   171   169   ar
    62   146   145    1
    63   172   170   ar
    64   144   145    2
    65   169   167   ar
    66   145   147    1
    67    32    33    1
    68   134   136   ar
    69   134   135   ar
    70   170   168   ar
    71   167   168   ar
    72   167   166    1
    73   166   163    1
    74   118   119    2
    75   118   117    1
    76   122   124   ar
    77   122   121   ar
    78    53    51    1
    79   162   163    1
    80   124   126   ar
    81   163   164    1
    82   117   120    1
    83   117   116    1
    84   120   121    1
    85   121   123   ar
    86   165   164    2
    87    51    52    1
    88    51    50    2
    89   105   104    2
    90   110   108   ar
    91   110   111   ar
    92   126   127    1
    93   126   125   ar
    94   108   107   ar
    95   116   104   am
    96    42    40   am
    97   123   125   ar
    98   104   103    1
    99    50    49    1
   100   111   113   ar
   101   111   109   ar
   102    72    70    1
   103   113   115   ar
   104    80    78   am
   105   107   109   ar
   106   107   106    1
   107    40    41    2
   108    40    39    1
   109    58    59    1
   110    58    55    1
   111    91    89   ar
   112    91    90   ar
   113    79    78    2
   114   103   106    1
   115   103   102    1
   116    59    60    1
   117    89    87   ar
   118   109   112   ar
   119    71    70    1
   120    78    77    1
   121    49    48    1
   122   102   100   am
   123    39    38    1
   124    70    67    1
   125   115   114   ar
   126    90    88   ar
   127    55    56    1
   128    55    54    1
   129    48    47    1
   130    60    54    1
   131    76    75    2
   132    87    86   ar
   133   112   114   ar
   134   100    99    1
   135   100   101    2
   136    99    98    1
   137    77    74    1
   138    67    66    1
   139    67    68    1
   140    75    74    1
   141    56    57    2
   142    56    61   am
   143    38    35    1
   144    47    44    1
   145    98    94   am
   146    66    63   am
   147    88    86   ar
   148    61    62    1
   149    34    35    1
   150    74    73    1
   151    86    85    1
   152    44    45    1
   153    44    43    1
   154    68    69    2
   155    35    36    1
   156    63    62    1
   157    63    64    2
   158    45    46    2
   159    94    93    1
   160    94    95    2
   161    62    65    1
   162    84    83    2
   163    93    92    1
   164    93    96    1
   165    85    82    1
   166    83    92   am
   167    83    82    1
   168    36    37    2
   169    96    97    1
   170    82    81    1
