@<TRIPOS>MOLECULE
tmp/4d3dB01.pdb
 100 98 0 0 0
SMALL
GASTEIGER

@<TRIPOS>ATOM
      1  N         16.8270   14.2180   77.2170 N.3   201  TYR201     -0.1241
      2  CA        16.0220   13.2830   76.4060 C.3   201  TYR201      0.1605
      3  C         15.8420   11.9740   77.2060 C.2   201  TYR201      0.2264
      4  O         14.7290   11.4140   77.2790 O.2   201  TYR201     -0.2867
      5  CB        16.7370   12.9820   75.0960 C.3   201  TYR201      0.0534
      6  CG        16.8390   14.2200   74.2380 C.ar  201  TYR201     -0.0201
      7  CD1       15.7570   14.7580   73.6360 C.ar  201  TYR201     -0.0009
      8  CD2       18.0450   14.8570   74.0860 C.ar  201  TYR201     -0.0009
      9  CE1       15.8620   15.9740   72.9190 C.ar  201  TYR201      0.0417
     10  CE2       18.1710   16.0700   73.3420 C.ar  201  TYR201      0.0417
     11  CZ        17.0580   16.5550   72.7140 C.ar  201  TYR201      0.1957
     12  OH        17.1670   17.7430   71.9710 O.3   201  TYR201     -0.2866
     13  N         13.4160   12.9450   80.0110 N.3   204  ALA204     -0.1231
     14  CA        12.0660   13.1320   79.5370 C.3   204  ALA204      0.1694
     15  C         11.3960   11.7550   79.2670 C.2   204  ALA204      0.2591
     16  O         10.2180   11.5750   79.6130 O.2   204  ALA204     -0.2718
     17  CB        12.0240   13.9900   78.2670 C.3   204  ALA204      0.0304
     18  N         12.1360   10.8320   78.7160 N.am  205  MET205     -0.1979
     19  CA        11.5350    9.5160   78.4380 C.3   205  MET205      0.1605
     20  C         11.1800    8.8400   79.7510 C.2   205  MET205      0.2287
     21  O         10.0450    8.3270   79.9400 O.2   205  MET205     -0.2864
     22  CB        12.4620    8.6520   77.6210 C.3   205  MET205      0.0413
     23  CG        11.9770    7.1900   77.4450 C.3   205  MET205      0.0598
     24  SD        10.3560    7.0580   76.6510 S.3   205  MET205     -0.1393
     25  CE        10.7200    7.4930   75.0110 C.3   205  MET205      0.0692
     26  N          8.1740   10.1770   81.4110 N.3   208  SER208     -0.1217
     27  CA         6.9160    9.8710   80.7060 C.3   208  SER208      0.1889
     28  C          6.3490    8.4780   81.0480 C.2   208  SER208      0.2288
     29  O          5.1660    8.1940   80.7860 O.2   208  SER208     -0.2866
     30  CB         7.0790    9.9600   79.1960 C.3   208  SER208      0.2089
     31  OG         7.7140    8.7770   78.6590 O.3   208  SER208     -0.2183
     32  N          2.9050    7.7800   82.9290 N.3   211  LYS211     -0.1231
     33  CA         1.6750    8.0460   82.1860 C.3   211  LYS211      0.1693
     34  C          1.2210    6.8060   81.4200 C.2   211  LYS211      0.2592
     35  O          0.0420    6.5190   81.3180 O.2   211  LYS211     -0.2718
     36  CB         1.9040    9.2410   81.2500 C.3   211  LYS211      0.0285
     37  CG         2.3690   10.4920   81.9750 C.3   211  LYS211      0.0035
     38  CD         1.5520   10.9520   83.1720 C.3   211  LYS211      0.0206
     39  CE         2.0900   12.2600   83.7560 C.3   211  LYS211      0.1093
     40  NZ         1.3080   12.7090   84.9120 N.3   211  LYS211     -0.1314
     41  N          2.1570    6.0270   80.9420 N.am  212  PHE212     -0.1976
     42  CA         1.8630    4.7340   80.2680 C.3   212  PHE212      0.1639
     43  C          1.3830    3.7250   81.2980 C.2   212  PHE212      0.2290
     44  O          0.4400    3.0060   81.0710 O.2   212  PHE212     -0.2864
     45  CB         3.0810    4.2050   79.4770 C.3   212  PHE212      0.0560
     46  CG         3.4450    5.0330   78.2310 C.ar  212  PHE212     -0.0200
     47  CD1        4.2880    6.1560   78.3140 C.ar  212  PHE212     -0.0042
     48  CD2        2.9160    4.6870   77.0100 C.ar  212  PHE212     -0.0042
     49  CE1        4.6180    6.8690   77.2030 C.ar  212  PHE212     -0.0003
     50  CE2        3.2220    5.4410   75.8810 C.ar  212  PHE212     -0.0003
     51  CZ         4.0550    6.5140   75.9810 C.ar  212  PHE212     -0.0000
     52  N         -2.1770    4.5510   82.1900 N.3   215  PHE215     -0.1227
     53  CA        -3.0810    4.1660   81.0600 C.3   215  PHE215      0.1736
     54  C         -3.3980    2.6820   81.0540 C.2   215  PHE215      0.2595
     55  O         -4.5750    2.3060   80.9420 O.2   215  PHE215     -0.2718
     56  CB        -2.4870    4.5430   79.7220 C.3   215  PHE215      0.0547
     57  CG        -3.3900    4.2400   78.5600 C.ar  215  PHE215     -0.0202
     58  CD1       -4.4360    5.1190   78.2020 C.ar  215  PHE215     -0.0042
     59  CD2       -3.2440    3.0760   77.8530 C.ar  215  PHE215     -0.0042
     60  CE1       -5.2960    4.7940   77.1560 C.ar  215  PHE215     -0.0003
     61  CE2       -4.1100    2.7220   76.8100 C.ar  215  PHE215     -0.0003
     62  CZ        -5.1670    3.5800   76.4560 C.ar  215  PHE215     -0.0000
     63  N         -2.3590    1.8690   81.1900 N.am  216  TYR216     -0.1976
     64  CA        -2.5620    0.4090   81.0030 C.3   216  TYR216      0.1639
     65  C         -2.9940   -0.3100   82.2750 C.2   216  TYR216      0.2290
     66  O         -3.6170   -1.3670   82.1480 O.2   216  TYR216     -0.2864
     67  CB        -1.3040   -0.2260   80.4600 C.3   216  TYR216      0.0560
     68  CG        -1.0410    0.0940   78.9760 C.ar  216  TYR216     -0.0198
     69  CD1       -1.8300   -0.4240   77.9450 C.ar  216  TYR216     -0.0009
     70  CD2        0.0400    0.8590   78.6380 C.ar  216  TYR216     -0.0009
     71  CE1       -1.5370   -0.1300   76.6050 C.ar  216  TYR216      0.0417
     72  CE2        0.3770    1.0770   77.2660 C.ar  216  TYR216      0.0417
     73  CZ        -0.4700    0.6120   76.2880 C.ar  216  TYR216      0.1957
     74  OH        -0.1170    0.8530   74.9500 O.3   216  TYR216     -0.2866
     75  N         -4.8010    1.1980   70.7520 N.3   229  VAL229     -0.1231
     76  CA        -3.7990    2.2410   70.7260 C.3   229  VAL229      0.1692
     77  C         -2.4480    1.7390   70.3560 C.2   229  VAL229      0.2592
     78  O         -1.5420    2.5200   70.1060 O.2   229  VAL229     -0.2718
     79  CB        -3.7680    3.0480   72.0610 C.3   229  VAL229      0.0266
     80  CG1       -5.1570    3.5610   72.4040 C.3   229  VAL229      0.0020
     81  CG2       -3.2680    2.1730   73.2340 C.3   229  VAL229      0.0020
     82  N         -2.2470    0.4080   70.3370 N.am  230  ASP230     -0.1974
     83  CA        -0.9650   -0.1210   69.9760 C.3   230  ASP230      0.1709
     84  C         -1.1110   -1.6340   69.6290 C.2   230  ASP230      0.2293
     85  O         -1.9610   -2.2970   70.1510 O.2   230  ASP230     -0.2864
     86  CB         0.1220    0.0340   71.0900 C.3   230  ASP230      0.1436
     87  CG        -0.0170   -1.0490   72.2080 C.2   230  ASP230      0.3671
     88  OD1       -0.8790   -0.9780   73.0880 O.co2 230  ASP230     -0.2456
     89  OD2        0.7280   -2.0630   72.1110 O.co2 230  ASP230     -0.2456
     90  N          0.9000   -4.6530   73.2630 N.3   276  PHE276     -0.1241
     91  CA         2.1270   -5.2400   73.9030 C.3   276  PHE276      0.1605
     92  C          1.9660   -5.6370   75.3280 C.2   276  PHE276      0.2264
     93  O          2.7950   -6.4550   75.8100 O.2   276  PHE276     -0.2867
     94  CB         3.3370   -4.3400   73.6840 C.3   276  PHE276      0.0534
     95  CG         3.5210   -3.2720   74.7560 C.ar  276  PHE276     -0.0203
     96  CD1        2.8750   -2.0570   74.6690 C.ar  276  PHE276     -0.0042
     97  CD2        4.3900   -3.4860   75.8080 C.ar  276  PHE276     -0.0042
     98  CE1        3.0860   -1.0810   75.6310 C.ar  276  PHE276     -0.0003
     99  CE2        4.6020   -2.5340   76.7720 C.ar  276  PHE276     -0.0003
    100  CZ         3.9470   -1.3140   76.6880 C.ar  276  PHE276     -0.0000
@<TRIPOS>BOND
     1    84    83    1
     2    84    85    2
     3    83    82    1
     4    83    86    1
     5    78    77    2
     6    82    77   am
     7    77    76    1
     8    76    75    1
     9    76    79    1
    10    86    87    1
    11    12    11    1
    12    79    80    1
    13    79    81    1
    14    89    87   ar
    15    87    88   ar
    16    11     9   ar
    17    11    10   ar
    18     9     7   ar
    19    90    91    1
    20    10     8   ar
    21     7     6   ar
    22    94    91    1
    23    94    95    1
    24    91    92    1
    25     8     6   ar
    26     6     5    1
    27    96    95   ar
    28    96    98   ar
    29    95    97   ar
    30    74    73    1
    31    25    24    1
    32     5     2    1
    33    92    93    2
    34    98   100   ar
    35    97    99   ar
    36    50    51   ar
    37    50    48   ar
    38    51    49   ar
    39    73    71   ar
    40    73    72   ar
    41     2     3    1
    42     2     1    1
    43    62    61   ar
    44    62    60   ar
    45    71    69   ar
    46    24    23    1
    47   100    99   ar
    48    61    59   ar
    49    48    46   ar
    50    60    58   ar
    51    49    47   ar
    52     3     4    2
    53    72    70   ar
    54    23    22    1
    55    22    19    1
    56    59    57   ar
    57    69    68   ar
    58    58    57   ar
    59    46    47   ar
    60    46    45    1
    61    17    14    1
    62    19    18    1
    63    19    20    1
    64    57    56    1
    65    70    68   ar
    66    31    30    1
    67    18    15   am
    68    68    67    1
    69    30    27    1
    70    15    14    1
    71    15    16    2
    72    45    42    1
    73    14    13    1
    74    56    53    1
    75    20    21    2
    76    42    41    1
    77    42    43    1
    78    67    64    1
    79    27    28    1
    80    27    26    1
    81    29    28    2
    82    55    54    2
    83    41    34   am
    84    64    63    1
    85    64    65    1
    86    54    53    1
    87    54    63   am
    88    53    52    1
    89    44    43    2
    90    36    37    1
    91    36    33    1
    92    35    34    2
    93    34    33    1
    94    37    38    1
    95    66    65    2
    96    33    32    1
    97    38    39    1
    98    39    40    1
