@<TRIPOS>MOLECULE
tmp/4d3fB00.pdb
 195 192 0 0 0
SMALL
GASTEIGER

@<TRIPOS>ATOM
      1  N         -2.8120   -5.9460  -56.7530 N.3    12  GLY12      -0.1210
      2  CA        -2.6670   -5.0310  -55.6280 C.3    12  GLY12       0.1956
      3  C         -1.4820   -5.4900  -54.8130 C.2    12  GLY12       0.2612
      4  O         -1.5100   -6.4550  -54.1030 O.2    12  GLY12      -0.2717
      5  N         -0.3830   -4.7620  -54.9010 N.am   13  LEU13      -0.1965
      6  CA         0.8300   -5.0580  -54.1960 C.3    13  LEU13       0.1728
      7  C          1.2510   -3.8920  -53.2950 C.2    13  LEU13       0.2617
      8  O          2.4350   -3.5130  -53.2800 O.2    13  LEU13      -0.2715
      9  CB         2.0040   -5.4280  -55.1520 C.3    13  LEU13       0.0311
     10  CG         1.7570   -6.6070  -56.0790 C.3    13  LEU13       0.0022
     11  CD1        2.9020   -6.7180  -57.0450 C.3    13  LEU13       0.0001
     12  CD2        1.5810   -7.8780  -55.3130 C.3    13  LEU13       0.0001
     13  N          0.3190   -3.4330  -52.4390 N.am   14  GLY14      -0.1941
     14  CA         0.6790   -2.8530  -51.1650 C.3    14  GLY14       0.1998
     15  C          1.3020   -3.8610  -50.2500 C.2    14  GLY14       0.2481
     16  O          1.5520   -5.0160  -50.6620 O.2    14  GLY14      -0.2729
     17  N          1.5730   -3.5010  -48.9970 N.am   15  PRO15      -0.2715
     18  CA         2.2370   -4.4240  -48.0950 C.3    15  PRO15       0.1536
     19  C          1.4860   -5.7340  -47.8740 C.2    15  PRO15       0.2598
     20  O          2.1070   -6.7960  -47.7070 O.2    15  PRO15      -0.2715
     21  CB         2.2930   -3.6530  -46.7790 C.3    15  PRO15       0.0310
     22  CG         2.2930   -2.2040  -47.2280 C.3    15  PRO15       0.0237
     23  CD         1.5580   -2.0950  -48.4810 C.3    15  PRO15       0.0939
     24  N          0.1650   -5.6360  -47.8460 N.am   16  MET16      -0.1964
     25  CA        -0.7090   -6.8630  -47.6940 C.3    16  MET16       0.1736
     26  C         -0.6310   -7.7820  -48.9650 C.2    16  MET16       0.2617
     27  O         -0.3450   -8.9830  -48.8280 O.2    16  MET16      -0.2715
     28  CB        -2.1540   -6.4770  -47.4760 C.3    16  MET16       0.0427
     29  CG        -2.3950   -5.7780  -46.1630 C.3    16  MET16       0.0599
     30  SD        -2.1090   -6.8710  -44.7330 S.3    16  MET16      -0.1393
     31  CE        -3.6030   -7.8390  -44.6440 C.3    16  MET16       0.0692
     32  N         -0.8090   -7.2130  -50.1530 N.am   17  GLY17      -0.1955
     33  CA        -0.7100   -7.9760  -51.3700 C.3    17  GLY17       0.1869
     34  C          0.6820   -8.5980  -51.5200 C.2    17  GLY17       0.2309
     35  O          0.8600   -9.7420  -51.9750 O.2    17  GLY17      -0.2863
     36  N         -0.0780   -8.1580  -60.6800 N.3    34  TRP34      -0.1227
     37  CA        -0.1670   -6.8760  -61.4100 C.3    34  TRP34       0.1737
     38  C         -0.3060   -5.8170  -60.2940 C.2    34  TRP34       0.2595
     39  O         -0.9850   -6.0520  -59.3030 O.2    34  TRP34      -0.2718
     40  CB        -1.3270   -6.7740  -62.3550 C.3    34  TRP34       0.0564
     41  CG        -1.4590   -5.4730  -63.0320 C.ar   34  TRP34       0.0003
     42  CD1       -0.8840   -5.1140  -64.1870 C.ar   34  TRP34       0.0946
     43  CD2       -2.2020   -4.3360  -62.5800 C.ar   34  TRP34       0.0152
     44  NE1       -1.1530   -3.7750  -64.4730 N.ar   34  TRP34      -0.2442
     45  CE2       -1.9920   -3.3030  -63.5060 C.ar   34  TRP34       0.0810
     46  CE3       -2.9900   -4.0850  -61.4600 C.ar   34  TRP34       0.0012
     47  CZ2       -2.5650   -2.0160  -63.3610 C.ar   34  TRP34       0.0191
     48  CZ3       -3.5090   -2.7850  -61.2830 C.ar   34  TRP34       0.0001
     49  CH2       -3.3360   -1.8000  -62.2780 C.ar   34  TRP34       0.0015
     50  N          0.2830   -4.6660  -60.5560 N.am   35  ASN35      -0.1960
     51  CA         0.1570   -3.5150  -59.7110 C.3    35  ASN35       0.1819
     52  C          0.2540   -2.2670  -60.5610 C.2    35  ASN35       0.2621
     53  O          0.9480   -2.2350  -61.5560 O.2    35  ASN35      -0.2715
     54  CB         1.2550   -3.5300  -58.6590 C.3    35  ASN35       0.1195
     55  CG         0.9900   -2.5450  -57.5140 C.2    35  ASN35       0.2630
     56  OD1        1.8290   -1.6740  -57.1210 O.2    35  ASN35      -0.2716
     57  ND2       -0.1420   -2.6870  -56.9760 N.am   35  ASN35      -0.0877
     58  N         -0.4740   -1.2410  -60.1890 N.am   36  ARG36      -0.1963
     59  CA        -0.3490    0.0620  -60.8500 C.3    36  ARG36       0.1729
     60  C          1.1090    0.5140  -60.8650 C.2    36  ARG36       0.2616
     61  O          1.6220    0.9980  -61.8810 O.2    36  ARG36      -0.2715
     62  CB        -1.2680    1.0800  -60.1100 C.3    36  ARG36       0.0348
     63  CG        -0.9970    2.5420  -60.4700 C.3    36  ARG36       0.0492
     64  CD        -1.9560    3.4300  -59.7110 C.3    36  ARG36       0.2205
     65  NE        -1.6700    3.4380  -58.2780 N.pl3  36  ARG36      -0.0865
     66  CZ        -2.2980    4.2300  -57.4160 C.cat  36  ARG36       0.5346
     67  NH1       -3.1090    5.1350  -57.9020 N.pl3  36  ARG36       0.1354
     68  NH2       -2.0030    4.1770  -56.1310 N.pl3  36  ARG36       0.1354
     69  N          1.7710    0.4020  -59.7400 N.am   37  THR37      -0.1951
     70  CA         3.1340    0.7860  -59.5960 C.3    37  THR37       0.1897
     71  C          3.9460   -0.5210  -59.7880 C.2    37  THR37       0.2313
     72  O          4.1910   -1.2940  -58.8380 O.2    37  THR37      -0.2863
     73  CB         3.4320    1.4570  -58.2530 C.3    37  THR37       0.1794
     74  OG1        2.5400    2.6140  -58.0700 O.3    37  THR37      -0.2208
     75  CG2        4.8880    1.8130  -58.1320 C.3    37  THR37       0.0378
     76  N          6.9110   -2.2440  -57.5960 N.3    40  LYS40      -0.1245
     77  CA         6.6770   -2.8710  -56.3170 C.3    40  LYS40       0.1561
     78  C          6.6950   -4.3960  -56.3220 C.2    40  LYS40       0.2260
     79  O          6.8000   -5.0100  -55.2740 O.2    40  LYS40      -0.2867
     80  CB         5.3690   -2.4250  -55.6900 C.3    40  LYS40       0.0271
     81  CG         5.3810   -0.9660  -55.2110 C.3    40  LYS40       0.0035
     82  CD         4.3730   -0.8760  -54.0680 C.3    40  LYS40       0.0206
     83  CE         3.8480    0.4780  -54.0110 C.3    40  LYS40       0.1093
     84  NZ         2.5940    0.4800  -53.1890 N.3    40  LYS40      -0.1314
     85  N         -6.1410   -7.0260  -53.3160 N.3    68  SER68      -0.1202
     86  CA        -5.7920   -6.3630  -52.0600 C.3    68  SER68       0.2020
     87  C         -5.5360   -4.8750  -52.3940 C.2    68  SER68       0.2619
     88  O         -4.4340   -4.4520  -52.6550 O.2    68  SER68      -0.2717
     89  CB        -4.6180   -6.9930  -51.4540 C.3    68  SER68       0.2103
     90  OG        -4.2770   -6.3860  -50.1900 O.3    68  SER68      -0.2182
     91  N         -6.6240   -4.1870  -52.5210 N.am   69  LEU69      -0.1965
     92  CA        -6.5860   -2.7740  -52.9490 C.3    69  LEU69       0.1728
     93  C         -7.0810   -1.8650  -51.8320 C.2    69  LEU69       0.2616
     94  O         -7.5950   -2.3180  -50.8070 O.2    69  LEU69      -0.2715
     95  CB        -7.5120   -2.6630  -54.1140 C.3    69  LEU69       0.0311
     96  CG        -7.1790   -3.5080  -55.3380 C.3    69  LEU69       0.0022
     97  CD1       -8.3650   -3.4590  -56.2650 C.3    69  LEU69       0.0001
     98  CD2       -5.8820   -3.0160  -55.9650 C.3    69  LEU69       0.0001
     99  N         -6.9250   -0.5570  -52.0260 N.am   70  THR70      -0.1951
    100  CA        -7.2800    0.3240  -50.9170 C.3    70  THR70       0.1897
    101  C         -8.7570    0.1840  -50.4430 C.2    70  THR70       0.2313
    102  O         -9.0060    0.0620  -49.2100 O.2    70  THR70      -0.2863
    103  CB        -6.8570    1.7680  -51.2070 C.3    70  THR70       0.1794
    104  OG1       -5.4480    1.7580  -51.4710 O.3    70  THR70      -0.2208
    105  CG2       -7.1700    2.6320  -49.9890 C.3    70  THR70       0.0378
    106  N        -11.4200    1.6540  -55.9450 N.3    74  VAL74      -0.1245
    107  CA       -10.2280    1.2910  -56.7050 C.3    74  VAL74       0.1561
    108  C        -10.5860    0.1020  -57.5860 C.2    74  VAL74       0.2260
    109  O        -10.1880    0.0340  -58.7430 O.2    74  VAL74      -0.2867
    110  CB        -9.0130    0.9160  -55.7950 C.3    74  VAL74       0.0252
    111  CG1       -7.7900    0.4810  -56.6080 C.3    74  VAL74       0.0019
    112  CG2       -8.6150    2.0590  -54.8920 C.3    74  VAL74       0.0019
    113  N        -12.3390    1.2260  -60.5400 N.3    77  SER77      -0.1202
    114  CA       -11.4780    2.0400  -61.3560 C.3    77  SER77       0.2020
    115  C        -10.6730    1.1450  -62.2870 C.2    77  SER77       0.2618
    116  O        -10.5750    1.4230  -63.4910 O.2    77  SER77      -0.2717
    117  CB       -10.5710    2.8190  -60.4810 C.3    77  SER77       0.2103
    118  OG        -9.6930    3.5250  -61.2700 O.3    77  SER77      -0.2182
    119  N        -10.1370    0.0550  -61.7480 N.am   78  ILE78      -0.1979
    120  CA        -9.3300   -0.8730  -62.5970 C.3    78  ILE78       0.1595
    121  C        -10.0900   -1.9220  -63.3830 C.2    78  ILE78       0.2287
    122  O         -9.5690   -2.3760  -64.3990 O.2    78  ILE78      -0.2864
    123  CB        -8.1630   -1.5360  -61.8360 C.3    78  ILE78       0.0276
    124  CG1       -8.6590   -2.4620  -60.8040 C.3    78  ILE78       0.0022
    125  CG2       -7.2870   -0.4760  -61.1770 C.3    78  ILE78       0.0022
    126  CD1       -7.5730   -3.3170  -60.2140 C.3    78  ILE78       0.0001
    127  N        -10.1620   -8.6830  -50.6870 N.3    94  LEU94      -0.1231
    128  CA        -9.6330   -8.5500  -49.3220 C.3    94  LEU94       0.1693
    129  C         -9.4130   -7.0710  -48.8880 C.2    94  LEU94       0.2593
    130  O         -8.7600   -6.8260  -47.8930 O.2    94  LEU94      -0.2718
    131  CB        -8.3750   -9.3060  -49.1700 C.3    94  LEU94       0.0284
    132  CG        -8.5000  -10.8110  -49.5500 C.3    94  LEU94       0.0019
    133  CD1       -7.1600  -11.4980  -49.4530 C.3    94  LEU94       0.0001
    134  CD2       -9.5420  -11.5400  -48.7110 C.3    94  LEU94       0.0001
    135  N        -10.0790   -6.2040  -49.5820 N.am   95  SER95      -0.1938
    136  CA       -10.0230   -4.7490  -49.3700 C.3    95  SER95       0.2055
    137  C        -10.9730   -4.3610  -48.2140 C.2    95  SER95       0.2643
    138  O        -12.0990   -4.8830  -48.1490 O.2    95  SER95      -0.2714
    139  CB       -10.3910   -4.0500  -50.6450 C.3    95  SER95       0.2130
    140  OG        -9.5090   -4.5380  -51.7200 O.3    95  SER95      -0.2179
    141  N        -10.5440   -3.4010  -47.3720 N.am   96  SER96      -0.1949
    142  CA       -11.3980   -2.8580  -46.2940 C.3    96  SER96       0.1924
    143  C        -12.3740   -1.8710  -46.8720 C.2    96  SER96       0.2314
    144  O        -11.9940   -0.9570  -47.5670 O.2    96  SER96      -0.2863
    145  CB       -10.5260   -2.1220  -45.2260 C.3    96  SER96       0.2116
    146  OG        -9.7620   -3.0780  -44.5620 O.3    96  SER96      -0.2180
    147  N         -9.5880   -9.2100  -43.5210 N.3   121  VAL121     -0.1231
    148  CA        -8.3990   -9.7910  -42.9850 C.3   121  VAL121      0.1692
    149  C         -8.1300   -9.1810  -41.6050 C.2   121  VAL121      0.2592
    150  O         -8.1010   -7.9410  -41.4960 O.2   121  VAL121     -0.2718
    151  CB        -7.1770   -9.5250  -43.9040 C.3   121  VAL121      0.0266
    152  CG1       -5.9130  -10.1400  -43.3080 C.3   121  VAL121      0.0020
    153  CG2       -7.4180  -10.1530  -45.2660 C.3   121  VAL121      0.0020
    154  N         -7.8740  -10.0050  -40.6020 N.am  122  GLN122     -0.1966
    155  CA        -7.8170   -9.4900  -39.2010 C.3   122  GLN122      0.1733
    156  C         -6.4100   -9.1710  -38.6640 C.2   122  GLN122      0.2616
    157  O         -6.2150   -8.9630  -37.4500 O.2   122  GLN122     -0.2715
    158  CB        -8.4900  -10.5280  -38.2690 C.3   122  GLN122      0.0408
    159  CG        -9.9740  -10.6740  -38.5120 C.3   122  GLN122      0.0908
    160  CD       -10.5340  -11.8310  -37.7640 C.2   122  GLN122      0.2608
    161  OE1      -10.0610  -12.1500  -36.7050 O.2   122  GLN122     -0.2717
    162  NE2      -11.4260  -12.5800  -38.3900 N.am  122  GLN122     -0.0878
    163  N         -5.4080   -9.2320  -39.5300 N.am  123  VAL123     -0.1964
    164  CA        -4.0170   -9.1890  -39.1520 C.3   123  VAL123      0.1712
    165  C         -3.2100   -8.3060  -40.1180 C.2   123  VAL123      0.2458
    166  O         -3.6140   -8.0870  -41.2860 O.2   123  VAL123     -0.2730
    167  CB        -3.3460  -10.5730  -39.0580 C.3   123  VAL123      0.0289
    168  CG1       -3.9980  -11.4500  -38.0000 C.3   123  VAL123      0.0023
    169  CG2       -3.2800  -11.2820  -40.4590 C.3   123  VAL123      0.0023
    170  N         -2.0630   -7.7880  -39.6510 N.am  124  PRO124     -0.2716
    171  CA        -1.1940   -7.0380  -40.5210 C.3   124  PRO124      0.1521
    172  C         -0.4160   -7.9800  -41.4370 C.2   124  PRO124      0.2440
    173  O         -0.5450   -9.1950  -41.2930 O.2   124  PRO124     -0.2731
    174  CB        -0.2470   -6.3230  -39.5410 C.3   124  PRO124      0.0310
    175  CG        -0.1960   -7.1720  -38.3700 C.3   124  PRO124      0.0237
    176  CD        -1.5700   -7.7960  -38.2470 C.3   124  PRO124      0.0939
    177  N          0.4000   -7.4290  -42.3530 N.am  125  PRO125     -0.2727
    178  CA         1.2060   -8.2860  -43.2710 C.3   125  PRO125      0.1402
    179  C          1.9800   -9.3730  -42.6100 C.2   125  PRO125      0.2269
    180  O          1.9930  -10.4890  -43.1250 O.2   125  PRO125     -0.2865
    181  CB         2.0920   -7.2870  -44.0340 C.3   125  PRO125      0.0296
    182  CG         1.2690   -6.0070  -44.0010 C.3   125  PRO125      0.0237
    183  CD         0.5630   -5.9950  -42.6860 C.3   125  PRO125      0.0939
    184  N        -15.7890   -7.2450  -39.6080 N.3   171  TYR171     -0.1241
    185  CA       -14.6000   -6.4770  -39.5550 C.3   171  TYR171      0.1605
    186  C        -14.8430   -5.0630  -39.0120 C.2   171  TYR171      0.2264
    187  O        -14.1040   -4.6580  -38.0910 O.2   171  TYR171     -0.2867
    188  CB       -13.9690   -6.4050  -40.9520 C.3   171  TYR171      0.0534
    189  CG       -12.6720   -5.6270  -40.9770 C.ar  171  TYR171     -0.0201
    190  CD1      -11.4640   -6.2490  -40.6030 C.ar  171  TYR171     -0.0009
    191  CD2      -12.6410   -4.2630  -41.3100 C.ar  171  TYR171     -0.0009
    192  CE1      -10.2830   -5.5530  -40.6480 C.ar  171  TYR171      0.0417
    193  CE2      -11.4480   -3.5440  -41.3220 C.ar  171  TYR171      0.0417
    194  CZ       -10.2980   -4.1920  -40.9910 C.ar  171  TYR171      0.1957
    195  OH        -9.1420   -3.5340  -40.9940 O.3   171  TYR171     -0.2866
@<TRIPOS>BOND
     1    44    42   ar
     2    44    45   ar
     3   122   121    2
     4    42    41   ar
     5    45    47   ar
     6    45    43   ar
     7   116   115    2
     8   121   120    1
     9    47    49   ar
    10    41    43   ar
    11    41    40    1
    12   120   123    1
    13   120   119    1
    14    43    46   ar
    15    40    37    1
    16   115   119   am
    17   115   114    1
    18    49    48   ar
    19    61    60    2
    20   123   125    1
    21   123   124    1
    22    53    52    2
    23    46    48   ar
    24    37    36    1
    25    37    38    1
    26   114   113    1
    27   114   117    1
    28   118   117    1
    29    60    59    1
    30    60    69   am
    31    59    58    1
    32    59    62    1
    33   124   126    1
    34    52    58   am
    35    52    51    1
    36    50    38   am
    37    50    51    1
    38    63    62    1
    39    63    64    1
    40    38    39    2
    41    71    70    1
    42    71    72    2
    43    69    70    1
    44    64    65    1
    45    51    54    1
    46    70    73    1
    47   109   108    2
    48    54    55    1
    49    65    66    2
    50    73    75    1
    51    73    74    1
    52    67    66    1
    53    76    77    1
    54   108   107    1
    55    55    56    2
    56    55    57   am
    57    66    68    1
    58    11    10    1
    59     1     2    1
    60   107   106    1
    61   107   110    1
    62   111   110    1
    63    78    77    1
    64    78    79    2
    65    77    80    1
    66    97    96    1
    67    10    12    1
    68    10     9    1
    69    98    96    1
    70   110   112    1
    71    80    81    1
    72     2     3    1
    73    96    95    1
    74    81    82    1
    75     9     6    1
    76     5     3   am
    77     5     6    1
    78     3     4    2
    79     6     7    1
    80    95    92    1
    81    82    83    1
    82    83    84    1
    83    85    86    1
    84     7     8    2
    85     7    13   am
    86    92    91    1
    87    92    93    1
    88    88    87    2
    89    91    87   am
    90    13    14    1
    91    87    86    1
    92    86    89    1
    93    99    93   am
    94    99   100    1
    95    35    34    2
    96    93    94    2
    97   140   139    1
    98    34    33    1
    99   104   103    1
   100    89    90    1
   101    33    32    1
   102   103   100    1
   103   103   105    1
   104    14    15    1
   105   100   101    1
   106   127   128    1
   107    16    15    2
   108   139   136    1
   109   101   102    2
   110    15    17   am
   111    32    26   am
   112   135   136    1
   113   135   129   am
   114   132   133    1
   115   132   131    1
   116   132   134    1
   117   136   137    1
   118   128   131    1
   119   128   129    1
   120    17    23    1
   121    17    18    1
   122    26    27    2
   123    26    25    1
   124   129   130    2
   125    23    22    1
   126   137   138    2
   127   137   141   am
   128    18    19    1
   129    18    21    1
   130    19    24   am
   131    19    20    2
   132    24    25    1
   133    25    28    1
   134   144   143    2
   135    28    29    1
   136   141   142    1
   137    22    21    1
   138   143   142    1
   139   142   145    1
   140    29    30    1
   141   153   151    1
   142   145   146    1
   143    30    31    1
   144   181   182    1
   145   181   178    1
   146   182   183    1
   147   151   152    1
   148   151   148    1
   149   147   148    1
   150   178   179    1
   151   178   177    1
   152   180   179    2
   153   148   149    1
   154   183   177    1
   155   177   172   am
   156   149   150    2
   157   149   154   am
   158   172   173    2
   159   172   171    1
   160   193   191   ar
   161   193   194   ar
   162   191   189   ar
   163   166   165    2
   164   195   194    1
   165   194   192   ar
   166   189   188    1
   167   189   190   ar
   168   188   185    1
   169   192   190   ar
   170   154   155    1
   171   171   170    1
   172   171   174    1
   173   169   167    1
   174   165   170   am
   175   165   164    1
   176   170   176    1
   177   184   185    1
   178   185   186    1
   179   174   175    1
   180   163   164    1
   181   163   156   am
   182   155   156    1
   183   155   158    1
   184   164   167    1
   185   167   168    1
   186   186   187    2
   187   156   157    2
   188   159   158    1
   189   159   160    1
   190   162   160   am
   191   175   176    1
   192   160   161    2
