@<TRIPOS>MOLECULE
tmp/4d3hB00.pdb
 112 105 0 0 0
SMALL
GASTEIGER

@<TRIPOS>ATOM
      1  N         -2.2940   -4.8950  -15.7170 N.3    15  ILE15      -0.1245
      2  CA        -3.5470   -5.3950  -16.2020 C.3    15  ILE15       0.1561
      3  C         -4.6230   -4.4270  -15.7680 C.2    15  ILE15       0.2260
      4  O         -4.8270   -4.2080  -14.5640 O.2    15  ILE15      -0.2867
      5  CB        -3.8550   -6.7930  -15.6900 C.3    15  ILE15       0.0252
      6  CG1       -2.6780   -7.7290  -16.0270 C.3    15  ILE15       0.0019
      7  CG2       -5.1410   -7.3150  -16.3340 C.3    15  ILE15       0.0019
      8  CD1       -2.1290   -8.5280  -14.8570 C.3    15  ILE15       0.0001
      9  N         -8.7110   -2.4520  -16.7630 N.3    17  GLN17      -0.1245
     10  CA        -9.9880   -2.6000  -17.4570 C.3    17  GLN17       0.1566
     11  C        -10.0170   -1.9030  -18.8200 C.2    17  GLN17       0.2260
     12  O         -9.3680   -0.8790  -19.0130 O.2    17  GLN17      -0.2867
     13  CB       -11.1300   -2.0810  -16.5920 C.3    17  GLN17       0.0367
     14  CG       -11.2540   -2.8230  -15.2540 C.3    17  GLN17       0.0905
     15  CD       -11.2120   -4.3180  -15.4370 C.2    17  GLN17       0.2608
     16  OE1      -11.9870   -4.8600  -16.2020 O.2    17  GLN17      -0.2717
     17  NE2      -10.2890   -5.0010  -14.7510 N.am   17  GLN17      -0.0878
     18  N         -7.8600  -11.7090  -21.3550 N.3    41  THR41      -0.1203
     19  CA        -9.0960  -11.9880  -20.6210 C.3    41  THR41       0.1994
     20  C         -8.7610  -12.4160  -19.2190 C.2    41  THR41       0.2618
     21  O         -7.7110  -13.0760  -18.9910 O.2    41  THR41      -0.2717
     22  CB        -9.9900  -13.0510  -21.3120 C.3    41  THR41       0.1784
     23  OG1       -9.2740  -14.2710  -21.4480 O.3    41  THR41      -0.2211
     24  CG2      -10.3810  -12.6040  -22.6800 C.3    41  THR41       0.0376
     25  N         -9.6270  -12.0250  -18.2680 N.am   42  GLY42      -0.1942
     26  CA        -9.4500  -12.3770  -16.8990 C.3    42  GLY42       0.2014
     27  C         -9.8510  -13.8110  -16.6070 C.2    42  GLY42       0.2639
     28  O        -10.8090  -14.3460  -17.1770 O.2    42  GLY42      -0.2714
     29  N         -9.0970  -14.4360  -15.7270 N.am   43  GLY43      -0.1939
     30  CA        -9.3720  -15.8070  -15.3630 C.3    43  GLY43       0.2014
     31  C        -10.6760  -16.0010  -14.6120 C.2    43  GLY43       0.2639
     32  O        -11.2680  -17.0550  -14.7210 O.2    43  GLY43      -0.2714
     33  N        -11.1410  -15.0080  -13.8690 N.am   44  PHE44      -0.1959
     34  CA       -12.2880  -15.1950  -12.9890 C.3    44  PHE44       0.1771
     35  C        -13.5870  -14.7990  -13.6900 C.2    44  PHE44       0.2619
     36  O        -14.5320  -15.5890  -13.7650 O.2    44  PHE44      -0.2715
     37  CB       -12.1080  -14.3860  -11.7070 C.3    44  PHE44       0.0574
     38  CG       -13.1970  -14.5990  -10.6760 C.ar   44  PHE44      -0.0200
     39  CD1      -13.3320  -15.8200  -10.0300 C.ar   44  PHE44      -0.0042
     40  CD2      -14.0730  -13.5730  -10.3370 C.ar   44  PHE44      -0.0042
     41  CE1      -14.3250  -16.0150   -9.0680 C.ar   44  PHE44      -0.0003
     42  CE2      -15.0650  -13.7610   -9.3690 C.ar   44  PHE44      -0.0003
     43  CZ       -15.1990  -14.9890   -8.7510 C.ar   44  PHE44      -0.0000
     44  N        -13.6520  -13.5660  -14.1910 N.am   45  LEU45      -0.1977
     45  CA       -14.8420  -13.1190  -14.9000 C.3    45  LEU45       0.1596
     46  C        -14.8860  -13.5630  -16.3640 C.2    45  LEU45       0.2287
     47  O        -15.9400  -13.5270  -16.9720 O.2    45  LEU45      -0.2864
     48  CB       -14.9560  -11.5980  -14.7890 C.3    45  LEU45       0.0297
     49  CG       -15.0070  -11.0730  -13.3640 C.3    45  LEU45       0.0022
     50  CD1      -14.9410   -9.5590  -13.3470 C.3    45  LEU45       0.0001
     51  CD2      -16.2420  -11.5700  -12.6370 C.3    45  LEU45       0.0001
     52  N        -13.8630  -12.0370  -18.9330 N.3    47  ALA47      -0.1245
     53  CA       -14.2320  -10.9050  -19.7700 C.3    47  ALA47       0.1562
     54  C        -12.9460  -10.2020  -20.2340 C.2    47  ALA47       0.2260
     55  O        -11.8800  -10.3790  -19.6400 O.2    47  ALA47      -0.2867
     56  CB       -15.0960   -9.9520  -18.9730 C.3    47  ALA47       0.0290
     57  N         -9.9500   -7.7460  -20.8430 N.3    49  ASN49      -0.1240
     58  CA        -9.2190   -6.6590  -20.2060 C.3    49  ASN49       0.1653
     59  C         -8.0270   -6.3170  -21.0950 C.2    49  ASN49       0.2266
     60  O         -7.9350   -6.8410  -22.2370 O.2    49  ASN49      -0.2867
     61  CB        -8.9080   -6.9260  -18.7240 C.3    49  ASN49       0.1155
     62  CG        -8.2860   -8.2830  -18.4410 C.2    49  ASN49       0.2627
     63  OD1       -7.5850   -8.8620  -19.2520 O.2    49  ASN49      -0.2716
     64  ND2       -8.5230   -8.7770  -17.2260 N.am   49  ASN49      -0.0877
     65  N         -9.1850    2.1220   -8.6780 N.3    74  ASN74      -0.1240
     66  CA       -10.4150    1.4550   -8.2590 C.3    74  ASN74       0.1653
     67  C        -11.4520    2.4990   -7.8720 C.2    74  ASN74       0.2266
     68  O        -11.0970    3.5260   -7.3150 O.2    74  ASN74      -0.2867
     69  CB       -10.1200    0.6040   -7.0150 C.3    74  ASN74       0.1155
     70  CG       -11.1320   -0.4910   -6.7990 C.2    74  ASN74       0.2627
     71  OD1      -12.0520   -0.3790   -5.9650 O.2    74  ASN74      -0.2716
     72  ND2      -10.9790   -1.5700   -7.5510 N.am   74  ASN74      -0.0877
     73  N        -17.1340   -2.6520   -7.0740 N.3    87  GLU87      -0.1245
     74  CA       -15.8210   -2.1260   -7.4440 C.3    87  GLU87       0.1567
     75  C        -15.6340   -2.2940   -8.9470 C.2    87  GLU87       0.2260
     76  O        -15.8670   -3.3660   -9.5080 O.2    87  GLU87      -0.2867
     77  CB       -14.6640   -2.8070   -6.6560 C.3    87  GLU87       0.0388
     78  CG       -14.7160   -4.3300   -6.5290 C.3    87  GLU87       0.1160
     79  CD       -13.4920   -4.9250   -5.8270 C.2    87  GLU87       0.3649
     80  OE1      -12.9780   -4.3180   -4.8550 O.co2  87  GLU87      -0.2457
     81  OE2      -13.0500   -6.0220   -6.2370 O.co2  87  GLU87      -0.2457
     82  N        -12.9130   -0.7930  -12.3210 N.3    89  GLY89      -0.1210
     83  CA       -11.6210   -0.1770  -12.5870 C.3    89  GLY89       0.1956
     84  C        -10.6150   -0.9140  -11.7550 C.2    89  GLY89       0.2612
     85  O        -10.8510   -2.0390  -11.3800 O.2    89  GLY89      -0.2717
     86  N         -9.5150   -0.2740  -11.4150 N.am   90  GLY90      -0.1942
     87  CA        -8.4930   -0.9270  -10.6740 C.3    90  GLY90       0.2014
     88  C         -7.4680   -1.4260  -11.6770 C.2    90  GLY90       0.2639
     89  O         -7.7830   -1.7230  -12.8620 O.2    90  GLY90      -0.2714
     90  N         -6.2570   -1.5390  -11.1680 N.am   91  ALA91      -0.1963
     91  CA        -5.1060   -1.9860  -11.9320 C.3    91  ALA91       0.1728
     92  C         -4.3330   -2.9510  -11.0600 C.2    91  ALA91       0.2616
     93  O         -4.2960   -2.8030   -9.8480 O.2    91  ALA91      -0.2715
     94  CB        -4.2030   -0.7990  -12.3200 C.3    91  ALA91       0.0334
     95  N         -3.8050   -3.9730  -11.6920 N.am   92  THR92      -0.1951
     96  CA        -2.9350   -4.9320  -11.0490 C.3    92  THR92       0.1897
     97  C         -1.5820   -4.7950  -11.7710 C.2    92  THR92       0.2313
     98  O         -1.5210   -4.9370  -12.9970 O.2    92  THR92      -0.2863
     99  CB        -3.5390   -6.3260  -11.1810 C.3    92  THR92       0.1794
    100  OG1       -4.7530   -6.4020  -10.4090 O.3    92  THR92      -0.2208
    101  CG2       -2.5960   -7.3720  -10.6740 C.3    92  THR92       0.0378
    102  N          2.5830   -5.7180  -11.9110 N.3    94  PHE94      -0.1241
    103  CA         3.7950   -6.4030  -11.5450 C.3    94  PHE94       0.1605
    104  C          5.0050   -5.6280  -12.0060 C.2    94  PHE94       0.2264
    105  O          5.0300   -5.1180  -13.1350 O.2    94  PHE94      -0.2867
    106  CB         3.8090   -7.7710  -12.1760 C.3    94  PHE94       0.0534
    107  CG         2.6760   -8.6150  -11.7380 C.ar   94  PHE94      -0.0203
    108  CD1        1.4610   -8.5270  -12.3890 C.ar   94  PHE94      -0.0042
    109  CD2        2.7780   -9.3900  -10.5950 C.ar   94  PHE94      -0.0042
    110  CE1        0.3920   -9.2750  -11.9940 C.ar   94  PHE94      -0.0003
    111  CE2        1.6810  -10.1260  -10.1720 C.ar   94  PHE94      -0.0003
    112  CZ         0.4900  -10.0720  -10.8760 C.ar   94  PHE94      -0.0000
@<TRIPOS>BOND
     1    24    22    1
     2    60    59    2
     3    23    22    1
     4    18    19    1
     5    22    19    1
     6    59    58    1
     7    57    58    1
     8    19    20    1
     9    54    53    1
    10    54    55    2
    11    58    61    1
    12    53    56    1
    13    53    52    1
    14    63    62    2
    15    20    21    2
    16    20    25   am
    17    12    11    2
    18    11    10    1
    19    61    62    1
    20    62    64   am
    21    25    26    1
    22    10     9    1
    23    10    13    1
    24    28    27    2
    25    47    46    2
    26    26    27    1
    27    27    29   am
    28    13    14    1
    29    46    45    1
    30     7     5    1
    31    16    15    2
    32     2     3    1
    33     2     1    1
    34     2     5    1
    35     6     5    1
    36     6     8    1
    37     3     4    2
    38    29    30    1
    39    15    14    1
    40    15    17   am
    41    30    31    1
    42    45    48    1
    43    45    44    1
    44    48    49    1
    45    32    31    2
    46    31    33   am
    47    44    35   am
    48    33    34    1
    49    36    35    2
    50    35    34    1
    51    49    50    1
    52    49    51    1
    53   105   104    2
    54    98    97    2
    55    34    37    1
    56    89    88    2
    57    83    82    1
    58    83    84    1
    59   108   110   ar
    60   108   107   ar
    61    94    91    1
    62   106   107    1
    63   106   103    1
    64   104   103    1
    65   110   112   ar
    66    91    90    1
    67    91    92    1
    68   102   103    1
    69    97    96    1
    70    84    86   am
    71    84    85    2
    72   107   109   ar
    73    37    38    1
    74    95    92   am
    75    95    96    1
    76    88    90   am
    77    88    87    1
    78    86    87    1
    79    99    96    1
    80    99   101    1
    81    99   100    1
    82    92    93    2
    83   112   111   ar
    84    38    40   ar
    85    38    39   ar
    86   109   111   ar
    87    40    42   ar
    88    39    41   ar
    89    76    75    2
    90    42    43   ar
    91    41    43   ar
    92    75    74    1
    93    65    66    1
    94    66    67    1
    95    66    69    1
    96    67    68    2
    97    72    70   am
    98    74    73    1
    99    74    77    1
   100    69    70    1
   101    70    71    2
   102    77    78    1
   103    78    79    1
   104    81    79   ar
   105    79    80   ar
