@<TRIPOS>MOLECULE
tmp/4d3hB01.pdb
 89 84 0 0 0
SMALL
GASTEIGER

@<TRIPOS>ATOM
      1  N         10.4830   -4.2500  -16.0930 N.3    11  MET11      -0.1245
      2  CA         9.3540   -4.4880  -16.9200 C.3    11  MET11       0.1570
      3  C          8.0980   -4.3430  -16.0850 C.2    11  MET11       0.2261
      4  O          7.9430   -5.0290  -15.0870 O.2    11  MET11      -0.2867
      5  CB         9.4420   -5.8970  -17.5330 C.3    11  MET11       0.0387
      6  CG         8.2180   -6.3050  -18.3320 C.3    11  MET11       0.0595
      7  SD         7.8730   -5.1800  -19.6650 S.3    11  MET11      -0.1393
      8  CE         9.1810   -5.6660  -20.8230 C.3    11  MET11       0.0692
      9  N          1.7430    7.9680  -23.1060 N.3    29  VAL29      -0.1245
     10  CA         2.3200    8.7010  -24.2570 C.3    29  VAL29       0.1561
     11  C          2.7140   10.1120  -23.8490 C.2    29  VAL29       0.2260
     12  O          3.8410   10.4990  -24.0450 O.2    29  VAL29      -0.2867
     13  CB         1.3390    8.7350  -25.4480 C.3    29  VAL29       0.0252
     14  CG1        1.7630    9.7510  -26.4900 C.3    29  VAL29       0.0019
     15  CG2        1.2830    7.3480  -26.0840 C.3    29  VAL29       0.0019
     16  N          5.7740   10.1830  -21.9330 N.3    32  ASN32      -0.1225
     17  CA         6.8650    9.5190  -22.6430 C.3    32  ASN32       0.1785
     18  C          7.2530    8.1540  -22.1790 C.2    32  ASN32       0.2597
     19  O          8.4100    7.7660  -22.3010 O.2    32  ASN32      -0.2718
     20  CB         8.0840   10.4220  -22.6870 C.3    32  ASN32       0.1169
     21  CG         7.8190   11.6550  -23.4940 C.2    32  ASN32       0.2627
     22  OD1        7.1260   11.6080  -24.5220 O.2    32  ASN32      -0.2716
     23  ND2        8.2970   12.7750  -23.0060 N.am   32  ASN32      -0.0877
     24  N          6.2750    7.4060  -21.7120 N.am   33  PHE33      -0.1962
     25  CA         6.4630    5.9890  -21.4150 C.3    33  PHE33       0.1771
     26  C          6.0750    5.1520  -22.6220 C.2    33  PHE33       0.2619
     27  O          5.0320    5.3940  -23.2500 O.2    33  PHE33      -0.2715
     28  CB         5.6080    5.5820  -20.2400 C.3    33  PHE33       0.0574
     29  CG         6.0730    6.1390  -18.9430 C.ar   33  PHE33      -0.0200
     30  CD1        7.2450    5.6850  -18.3610 C.ar   33  PHE33      -0.0042
     31  CD2        5.3210    7.1100  -18.2790 C.ar   33  PHE33      -0.0042
     32  CE1        7.6710    6.1840  -17.1420 C.ar   33  PHE33      -0.0003
     33  CE2        5.7560    7.6260  -17.0800 C.ar   33  PHE33      -0.0003
     34  CZ         6.9270    7.1710  -16.5070 C.ar   33  PHE33      -0.0000
     35  N          6.9240    4.2030  -22.9660 N.am   34  ARG34      -0.1963
     36  CA         6.6530    3.3150  -24.0710 C.3    34  ARG34       0.1729
     37  C          5.8630    2.1570  -23.5670 C.2    34  ARG34       0.2616
     38  O          6.0330    1.7150  -22.4330 O.2    34  ARG34      -0.2715
     39  CB         7.9370    2.7840  -24.6490 C.3    34  ARG34       0.0348
     40  CG         8.9740    3.8090  -24.9770 C.3    34  ARG34       0.0492
     41  CD         8.5470    4.6930  -26.0700 C.3    34  ARG34       0.2205
     42  NE         9.6230    5.5450  -26.5900 N.pl3  34  ARG34      -0.0865
     43  CZ         9.7970    6.8210  -26.2870 C.cat  34  ARG34       0.5346
     44  NH1        8.9720    7.4350  -25.4440 N.pl3  34  ARG34       0.1354
     45  NH2       10.7470    7.5240  -26.8990 N.pl3  34  ARG34       0.1354
     46  N          4.9780    1.6420  -24.3920 N.am   35  ALA35      -0.1963
     47  CA         4.1400    0.5080  -23.9780 C.3    35  ALA35       0.1728
     48  C          3.8900   -0.3560  -25.1660 C.2    35  ALA35       0.2616
     49  O          3.8630    0.1340  -26.3310 O.2    35  ALA35      -0.2715
     50  CB         2.8150    1.0040  -23.4200 C.3    35  ALA35       0.0334
     51  N          3.6400   -1.6110  -24.8730 N.am   36  THR36      -0.1951
     52  CA         3.0630   -2.5280  -25.7950 C.3    36  THR36       0.1897
     53  C          1.7830   -3.0940  -25.1400 C.2    36  THR36       0.2313
     54  O          1.8140   -3.4860  -23.9830 O.2    36  THR36      -0.2863
     55  CB         4.0900   -3.6260  -26.1130 C.3    36  THR36       0.1794
     56  OG1        5.2380   -3.0380  -26.7610 O.3    36  THR36      -0.2208
     57  CG2        3.4830   -4.7160  -26.9850 C.3    36  THR36       0.0378
     58  N          2.5980   -3.9490  -21.3040 N.3    53  LEU53      -0.1245
     59  CA         3.9830   -4.2040  -21.0140 C.3    53  LEU53       0.1561
     60  C          4.7540   -2.9020  -21.2440 C.2    53  LEU53       0.2260
     61  O          4.7960   -2.3910  -22.3590 O.2    53  LEU53      -0.2867
     62  CB         4.5600   -5.2850  -21.9430 C.3    53  LEU53       0.0270
     63  CG         3.7650   -6.5720  -22.0950 C.3    53  LEU53       0.0019
     64  CD1        4.4350   -7.4730  -23.1380 C.3    53  LEU53       0.0001
     65  CD2        3.6630   -7.2950  -20.7630 C.3    53  LEU53       0.0001
     66  N          8.5460   -1.3630  -20.5200 N.3    55  GLY55      -0.1225
     67  CA         9.9340   -1.4100  -20.0800 C.3    55  GLY55       0.1811
     68  C         10.3090   -0.0020  -19.6610 C.2    55  GLY55       0.2280
     69  O         10.1500    0.9280  -20.4330 O.2    55  GLY55      -0.2866
     70  N         18.3560   -4.7130  -22.2850 N.3   101  PHE101     -0.1241
     71  CA        17.4070   -4.0450  -23.1540 C.3   101  PHE101      0.1605
     72  C         18.1110   -3.6210  -24.4230 C.2   101  PHE101      0.2264
     73  O         19.1210   -2.8970  -24.3640 O.2   101  PHE101     -0.2867
     74  CB        16.8520   -2.8470  -22.3610 C.3   101  PHE101      0.0534
     75  CG        15.9560   -1.9320  -23.1570 C.ar  101  PHE101     -0.0203
     76  CD1       15.0340   -2.4100  -24.0230 C.ar  101  PHE101     -0.0042
     77  CD2       16.0110   -0.5590  -22.9540 C.ar  101  PHE101     -0.0042
     78  CE1       14.2170   -1.5500  -24.7360 C.ar  101  PHE101     -0.0003
     79  CE2       15.1470    0.2950  -23.6340 C.ar  101  PHE101     -0.0003
     80  CZ        14.2670   -0.2140  -24.5440 C.ar  101  PHE101     -0.0000
     81  N         17.7760   -2.3920  -28.7410 N.3   103  GLN103     -0.1245
     82  CA        17.0400   -1.9600  -29.9150 C.3   103  GLN103      0.1566
     83  C         17.8710   -2.2000  -31.1510 C.2   103  GLN103      0.2260
     84  O         19.0220   -1.8680  -31.2030 O.2   103  GLN103     -0.2867
     85  CB        16.5960   -0.5110  -29.7950 C.3   103  GLN103      0.0367
     86  CG        15.4070   -0.3980  -28.8530 C.3   103  GLN103      0.0905
     87  CD        14.6910    0.9170  -29.0080 C.2   103  GLN103      0.2608
     88  OE1       15.3290    1.9770  -29.0910 O.2   103  GLN103     -0.2717
     89  NE2       13.3560    0.8560  -29.0910 N.am  103  GLN103     -0.0878
@<TRIPOS>BOND
     1    84    83    2
     2    83    82    1
     3    82    85    1
     4    82    81    1
     5    85    86    1
     6    89    87   am
     7    88    87    2
     8    87    86    1
     9    57    55    1
    10    45    43    1
    11    56    55    1
    12    42    43    2
    13    42    41    1
    14    14    13    1
    15    49    48    2
    16    43    44    1
    17    55    52    1
    18    15    13    1
    19    41    40    1
    20    52    53    1
    21    52    51    1
    22    13    10    1
    23    48    51   am
    24    48    47    1
    25    53    54    2
    26    40    39    1
    27    78    80   ar
    28    78    76   ar
    29    39    36    1
    30    80    79   ar
    31    22    21    2
    32    72    73    2
    33    72    71    1
    34    46    47    1
    35    46    37   am
    36    10    11    1
    37    10     9    1
    38    36    37    1
    39    36    35    1
    40    12    11    2
    41    76    75   ar
    42    47    50    1
    43    79    77   ar
    44    37    38    2
    45    21    23   am
    46    21    20    1
    47    27    26    2
    48    75    77   ar
    49    75    74    1
    50    71    74    1
    51    71    70    1
    52    64    63    1
    53    35    26   am
    54    20    17    1
    55    17    18    1
    56    17    16    1
    57    26    25    1
    58    61    60    2
    59    19    18    2
    60    18    24   am
    61    63    62    1
    62    63    65    1
    63    62    59    1
    64    24    25    1
    65    25    28    1
    66    58    59    1
    67    60    59    1
    68     8     7    1
    69    66    67    1
    70    69    68    2
    71    28    29    1
    72    67    68    1
    73     7     6    1
    74    29    30   ar
    75    29    31   ar
    76    30    32   ar
    77     6     5    1
    78    31    33   ar
    79     5     2    1
    80    32    34   ar
    81    33    34   ar
    82     2     1    1
    83     2     3    1
    84     3     4    2
