@<TRIPOS>MOLECULE
tmp/4d3iA01.pdb
 166 164 0 0 0
SMALL
GASTEIGER

@<TRIPOS>ATOM
      1  N         -1.6690   13.0950   19.6390 N.3    66  CYS66      -0.1235
      2  CA        -1.9950   13.9360   20.7870 C.3    66  CYS66       0.1677
      3  C         -3.3500   13.6100   21.4060 C.2    66  CYS66       0.2270
      4  O         -4.3800   13.7190   20.7360 O.2    66  CYS66      -0.2867
      5  CB        -2.0040   15.4080   20.3810 C.3    66  CYS66       0.0956
      6  SG        -2.4340   16.4590   21.7770 S.3    66  CYS66      -0.0801
      7  N         15.1300   21.1400   22.3020 N.3   128  HIS128     -0.1226
      8  CA        13.9900   20.2420   22.0660 C.3   128  HIS128      0.1752
      9  C         12.7330   20.7950   22.7520 C.2   128  HIS128      0.2595
     10  O         11.6590   20.8370   22.1630 O.2   128  HIS128     -0.2718
     11  CB        14.2670   18.8190   22.5520 C.3   128  HIS128      0.0759
     12  CG        13.0250   17.9930   22.7170 C.ar  128  HIS128      0.0818
     13  ND1       12.2510   17.5860   21.6510 N.ar  128  HIS128     -0.2268
     14  CD2       12.4170   17.5070   23.8280 C.ar  128  HIS128      0.1154
     15  CE1       11.2210   16.8850   22.0950 C.ar  128  HIS128      0.1986
     16  NE2       11.2980   16.8240   23.4140 N.ar  128  HIS128     -0.2212
     17  N         12.8850   21.2060   24.0050 N.am  129  GLN129     -0.1979
     18  CA        11.8700   21.9920   24.7100 C.3   129  GLN129      0.1601
     19  C         12.5490   23.2420   25.2340 C.2   129  GLN129      0.2287
     20  O         13.7490   23.2050   25.5040 O.2   129  GLN129     -0.2864
     21  CB        11.2750   21.1950   25.8670 C.3   129  GLN129      0.0394
     22  CG        10.3990   20.0200   25.3820 C.3   129  GLN129      0.0908
     23  CD         9.8940   19.1480   26.5140 C.2   129  GLN129      0.2608
     24  OE1        9.6150   19.6340   27.6120 O.2   129  GLN129     -0.2717
     25  NE2        9.7630   17.8480   26.2480 N.am  129  GLN129     -0.0878
     26  N          5.7820   21.8480   29.5750 N.3   216  PRO216     -0.2116
     27  CA         6.5120   21.2750   28.4380 C.3   216  PRO216      0.1372
     28  C          6.2780   22.0780   27.1650 C.2   216  PRO216      0.2244
     29  O          5.1550   22.1530   26.6720 O.2   216  PRO216     -0.2868
     30  CB         5.8970   19.8860   28.3020 C.3   216  PRO216      0.0268
     31  CG         4.4350   20.0930   28.7520 C.3   216  PRO216      0.0207
     32  CD         4.4720   21.1940   29.7920 C.3   216  PRO216      0.0892
     33  N          7.3680   22.3180   23.4180 N.3   218  ILE218     -0.1245
     34  CA         8.0690   21.7170   22.2820 C.3   218  ILE218      0.1561
     35  C          8.5730   22.7790   21.3110 C.2   218  ILE218      0.2260
     36  O          7.7990   23.6070   20.8180 O.2   218  ILE218     -0.2867
     37  CB         7.1750   20.7120   21.5450 C.3   218  ILE218      0.0252
     38  CG1        6.7430   19.6210   22.5150 C.3   218  ILE218      0.0019
     39  CG2        7.9370   20.0730   20.3610 C.3   218  ILE218      0.0019
     40  CD1        7.9200   18.7600   22.9820 C.3   218  ILE218      0.0001
     41  N          9.7990   21.2460   16.3910 N.3   221  MET221     -0.1245
     42  CA         8.9930   20.7430   15.2800 C.3   221  MET221      0.1570
     43  C          8.6580   21.8280   14.2590 C.2   221  MET221      0.2261
     44  O          8.6130   23.0110   14.5840 O.2   221  MET221     -0.2867
     45  CB         7.7150   20.0620   15.8010 C.3   221  MET221      0.0387
     46  CG         8.0200   18.9010   16.7420 C.3   221  MET221      0.0595
     47  SD         6.5680   17.9260   17.1810 S.3   221  MET221     -0.1393
     48  CE         6.2070   17.1400   15.6100 C.3   221  MET221      0.0692
     49  N          5.4810   25.3770   20.8100 N.3   235  PHE235     -0.1227
     50  CA         4.1280   25.2840   21.3740 C.3   235  PHE235      0.1736
     51  C          4.1220   24.5030   22.6990 C.2   235  PHE235      0.2595
     52  O          5.0280   23.6980   22.9540 O.2   235  PHE235     -0.2718
     53  CB         3.1630   24.6610   20.3530 C.3   235  PHE235      0.0547
     54  CG         3.5730   23.2770   19.8730 C.ar  235  PHE235     -0.0202
     55  CD1        3.2110   22.1410   20.5930 C.ar  235  PHE235     -0.0042
     56  CD2        4.3100   23.1180   18.6970 C.ar  235  PHE235     -0.0042
     57  CE1        3.5780   20.8520   20.1520 C.ar  235  PHE235     -0.0003
     58  CE2        4.6940   21.8440   18.2490 C.ar  235  PHE235     -0.0003
     59  CZ         4.3170   20.7030   18.9770 C.ar  235  PHE235     -0.0000
     60  N          3.1120   24.7450   23.5340 N.am  236  ASN236     -0.1960
     61  CA         3.0070   24.0710   24.8270 C.3   236  ASN236      0.1819
     62  C          1.5750   23.7100   25.1680 C.2   236  ASN236      0.2622
     63  O          0.6380   24.3690   24.7170 O.2   236  ASN236     -0.2715
     64  CB         3.5220   24.9550   25.9620 C.3   236  ASN236      0.1195
     65  CG         2.6000   26.1400   26.2400 C.2   236  ASN236      0.2630
     66  OD1        2.6300   27.1240   25.5190 O.2   236  ASN236     -0.2716
     67  ND2        1.7660   26.0370   27.2820 N.am  236  ASN236     -0.0877
     68  N          1.4240   22.6730   25.9860 N.am  237  GLY237     -0.1940
     69  CA         0.1830   22.4030   26.6850 C.3   237  GLY237      0.2014
     70  C          0.5370   22.3340   28.1610 C.2   237  GLY237      0.2639
     71  O          1.4950   22.9780   28.6090 O.2   237  GLY237     -0.2714
     72  N         -0.2450   21.5840   28.9280 N.am  238  TRP238     -0.1959
     73  CA         0.1410   21.1960   30.2840 C.3   238  TRP238      0.1771
     74  C          0.4430   19.7070   30.2240 C.2   238  TRP238      0.2620
     75  O          0.0780   19.0540   29.2470 O.2   238  TRP238     -0.2715
     76  CB        -0.9740   21.4880   31.2840 C.3   238  TRP238      0.0590
     77  CG        -2.3190   20.9270   30.8720 C.ar  238  TRP238      0.0006
     78  CD1       -2.7230   19.6030   30.9020 C.ar  238  TRP238      0.0946
     79  CD2       -3.4200   21.6720   30.3610 C.ar  238  TRP238      0.0152
     80  NE1       -4.0300   19.5010   30.4480 N.ar  238  TRP238     -0.2442
     81  CE2       -4.4740   20.7530   30.1090 C.ar  238  TRP238      0.0810
     82  CE3       -3.6310   23.0340   30.1020 C.ar  238  TRP238      0.0012
     83  CZ2       -5.7030   21.1580   29.5920 C.ar  238  TRP238      0.0191
     84  CZ3       -4.8540   23.4330   29.5950 C.ar  238  TRP238      0.0001
     85  CH2       -5.8800   22.5010   29.3560 C.ar  238  TRP238      0.0015
     86  N          1.1240   19.1730   31.2360 N.am  239  TYR239     -0.1960
     87  CA         1.5020   17.7550   31.2310 C.3   239  TYR239      0.1771
     88  C          0.3370   16.8250   31.5650 C.2   239  TYR239      0.2619
     89  O         -0.5660   17.1690   32.3360 O.2   239  TYR239     -0.2715
     90  CB         2.5830   17.4910   32.2680 C.3   239  TYR239      0.0574
     91  CG         4.0100   17.6140   31.7860 C.ar  239  TYR239     -0.0198
     92  CD1        4.5160   16.7290   30.8510 C.ar  239  TYR239     -0.0009
     93  CD2        4.8680   18.5790   32.3080 C.ar  239  TYR239     -0.0009
     94  CE1        5.8360   16.8080   30.4200 C.ar  239  TYR239      0.0417
     95  CE2        6.2110   18.6600   31.8840 C.ar  239  TYR239      0.0417
     96  CZ         6.6790   17.7750   30.9420 C.ar  239  TYR239      0.1957
     97  OH         7.9900   17.8130   30.4890 O.3   239  TYR239     -0.2866
     98  N          0.3790   15.6340   30.9830 N.am  240  MET240     -0.1977
     99  CA        -0.3550   14.5030   31.5190 C.3   240  MET240      0.1605
    100  C          0.6070   13.8390   32.5030 C.2   240  MET240      0.2287
    101  O          1.8000   13.7150   32.2140 O.2   240  MET240     -0.2864
    102  CB        -0.7610   13.5550   30.3980 C.3   240  MET240      0.0413
    103  CG        -1.6450   12.4080   30.8650 C.3   240  MET240      0.0598
    104  SD        -2.4360   11.5350   29.5040 S.3   240  MET240     -0.1393
    105  CE        -1.0800   10.6310   28.7730 C.3   240  MET240      0.0692
    106  N          3.4800   11.2650   31.7360 N.3   243  GLU243     -0.1245
    107  CA         4.6610   11.6870   30.9860 C.3   243  GLU243      0.1567
    108  C          5.8310   11.9020   31.9450 C.2   243  GLU243      0.2260
    109  O          6.9880   11.6540   31.6110 O.2   243  GLU243     -0.2867
    110  CB         4.3860   12.9750   30.2160 C.3   243  GLU243      0.0388
    111  CG         3.2980   12.8450   29.1610 C.3   243  GLU243      0.1160
    112  CD         3.0860   14.1400   28.3860 C.2   243  GLU243      0.3649
    113  OE1        3.8450   14.3780   27.4250 O.co2 243  GLU243     -0.2457
    114  OE2        2.1630   14.9180   28.7290 O.co2 243  GLU243     -0.2457
    115  N          7.5440    8.0320   32.4390 N.3   247  ARG247     -0.1245
    116  CA         8.5710    8.1310   31.4060 C.3   247  ARG247      0.1563
    117  C          9.8150    8.9120   31.8360 C.2   247  ARG247      0.2260
    118  O         10.8770    8.3260   31.9890 O.2   247  ARG247     -0.2867
    119  CB         7.9800    8.7090   30.1220 C.3   247  ARG247      0.0307
    120  CG         6.7210    7.9780   29.6780 C.3   247  ARG247      0.0489
    121  CD         7.0250    6.5170   29.3170 C.3   247  ARG247      0.2205
    122  NE         7.1170    6.3770   27.8710 N.pl3 247  ARG247     -0.0865
    123  CZ         8.2490    6.4120   27.1830 C.cat 247  ARG247      0.5346
    124  NH1        9.4030    6.5530   27.8060 N.pl3 247  ARG247      0.1354
    125  NH2        8.2210    6.3010   25.8680 N.pl3 247  ARG247      0.1354
    126  N         -0.6870    3.8220   19.0030 N.3   328  THR328     -0.1203
    127  CA         0.5460    3.5900   19.7740 C.3   328  THR328      0.1994
    128  C          0.9960    4.7810   20.6500 C.2   328  THR328      0.2617
    129  O          1.6910    4.5920   21.6580 O.2   328  THR328     -0.2717
    130  CB         1.7280    3.0890   18.8760 C.3   328  THR328      0.1784
    131  OG1        2.2240    4.1570   18.0570 O.3   328  THR328     -0.2211
    132  CG2        1.2750    1.9470   17.9820 C.3   328  THR328      0.0376
    133  N          0.5920    5.9970   20.2910 N.am  329  TRP329     -0.1975
    134  CA         0.9110    7.1690   21.1250 C.3   329  TRP329      0.1640
    135  C         -0.2310    7.6280   22.0120 C.2   329  TRP329      0.2290
    136  O         -0.0100    8.2450   23.0510 O.2   329  TRP329     -0.2864
    137  CB         1.4020    8.3550   20.2820 C.3   329  TRP329      0.0576
    138  CG         2.8430    8.2300   19.8470 C.ar  329  TRP329      0.0006
    139  CD1        3.4050    7.1990   19.1430 C.ar  329  TRP329      0.0946
    140  CD2        3.8950    9.1920   20.0620 C.ar  329  TRP329      0.0152
    141  NE1        4.7410    7.4550   18.9170 N.ar  329  TRP329     -0.2442
    142  CE2        5.0680    8.6650   19.4760 C.ar  329  TRP329      0.0810
    143  CE3        3.9560   10.4370   20.6970 C.ar  329  TRP329      0.0012
    144  CZ2        6.2920    9.3480   19.4970 C.ar  329  TRP329      0.0191
    145  CZ3        5.1730   11.1180   20.7230 C.ar  329  TRP329      0.0001
    146  CH2        6.3250   10.5660   20.1220 C.ar  329  TRP329      0.0015
    147  N         -2.5250    5.6960   23.6230 N.3   331  ILE331     -0.1245
    148  CA        -2.6740    4.9290   24.8690 C.3   331  ILE331      0.1561
    149  C         -1.6500    5.4060   25.9070 C.2   331  ILE331      0.2260
    150  O         -0.5150    5.6950   25.5580 O.2   331  ILE331     -0.2867
    151  CB        -2.5430    3.3890   24.6660 C.3   331  ILE331      0.0252
    152  CG1       -1.1930    3.0310   24.0340 C.3   331  ILE331      0.0019
    153  CG2       -3.6910    2.8580   23.8170 C.3   331  ILE331      0.0019
    154  CD1       -0.7920    1.5910   24.2580 C.3   331  ILE331      0.0001
    155  N          8.4010   16.5230   12.3400 N.3   357  TYR357     -0.1241
    156  CA         9.7950   16.4570   12.7410 C.3   357  TYR357      0.1605
    157  C         10.6700   17.1260   11.6960 C.2   357  TYR357      0.2264
    158  O         10.3250   17.1690   10.5120 O.2   357  TYR357     -0.2867
    159  CB        10.2410   15.0060   12.8560 C.3   357  TYR357      0.0534
    160  CG         9.6160   14.2410   13.9880 C.ar  357  TYR357     -0.0201
    161  CD1        9.2540   14.8780   15.1650 C.ar  357  TYR357     -0.0009
    162  CD2        9.3970   12.8690   13.8820 C.ar  357  TYR357     -0.0009
    163  CE1        8.6830   14.1700   16.2140 C.ar  357  TYR357      0.0417
    164  CE2        8.8270   12.1490   14.9220 C.ar  357  TYR357      0.0417
    165  CZ         8.4740   12.8060   16.0820 C.ar  357  TYR357      0.1957
    166  OH         7.9130   12.1010   17.1140 O.3   357  TYR357     -0.2866
@<TRIPOS>BOND
     1   158   157    2
     2   157   156    1
     3   155   156    1
     4   156   159    1
     5   159   160    1
     6   162   160   ar
     7   162   164   ar
     8   160   161   ar
     9    43    44    2
    10    43    42    1
    11   164   165   ar
    12   161   163   ar
    13    42    45    1
    14    42    41    1
    15    48    47    1
    16    45    46    1
    17   165   163   ar
    18   165   166    1
    19    46    47    1
    20   132   130    1
    21   131   130    1
    22    58    56   ar
    23    58    59   ar
    24    56    54   ar
    25   130   127    1
    26   141   139   ar
    27   141   142   ar
    28    59    57   ar
    29   126   127    1
    30   139   138   ar
    31   142   144   ar
    32   142   140   ar
    33   144   146   ar
    34     1     2    1
    35   127   128    1
    36   138   140   ar
    37   138   137    1
    38    54    53    1
    39    54    55   ar
    40   140   143   ar
    41   146   145   ar
    42    57    55   ar
    43   137   134    1
    44   133   128   am
    45   133   134    1
    46    53    50    1
    47    39    37    1
    48     5     2    1
    49     5     6    1
    50   128   129    2
    51   143   145   ar
    52     4     3    2
    53     2     3    1
    54    49    50    1
    55    36    35    2
    56   134   135    1
    57    35    34    1
    58    50    51    1
    59    37    34    1
    60    37    38    1
    61    13    15   ar
    62    13    12   ar
    63   135   136    2
    64     8     7    1
    65     8    11    1
    66     8     9    1
    67    15    16   ar
    68    10     9    2
    69    34    33    1
    70    38    40    1
    71    11    12    1
    72    51    52    2
    73    51    60   am
    74    12    14   ar
    75     9    17   am
    76    16    14   ar
    77    60    61    1
    78   147   148    1
    79   153   151    1
    80    17    18    1
    81   152   154    1
    82   152   151    1
    83   151   148    1
    84    18    19    1
    85    18    21    1
    86    63    62    2
    87    61    62    1
    88    61    64    1
    89   148   149    1
    90    62    68   am
    91    19    20    2
    92    22    21    1
    93    22    23    1
    94    66    65    2
    95   150   149    2
    96   125   123    1
    97    64    65    1
    98    68    69    1
    99    65    67   am
   100    25    23   am
   101    23    24    2
   102    29    28    2
   103    69    70    1
   104    28    27    1
   105   123   124    1
   106   123   122    2
   107   113   112   ar
   108   122   121    1
   109    70    71    2
   110    70    72   am
   111    30    27    1
   112    30    31    1
   113   112   114   ar
   114   112   111    1
   115    27    26    1
   116    31    32    1
   117   105   104    1
   118    72    73    1
   119   111   110    1
   120    75    74    2
   121   121   120    1
   122    85    83   ar
   123    85    84   ar
   124   104   103    1
   125    26    32    1
   126    83    81   ar
   127    84    82   ar
   128   120   119    1
   129    82    79   ar
   130    81    79   ar
   131    81    80   ar
   132   119   116    1
   133   110   107    1
   134    74    73    1
   135    74    86   am
   136    73    76    1
   137    79    77   ar
   138   102   103    1
   139   102    99    1
   140    94    92   ar
   141    94    96   ar
   142    80    78   ar
   143    97    96    1
   144    92    91   ar
   145    77    78   ar
   146    77    76    1
   147    96    95   ar
   148    98    99    1
   149    98    88   am
   150   107   106    1
   151   107   108    1
   152    87    86    1
   153    87    88    1
   154    87    90    1
   155   116   117    1
   156   116   115    1
   157    99   100    1
   158    88    89    2
   159   109   108    2
   160    91    90    1
   161    91    93   ar
   162   117   118    2
   163    95    93   ar
   164   101   100    2
