@<TRIPOS>MOLECULE
tmp/4d3iA00.pdb
 239 232 0 0 0
SMALL
GASTEIGER

@<TRIPOS>ATOM
      1  N         -3.0080   21.4250   15.2450 N.3    60  TRP60      -0.1241
      2  CA        -3.1020   20.7160   16.5190 C.3    60  TRP60       0.1605
      3  C         -4.2030   19.6510   16.4120 C.2    60  TRP60       0.2264
      4  O         -4.0150   18.5000   16.8230 O.2    60  TRP60      -0.2867
      5  CB        -3.3610   21.7030   17.6720 C.3    60  TRP60       0.0550
      6  CG        -3.4670   21.0730   19.0560 C.ar   60  TRP60       0.0003
      7  CD1       -3.1590   19.7710   19.4160 C.ar   60  TRP60       0.0946
      8  CD2       -3.9190   21.7210   20.2570 C.ar   60  TRP60       0.0152
      9  NE1       -3.3810   19.5890   20.7710 N.ar   60  TRP60      -0.2442
     10  CE2       -3.8560   20.7640   21.3030 C.ar   60  TRP60       0.0810
     11  CE3       -4.3700   23.0140   20.5490 C.ar   60  TRP60       0.0012
     12  CZ2       -4.2210   21.0700   22.6170 C.ar   60  TRP60       0.0191
     13  CZ3       -4.7430   23.3140   21.8520 C.ar   60  TRP60       0.0001
     14  CH2       -4.6560   22.3480   22.8710 C.ar   60  TRP60       0.0015
     15  N         -3.0800   16.4460   14.8380 N.3    63  SER63      -0.1217
     16  CA        -1.8960   15.7730   15.3870 C.3    63  SER63       0.1889
     17  C         -2.2630   14.4130   15.9430 C.2    63  SER63       0.2288
     18  O         -2.6960   14.2950   17.0900 O.2    63  SER63      -0.2866
     19  CB        -1.2350   16.6100   16.4800 C.3    63  SER63       0.2089
     20  OG        -0.9110   17.8980   15.9930 O.3    63  SER63      -0.2183
     21  N         -0.9730   11.9310   17.2910 N.3    65  ARG65      -0.1231
     22  CA        -0.3820   11.3780   18.5060 C.3    65  ARG65       0.1694
     23  C         -0.8260   12.0800   19.7800 C.2    65  ARG65       0.2592
     24  O         -0.4220   11.6980   20.8920 O.2    65  ARG65      -0.2718
     25  CB         1.1490   11.4250   18.4040 C.3    65  ARG65       0.0321
     26  CG         1.6920   10.5280   17.2980 C.3    65  ARG65       0.0489
     27  CD         3.1970   10.7110   17.0990 C.3    65  ARG65       0.2205
     28  NE         3.7740    9.5410   16.4360 N.pl3  65  ARG65      -0.0865
     29  CZ         5.0470    9.4330   16.0620 C.cat  65  ARG65       0.5346
     30  NH1        5.8930   10.4340   16.2660 N.pl3  65  ARG65       0.1354
     31  NH2        5.4730    8.3230   15.4720 N.pl3  65  ARG65       0.1354
     32  N         -1.6690   13.0950   19.6390 N.am   66  CYS66      -0.1956
     33  CA        -1.9950   13.9360   20.7870 C.3    66  CYS66       0.1843
     34  C         -3.3500   13.6100   21.4060 C.2    66  CYS66       0.2625
     35  O         -4.3800   13.7190   20.7360 O.2    66  CYS66      -0.2714
     36  CB        -2.0040   15.4080   20.3810 C.3    66  CYS66       0.0997
     37  SG        -2.4340   16.4590   21.7770 S.3    66  CYS66      -0.0797
     38  N         -3.3430   13.2680   22.6930 N.am   67  ILE67      -0.1963
     39  CA        -4.5640   12.9560   23.4290 C.3    67  ILE67       0.1727
     40  C         -5.2900   14.2120   23.9560 C.2    67  ILE67       0.2616
     41  O         -6.4400   14.1500   24.4040 O.2    67  ILE67      -0.2715
     42  CB        -4.2320   12.0040   24.5930 C.3    67  ILE67       0.0290
     43  CG1       -5.4910   11.4020   25.2180 C.3    67  ILE67       0.0022
     44  CG2       -3.4130   12.7060   25.6420 C.3    67  ILE67       0.0023
     45  CD1       -5.1550   10.3330   26.2480 C.3    67  ILE67       0.0001
     46  N         -4.6220   15.3570   23.8930 N.am   68  GLY68      -0.1955
     47  CA        -5.1750   16.5680   24.4780 C.3    68  GLY68       0.1869
     48  C         -5.9400   17.4220   23.4820 C.2    68  GLY68       0.2309
     49  O         -6.2730   18.5630   23.7680 O.2    68  GLY68      -0.2863
     50  N         -9.1660   20.4590   23.1830 N.3    71  PHE71      -0.1241
     51  CA        -9.0770   21.8850   23.3890 C.3    71  PHE71       0.1605
     52  C         -8.3920   22.6420   22.2540 C.2    71  PHE71       0.2264
     53  O         -7.9030   23.7500   22.4640 O.2    71  PHE71      -0.2867
     54  CB        -8.4010   22.1310   24.7360 C.3    71  PHE71       0.0534
     55  CG        -9.0440   21.3670   25.8600 C.ar   71  PHE71      -0.0203
     56  CD1      -10.3520   21.6600   26.2560 C.ar   71  PHE71      -0.0042
     57  CD2       -8.3630   20.3390   26.4990 C.ar   71  PHE71      -0.0042
     58  CE1      -10.9590   20.9470   27.2820 C.ar   71  PHE71      -0.0003
     59  CE2       -8.9620   19.6140   27.5260 C.ar   71  PHE71      -0.0003
     60  CZ       -10.2610   19.9070   27.9170 C.ar   71  PHE71      -0.0000
     61  N         -6.3710   27.1640   21.5050 N.3    75  LEU75      -0.1245
     62  CA        -4.9430   27.4900   21.3600 C.3    75  LEU75       0.1561
     63  C         -4.7120   29.0160   21.2770 C.2    75  LEU75       0.2260
     64  O         -5.2940   29.6980   20.4370 O.2    75  LEU75      -0.2867
     65  CB        -4.3610   26.8210   20.1070 C.3    75  LEU75       0.0270
     66  CG        -2.8530   26.9720   19.8530 C.3    75  LEU75       0.0019
     67  CD1       -1.9920   26.3280   20.9630 C.3    75  LEU75       0.0001
     68  CD2       -2.4770   26.3970   18.4980 C.3    75  LEU75       0.0001
     69  N         -2.3600   26.8150   26.8710 N.3   108  PRO108     -0.2116
     70  CA        -1.7840   26.2520   25.6430 C.3   108  PRO108      0.1372
     71  C         -1.5060   27.3700   24.6580 C.2   108  PRO108      0.2244
     72  O         -2.4160   28.1070   24.3130 O.2   108  PRO108     -0.2868
     73  CB        -2.9000   25.3560   25.1100 C.3   108  PRO108      0.0268
     74  CG        -3.6390   24.9360   26.3440 C.3   108  PRO108      0.0207
     75  CD        -3.6470   26.1820   27.2140 C.3   108  PRO108      0.0892
     76  N         15.1300   21.1400   22.3020 N.3   128  HIS128     -0.1241
     77  CA        13.9900   20.2420   22.0660 C.3   128  HIS128      0.1621
     78  C         12.7330   20.7950   22.7520 C.2   128  HIS128      0.2264
     79  O         11.6590   20.8370   22.1630 O.2   128  HIS128     -0.2867
     80  CB        14.2670   18.8190   22.5520 C.3   128  HIS128      0.0745
     81  CG        13.0250   17.9930   22.7170 C.ar  128  HIS128      0.0817
     82  ND1       12.2510   17.5860   21.6510 N.ar  128  HIS128     -0.2268
     83  CD2       12.4170   17.5070   23.8280 C.ar  128  HIS128      0.1154
     84  CE1       11.2210   16.8850   22.0950 C.ar  128  HIS128      0.1986
     85  NE2       11.2980   16.8240   23.4140 N.ar  128  HIS128     -0.2212
     86  N          7.3680   22.3180   23.4180 N.3   218  ILE218     -0.1245
     87  CA         8.0690   21.7170   22.2820 C.3   218  ILE218      0.1561
     88  C          8.5730   22.7790   21.3110 C.2   218  ILE218      0.2260
     89  O          7.7990   23.6070   20.8180 O.2   218  ILE218     -0.2867
     90  CB         7.1750   20.7120   21.5450 C.3   218  ILE218      0.0252
     91  CG1        6.7430   19.6210   22.5150 C.3   218  ILE218      0.0019
     92  CG2        7.9370   20.0730   20.3610 C.3   218  ILE218      0.0019
     93  CD1        7.9200   18.7600   22.9820 C.3   218  ILE218      0.0001
     94  N          9.7990   21.2460   16.3910 N.3   221  MET221     -0.1245
     95  CA         8.9930   20.7430   15.2800 C.3   221  MET221      0.1570
     96  C          8.6580   21.8280   14.2590 C.2   221  MET221      0.2261
     97  O          8.6130   23.0110   14.5840 O.2   221  MET221     -0.2867
     98  CB         7.7150   20.0620   15.8010 C.3   221  MET221      0.0387
     99  CG         8.0200   18.9010   16.7420 C.3   221  MET221      0.0595
    100  SD         6.5680   17.9260   17.1810 S.3   221  MET221     -0.1393
    101  CE         6.2070   17.1400   15.6100 C.3   221  MET221      0.0692
    102  N          5.4810   25.3770   20.8100 N.3   235  PHE235     -0.1227
    103  CA         4.1280   25.2840   21.3740 C.3   235  PHE235      0.1736
    104  C          4.1220   24.5030   22.6990 C.2   235  PHE235      0.2595
    105  O          5.0280   23.6980   22.9540 O.2   235  PHE235     -0.2718
    106  CB         3.1630   24.6610   20.3530 C.3   235  PHE235      0.0547
    107  CG         3.5730   23.2770   19.8730 C.ar  235  PHE235     -0.0202
    108  CD1        3.2110   22.1410   20.5930 C.ar  235  PHE235     -0.0042
    109  CD2        4.3100   23.1180   18.6970 C.ar  235  PHE235     -0.0042
    110  CE1        3.5780   20.8520   20.1520 C.ar  235  PHE235     -0.0003
    111  CE2        4.6940   21.8440   18.2490 C.ar  235  PHE235     -0.0003
    112  CZ         4.3170   20.7030   18.9770 C.ar  235  PHE235     -0.0000
    113  N          3.1120   24.7450   23.5340 N.am  236  ASN236     -0.1960
    114  CA         3.0070   24.0710   24.8270 C.3   236  ASN236      0.1819
    115  C          1.5750   23.7100   25.1680 C.2   236  ASN236      0.2622
    116  O          0.6380   24.3690   24.7170 O.2   236  ASN236     -0.2715
    117  CB         3.5220   24.9550   25.9620 C.3   236  ASN236      0.1195
    118  CG         2.6000   26.1400   26.2400 C.2   236  ASN236      0.2630
    119  OD1        2.6300   27.1240   25.5190 O.2   236  ASN236     -0.2716
    120  ND2        1.7660   26.0370   27.2820 N.am  236  ASN236     -0.0877
    121  N          1.4240   22.6730   25.9860 N.am  237  GLY237     -0.1940
    122  CA         0.1830   22.4030   26.6850 C.3   237  GLY237      0.2014
    123  C          0.5370   22.3340   28.1610 C.2   237  GLY237      0.2638
    124  O          1.4950   22.9780   28.6090 O.2   237  GLY237     -0.2714
    125  N         -0.2450   21.5840   28.9280 N.am  238  TRP238     -0.1973
    126  CA         0.1410   21.1960   30.2840 C.3   238  TRP238      0.1640
    127  C          0.4430   19.7070   30.2240 C.2   238  TRP238      0.2290
    128  O          0.0780   19.0540   29.2470 O.2   238  TRP238     -0.2864
    129  CB        -0.9740   21.4880   31.2840 C.3   238  TRP238      0.0576
    130  CG        -2.3190   20.9270   30.8720 C.ar  238  TRP238      0.0006
    131  CD1       -2.7230   19.6030   30.9020 C.ar  238  TRP238      0.0946
    132  CD2       -3.4200   21.6720   30.3610 C.ar  238  TRP238      0.0152
    133  NE1       -4.0300   19.5010   30.4480 N.ar  238  TRP238     -0.2442
    134  CE2       -4.4740   20.7530   30.1090 C.ar  238  TRP238      0.0810
    135  CE3       -3.6310   23.0340   30.1020 C.ar  238  TRP238      0.0012
    136  CZ2       -5.7030   21.1580   29.5920 C.ar  238  TRP238      0.0191
    137  CZ3       -4.8540   23.4330   29.5950 C.ar  238  TRP238      0.0001
    138  CH2       -5.8800   22.5010   29.3560 C.ar  238  TRP238      0.0015
    139  N          0.3790   15.6340   30.9830 N.3   240  MET240     -0.1245
    140  CA        -0.3550   14.5030   31.5190 C.3   240  MET240      0.1570
    141  C          0.6070   13.8390   32.5030 C.2   240  MET240      0.2261
    142  O          1.8000   13.7150   32.2140 O.2   240  MET240     -0.2867
    143  CB        -0.7610   13.5550   30.3980 C.3   240  MET240      0.0387
    144  CG        -1.6450   12.4080   30.8650 C.3   240  MET240      0.0595
    145  SD        -2.4360   11.5350   29.5040 S.3   240  MET240     -0.1393
    146  CE        -1.0800   10.6310   28.7730 C.3   240  MET240      0.0692
    147  N          3.4800   11.2650   31.7360 N.3   243  GLU243     -0.1245
    148  CA         4.6610   11.6870   30.9860 C.3   243  GLU243      0.1567
    149  C          5.8310   11.9020   31.9450 C.2   243  GLU243      0.2260
    150  O          6.9880   11.6540   31.6110 O.2   243  GLU243     -0.2867
    151  CB         4.3860   12.9750   30.2160 C.3   243  GLU243      0.0388
    152  CG         3.2980   12.8450   29.1610 C.3   243  GLU243      0.1160
    153  CD         3.0860   14.1400   28.3860 C.2   243  GLU243      0.3649
    154  OE1        3.8450   14.3780   27.4250 O.co2 243  GLU243     -0.2457
    155  OE2        2.1630   14.9180   28.7290 O.co2 243  GLU243     -0.2457
    156  N          7.5440    8.0320   32.4390 N.3   247  ARG247     -0.1245
    157  CA         8.5710    8.1310   31.4060 C.3   247  ARG247      0.1563
    158  C          9.8150    8.9120   31.8360 C.2   247  ARG247      0.2260
    159  O         10.8770    8.3260   31.9890 O.2   247  ARG247     -0.2867
    160  CB         7.9800    8.7090   30.1220 C.3   247  ARG247      0.0307
    161  CG         6.7210    7.9780   29.6780 C.3   247  ARG247      0.0489
    162  CD         7.0250    6.5170   29.3170 C.3   247  ARG247      0.2205
    163  NE         7.1170    6.3770   27.8710 N.pl3 247  ARG247     -0.0865
    164  CZ         8.2490    6.4120   27.1830 C.cat 247  ARG247      0.5346
    165  NH1        9.4030    6.5530   27.8060 N.pl3 247  ARG247      0.1354
    166  NH2        8.2210    6.3010   25.8680 N.pl3 247  ARG247      0.1354
    167  N         -2.9820   16.9960   34.0920 N.3   300  VAL300     -0.1245
    168  CA        -4.1350   16.1180   33.9210 C.3   300  VAL300      0.1561
    169  C         -3.7170   14.6580   34.1310 C.2   300  VAL300      0.2260
    170  O         -2.6210   14.2410   33.7280 O.2   300  VAL300     -0.2867
    171  CB        -4.8280   16.3320   32.5470 C.3   300  VAL300      0.0252
    172  CG1       -3.9600   15.8010   31.3990 C.3   300  VAL300      0.0019
    173  CG2       -6.1970   15.6590   32.5110 C.3   300  VAL300      0.0019
    174  N         -7.8530   12.6660   30.9820 N.3   305  ALA305     -0.1245
    175  CA        -7.3970   13.0010   29.6330 C.3   305  ALA305      0.1562
    176  C         -8.0710   12.1340   28.5750 C.2   305  ALA305      0.2260
    177  O         -8.4940   12.6490   27.5310 O.2   305  ALA305     -0.2867
    178  CB        -5.8670   12.8850   29.5310 C.3   305  ALA305      0.0290
    179  N          0.5920    5.9970   20.2910 N.3   329  TRP329     -0.1241
    180  CA         0.9110    7.1690   21.1250 C.3   329  TRP329      0.1605
    181  C         -0.2310    7.6280   22.0120 C.2   329  TRP329      0.2264
    182  O         -0.0100    8.2450   23.0510 O.2   329  TRP329     -0.2867
    183  CB         1.4020    8.3550   20.2820 C.3   329  TRP329      0.0550
    184  CG         2.8430    8.2300   19.8470 C.ar  329  TRP329      0.0003
    185  CD1        3.4050    7.1990   19.1430 C.ar  329  TRP329      0.0946
    186  CD2        3.8950    9.1920   20.0620 C.ar  329  TRP329      0.0152
    187  NE1        4.7410    7.4550   18.9170 N.ar  329  TRP329     -0.2442
    188  CE2        5.0680    8.6650   19.4760 C.ar  329  TRP329      0.0810
    189  CE3        3.9560   10.4370   20.6970 C.ar  329  TRP329      0.0012
    190  CZ2        6.2920    9.3480   19.4970 C.ar  329  TRP329      0.0191
    191  CZ3        5.1730   11.1180   20.7230 C.ar  329  TRP329      0.0001
    192  CH2        6.3250   10.5660   20.1220 C.ar  329  TRP329      0.0015
    193  N         -2.5250    5.6960   23.6230 N.3   331  ILE331     -0.1245
    194  CA        -2.6740    4.9290   24.8690 C.3   331  ILE331      0.1561
    195  C         -1.6500    5.4060   25.9070 C.2   331  ILE331      0.2260
    196  O         -0.5150    5.6950   25.5580 O.2   331  ILE331     -0.2867
    197  CB        -2.5430    3.3890   24.6660 C.3   331  ILE331      0.0252
    198  CG1       -1.1930    3.0310   24.0340 C.3   331  ILE331      0.0019
    199  CG2       -3.6910    2.8580   23.8170 C.3   331  ILE331      0.0019
    200  CD1       -0.7920    1.5910   24.2580 C.3   331  ILE331      0.0001
    201  N          0.9820    5.0710   29.1190 N.3   333  PRO333     -0.2116
    202  CA         1.9180    3.9870   29.4720 C.3   333  PRO333      0.1372
    203  C          1.5550    3.3240   30.8010 C.2   333  PRO333      0.2244
    204  O          2.2610    2.4350   31.2730 O.2   333  PRO333     -0.2868
    205  CB         3.2680    4.7140   29.6030 C.3   333  PRO333      0.0268
    206  CG         2.8990    6.1290   30.0000 C.3   333  PRO333      0.0207
    207  CD         1.5830    6.4130   29.2830 C.3   333  PRO333      0.0892
    208  N         -0.3040   20.5850    9.9580 N.3   354  ASN354     -0.1225
    209  CA         0.1920   19.6320   10.9460 C.3   354  ASN354      0.1785
    210  C          1.5770   20.0440   11.4220 C.2   354  ASN354      0.2597
    211  O          2.2070   20.9240   10.8280 O.2   354  ASN354     -0.2718
    212  CB         0.2410   18.2090   10.3490 C.3   354  ASN354      0.1169
    213  CG        -0.0730   17.1280   11.3730 C.2   354  ASN354      0.2627
    214  OD1        0.3680   17.1890   12.5120 O.2   354  ASN354     -0.2716
    215  ND2       -0.8500   16.1430   10.9680 N.am  354  ASN354     -0.0877
    216  N          2.0330   19.4090   12.5010 N.am  355  TYR355     -0.1976
    217  CA         3.3860   19.5850   13.0140 C.3   355  TYR355      0.1639
    218  C          4.2440   18.3910   12.5910 C.2   355  TYR355      0.2290
    219  O          3.7970   17.2390   12.6480 O.2   355  TYR355     -0.2864
    220  CB         3.3530   19.7310   14.5440 C.3   355  TYR355      0.0560
    221  CG         2.4960   20.9010   14.9960 C.ar  355  TYR355     -0.0198
    222  CD1        2.9780   22.2040   14.9170 C.ar  355  TYR355     -0.0009
    223  CD2        1.1890   20.7100   15.4600 C.ar  355  TYR355     -0.0009
    224  CE1        2.1990   23.2980   15.3100 C.ar  355  TYR355      0.0417
    225  CE2        0.3910   21.8070   15.8580 C.ar  355  TYR355      0.0417
    226  CZ         0.9120   23.0990   15.7720 C.ar  355  TYR355      0.1957
    227  OH         0.1580   24.2030   16.1470 O.3   355  TYR355     -0.2866
    228  N          8.4010   16.5230   12.3400 N.3   357  TYR357     -0.1241
    229  CA         9.7950   16.4570   12.7410 C.3   357  TYR357      0.1605
    230  C         10.6700   17.1260   11.6960 C.2   357  TYR357      0.2264
    231  O         10.3250   17.1690   10.5120 O.2   357  TYR357     -0.2867
    232  CB        10.2410   15.0060   12.8560 C.3   357  TYR357      0.0534
    233  CG         9.6160   14.2410   13.9880 C.ar  357  TYR357     -0.0201
    234  CD1        9.2540   14.8780   15.1650 C.ar  357  TYR357     -0.0009
    235  CD2        9.3970   12.8690   13.8820 C.ar  357  TYR357     -0.0009
    236  CE1        8.6830   14.1700   16.2140 C.ar  357  TYR357      0.0417
    237  CE2        8.8270   12.1490   14.9220 C.ar  357  TYR357      0.0417
    238  CZ         8.4740   12.8060   16.0820 C.ar  357  TYR357      0.1957
    239  OH         7.9130   12.1010   17.1140 O.3   357  TYR357     -0.2866
@<TRIPOS>BOND
     1   208   209    1
     2   212   209    1
     3   212   213    1
     4   231   230    2
     5   211   210    2
     6   209   210    1
     7   215   213   am
     8   213   214    2
     9   210   216   am
    10   230   229    1
    11   228   229    1
    12   216   217    1
    13   218   219    2
    14   218   217    1
    15   229   232    1
    16   232   233    1
    17   217   220    1
    18   235   233   ar
    19   235   237   ar
    20   233   234   ar
    21    96    97    2
    22    96    95    1
    23   220   221    1
    24    15    16    1
    25   222   221   ar
    26   222   224   ar
    27   237   238   ar
    28   221   223   ar
    29   234   236   ar
    30     1     2    1
    31    95    98    1
    32    95    94    1
    33   224   226   ar
    34    16    17    1
    35    16    19    1
    36   223   225   ar
    37    31    29    1
    38   101   100    1
    39   226   225   ar
    40   226   227    1
    41    98    99    1
    42    17    18    2
    43    20    19    1
    44    29    30    1
    45    29    28    2
    46   238   236   ar
    47   238   239    1
    48     3     2    1
    49     3     4    2
    50    28    27    1
    51     2     5    1
    52    99   100    1
    53    27    26    1
    54    21    22    1
    55    26    25    1
    56     5     6    1
    57   111   109   ar
    58   111   112   ar
    59    25    22    1
    60    68    66    1
    61    22    23    1
    62   109   107   ar
    63   187   185   ar
    64   187   188   ar
    65   112   110   ar
    66     6     7   ar
    67     6     8   ar
    68   185   184   ar
    69     7     9   ar
    70   188   190   ar
    71   188   186   ar
    72   190   192   ar
    73    32    23   am
    74    32    33    1
    75    23    24    2
    76   184   186   ar
    77   184   183    1
    78    66    65    1
    79    66    67    1
    80   107   106    1
    81   107   108   ar
    82   186   189   ar
    83    65    62    1
    84   192   191   ar
    85   110   108   ar
    86     8    11   ar
    87     8    10   ar
    88   183   180    1
    89   179   180    1
    90   106   103    1
    91    92    90    1
    92    36    33    1
    93    36    37    1
    94    64    63    2
    95    11    13   ar
    96   189   191   ar
    97    35    34    2
    98     9    10   ar
    99    33    34    1
   100   102   103    1
   101    89    88    2
   102   180   181    1
   103    63    62    1
   104    10    12   ar
   105    88    87    1
   106    62    61    1
   107   103   104    1
   108    34    38   am
   109    90    87    1
   110    90    91    1
   111    82    84   ar
   112    82    81   ar
   113    13    14   ar
   114   181   182    2
   115    77    76    1
   116    77    80    1
   117    77    78    1
   118    84    85   ar
   119    79    78    2
   120    52    53    2
   121    52    51    1
   122    87    86    1
   123    91    93    1
   124    80    81    1
   125    12    14   ar
   126    38    39    1
   127   104   105    2
   128   104   113   am
   129    81    83   ar
   130    50    51    1
   131    51    54    1
   132    85    83   ar
   133    39    40    1
   134    39    42    1
   135    48    49    2
   136    48    47    1
   137   113   114    1
   138   193   194    1
   139   199   197    1
   140    46    40   am
   141    46    47    1
   142    40    41    2
   143   198   200    1
   144   198   197    1
   145    72    71    2
   146    42    43    1
   147    42    44    1
   148    71    70    1
   149   197   194    1
   150   116   115    2
   151    54    55    1
   152   114   115    1
   153   114   117    1
   154   194   195    1
   155    73    70    1
   156    73    74    1
   157   115   121   am
   158    43    45    1
   159   119   118    2
   160   196   195    2
   161    70    69    1
   162    55    56   ar
   163    55    57   ar
   164   166   164    1
   165   117   118    1
   166   121   122    1
   167   118   120   am
   168    56    58   ar
   169    74    75    1
   170    57    59   ar
   171   122   123    1
   172    69    75    1
   173   164   165    1
   174   164   163    2
   175    58    60   ar
   176   154   153   ar
   177    59    60   ar
   178   177   176    2
   179   163   162    1
   180   123   124    2
   181   123   125   am
   182   153   155   ar
   183   153   152    1
   184   176   175    1
   185   146   145    1
   186   125   126    1
   187   201   207    1
   188   201   202    1
   189   152   151    1
   190   128   127    2
   191   207   206    1
   192   162   161    1
   193   138   136   ar
   194   138   137   ar
   195   202   205    1
   196   202   203    1
   197   145   144    1
   198   178   175    1
   199   136   134   ar
   200   137   135   ar
   201   205   206    1
   202   175   174    1
   203   161   160    1
   204   135   132   ar
   205   134   132   ar
   206   134   133   ar
   207   160   157    1
   208   151   148    1
   209   127   126    1
   210   126   129    1
   211   132   130   ar
   212   143   144    1
   213   143   140    1
   214   133   131   ar
   215   203   204    2
   216   130   131   ar
   217   130   129    1
   218   139   140    1
   219   148   147    1
   220   148   149    1
   221   172   171    1
   222   157   158    1
   223   157   156    1
   224   140   141    1
   225   150   149    2
   226   158   159    2
   227   142   141    2
   228   173   171    1
   229   171   168    1
   230   170   169    2
   231   168   167    1
   232   168   169    1
