@<TRIPOS>MOLECULE
tmp/4d3kB01.pdb
 183 180 0 0 0
SMALL
GASTEIGER

@<TRIPOS>ATOM
      1  N         13.1420   13.1720  -11.7300 N.3    65  CYS65      -0.1235
      2  CA        12.8130   14.0060  -10.5740 C.3    65  CYS65       0.1677
      3  C         11.4560   13.6830   -9.9420 C.2    65  CYS65       0.2270
      4  O         10.4160   13.7660  -10.5970 O.2    65  CYS65      -0.2867
      5  CB        12.8470   15.4810  -10.9710 C.3    65  CYS65       0.0956
      6  SG        12.3340   16.5830   -9.6430 S.3    65  CYS65      -0.0801
      7  N         29.9710   21.0610   -9.5810 N.3   127  HIS127     -0.1226
      8  CA        28.8230   20.1730   -9.7670 C.3   127  HIS127      0.1752
      9  C         27.6060   20.7550   -9.0540 C.2   127  HIS127      0.2595
     10  O         26.5050   20.8080   -9.6080 O.2   127  HIS127     -0.2718
     11  CB        29.1120   18.7700   -9.2380 C.3   127  HIS127      0.0759
     12  CG        27.8880   17.9180   -9.1100 C.ar  127  HIS127      0.0818
     13  ND1       27.1020   17.5800  -10.1890 N.ar  127  HIS127     -0.2268
     14  CD2       27.3010   17.3540   -8.0260 C.ar  127  HIS127      0.1154
     15  CE1       26.0900   16.8350   -9.7790 C.ar  127  HIS127      0.1986
     16  NE2       26.1860   16.6840   -8.4730 N.ar  127  HIS127     -0.2212
     17  N         27.8190   21.1730   -7.8100 N.am  128  GLN128     -0.1979
     18  CA        26.8390   21.9540   -7.0640 C.3   128  GLN128      0.1601
     19  C         27.5340   23.2020   -6.5260 C.2   128  GLN128      0.2287
     20  O         28.7330   23.1710   -6.2630 O.2   128  GLN128     -0.2864
     21  CB        26.2210   21.1370   -5.9210 C.3   128  GLN128      0.0394
     22  CG        25.3740   19.9440   -6.3780 C.3   128  GLN128      0.0908
     23  CD        24.7980   19.1460   -5.2170 C.2   128  GLN128      0.2608
     24  OE1       24.5700   19.6800   -4.1310 O.2   128  GLN128     -0.2717
     25  NE2       24.5530   17.8600   -5.4470 N.am  128  GLN128     -0.0878
     26  N         20.7440   21.8720   -2.0740 N.3   215  PRO215     -0.2116
     27  CA        21.3680   21.2440   -3.2430 C.3   215  PRO215      0.1372
     28  C         21.1620   22.0820   -4.5030 C.2   215  PRO215      0.2244
     29  O         20.0370   22.1940   -4.9850 O.2   215  PRO215     -0.2868
     30  CB        20.6430   19.9000   -3.3480 C.3   215  PRO215      0.0268
     31  CG        19.2800   20.1560   -2.7550 C.3   215  PRO215      0.0207
     32  CD        19.4360   21.2750   -1.7450 C.3   215  PRO215      0.0892
     33  N         22.2880   22.2710   -8.2110 N.3   217  ILE217     -0.1245
     34  CA        22.9450   21.6540   -9.3650 C.3   217  ILE217      0.1561
     35  C         23.3920   22.7140  -10.3710 C.2   217  ILE217      0.2260
     36  O         22.5760   23.4970  -10.8610 O.2   217  ILE217     -0.2867
     37  CB        22.0120   20.6460  -10.0720 C.3   217  ILE217      0.0252
     38  CG1       21.6080   19.5260   -9.1100 C.3   217  ILE217      0.0019
     39  CG2       22.6800   20.0680  -11.3130 C.3   217  ILE217      0.0019
     40  CD1       22.7750   18.6730   -8.6430 C.3   217  ILE217      0.0001
     41  N         25.9190   22.1110  -13.0700 N.3   219  ASP219     -0.1225
     42  CA        26.6760   21.6090  -14.2120 C.3   219  ASP219      0.1805
     43  C         25.8190   21.0360  -15.3420 C.2   219  ASP219      0.2597
     44  O         26.3300   20.3230  -16.2040 O.2   219  ASP219     -0.2718
     45  CB        27.6800   20.5480  -13.7520 C.3   219  ASP219      0.1424
     46  CG        27.0160   19.3500  -13.0940 C.2   219  ASP219      0.3668
     47  OD1       25.7690   19.2860  -13.0530 O.co2 219  ASP219     -0.2456
     48  OD2       27.7510   18.4620  -12.6100 O.co2 219  ASP219     -0.2456
     49  N         24.5250   21.3400  -15.3440 N.am  220  MET220     -0.1979
     50  CA        23.6560   20.8380  -16.4040 C.3   220  MET220      0.1605
     51  C         23.2600   21.9520  -17.3670 C.2   220  MET220      0.2287
     52  O         23.3070   23.1320  -17.0240 O.2   220  MET220     -0.2864
     53  CB        22.4050   20.1680  -15.8220 C.3   220  MET220      0.0413
     54  CG        22.6920   18.8960  -15.0370 C.3   220  MET220      0.0598
     55  SD        21.1990   18.1130  -14.3980 S.3   220  MET220     -0.1393
     56  CE        20.5960   17.2750  -15.8650 C.3   220  MET220      0.0692
     57  N         20.3450   25.3990  -10.6960 N.3   234  PHE234     -0.1227
     58  CA        19.0010   25.2990  -10.1380 C.3   234  PHE234      0.1736
     59  C         18.9960   24.5060   -8.8370 C.2   234  PHE234      0.2595
     60  O         19.8540   23.6560   -8.6200 O.2   234  PHE234     -0.2718
     61  CB        18.0420   24.6610  -11.1520 C.3   234  PHE234      0.0547
     62  CG        18.4570   23.2840  -11.6080 C.ar  234  PHE234     -0.0202
     63  CD1       18.1620   22.1590  -10.8520 C.ar  234  PHE234     -0.0042
     64  CD2       19.1230   23.1170  -12.8140 C.ar  234  PHE234     -0.0042
     65  CE1       18.5350   20.8950  -11.2820 C.ar  234  PHE234     -0.0003
     66  CE2       19.5000   21.8570  -13.2500 C.ar  234  PHE234     -0.0003
     67  CZ        19.2070   20.7450  -12.4810 C.ar  234  PHE234     -0.0000
     68  N         18.0220   24.7840   -7.9770 N.am  235  ASN235     -0.1960
     69  CA        17.9380   24.1000   -6.6930 C.3   235  ASN235      0.1819
     70  C         16.5120   23.7740   -6.2850 C.2   235  ASN235      0.2622
     71  O         15.5680   24.4500   -6.6930 O.2   235  ASN235     -0.2715
     72  CB        18.5770   24.9520   -5.5960 C.3   235  ASN235      0.1195
     73  CG        17.6890   26.1050   -5.1720 C.2   235  ASN235      0.2630
     74  OD1       17.6880   27.1580   -5.8010 O.2   235  ASN235     -0.2716
     75  ND2       16.9090   25.9010   -4.1140 N.am  235  ASN235     -0.0877
     76  N         16.3710   22.7390   -5.4640 N.am  236  GLY236     -0.1940
     77  CA        15.1500   22.5180   -4.7160 C.3   236  GLY236      0.2014
     78  C         15.5250   22.3900   -3.2510 C.2   236  GLY236      0.2639
     79  O         16.5450   22.9340   -2.8220 O.2   236  GLY236     -0.2714
     80  N         14.7120   21.6660   -2.4900 N.am  237  TRP237     -0.1959
     81  CA        15.1060   21.1930   -1.1670 C.3   237  TRP237      0.1771
     82  C         15.4320   19.7050   -1.2410 C.2   237  TRP237      0.2620
     83  O         15.0250   19.0220   -2.1810 O.2   237  TRP237     -0.2715
     84  CB        14.0080   21.4560   -0.1320 C.3   237  TRP237      0.0590
     85  CG        12.6540   20.9890   -0.5610 C.ar  237  TRP237      0.0006
     86  CD1       12.1740   19.7140   -0.5180 C.ar  237  TRP237      0.0946
     87  CD2       11.5940   21.8000   -1.0810 C.ar  237  TRP237      0.0152
     88  NE1       10.8830   19.6780   -0.9910 N.ar  237  TRP237     -0.2442
     89  CE2       10.5050   20.9470   -1.3430 C.ar  237  TRP237      0.0810
     90  CE3       11.4620   23.1650   -1.3560 C.ar  237  TRP237      0.0012
     91  CZ2        9.2990   21.4140   -1.8650 C.ar  237  TRP237      0.0191
     92  CZ3       10.2650   23.6260   -1.8750 C.ar  237  TRP237      0.0001
     93  CH2        9.2010   22.7540   -2.1240 C.ar  237  TRP237      0.0015
     94  N         16.1780   19.2070   -0.2610 N.am  238  TYR238     -0.1960
     95  CA        16.5410   17.7950   -0.2290 C.3   238  TYR238      0.1771
     96  C         15.3720   16.8660    0.0780 C.2   238  TYR238      0.2619
     97  O         14.4470   17.2290    0.8020 O.2   238  TYR238     -0.2715
     98  CB        17.6380   17.5550    0.8090 C.3   238  TYR238      0.0574
     99  CG        19.0500   17.6440    0.2750 C.ar  238  TYR238     -0.0198
    100  CD1       19.5060   16.7440   -0.6790 C.ar  238  TYR238     -0.0009
    101  CD2       19.9330   18.6030    0.7490 C.ar  238  TYR238     -0.0009
    102  CE1       20.7970   16.8100   -1.1610 C.ar  238  TYR238      0.0417
    103  CE2       21.2280   18.6770    0.2750 C.ar  238  TYR238      0.0417
    104  CZ        21.6530   17.7780   -0.6780 C.ar  238  TYR238      0.1957
    105  OH        22.9390   17.8470   -1.1540 O.3   238  TYR238     -0.2866
    106  N         15.4230   15.6670   -0.4930 N.am  239  MET239     -0.1977
    107  CA        14.6820   14.5360    0.0420 C.3   239  MET239      0.1605
    108  C         15.6430   13.8510    1.0030 C.2   239  MET239      0.2287
    109  O         16.8180   13.6820    0.6750 O.2   239  MET239     -0.2864
    110  CB        14.2100   13.5860   -1.0650 C.3   239  MET239      0.0413
    111  CG        13.3060   12.4510   -0.5740 C.3   239  MET239      0.0598
    112  SD        12.4750   11.5560   -1.9090 S.3   239  MET239     -0.1393
    113  CE        13.8520   10.6840   -2.6550 C.3   239  MET239      0.0692
    114  N         18.4520   11.2490    0.1310 N.3   242  GLU242     -0.1245
    115  CA        19.6200   11.6960   -0.6230 C.3   242  GLU242      0.1567
    116  C         20.8320   11.8830    0.2820 C.2   242  GLU242      0.2260
    117  O         21.9620   11.5830   -0.1000 O.2   242  GLU242     -0.2867
    118  CB        19.3260   12.9990   -1.3590 C.3   242  GLU242      0.0388
    119  CG        18.1910   12.9080   -2.3530 C.3   242  GLU242      0.1160
    120  CD        17.9700   14.2150   -3.0680 C.2   242  GLU242      0.3649
    121  OE1       18.7140   14.4710   -4.0330 O.co2 242  GLU242     -0.2457
    122  OE2       17.0600   14.9800   -2.6800 O.co2 242  GLU242     -0.2457
    123  N         22.4760    7.9400    0.7470 N.3   246  ARG246     -0.1245
    124  CA        23.4630    8.0150   -0.3260 C.3   246  ARG246      0.1563
    125  C         24.7200    8.7860    0.0850 C.2   246  ARG246      0.2260
    126  O         25.7930    8.2030    0.1990 O.2   246  ARG246     -0.2867
    127  CB        22.8490    8.6540   -1.5740 C.3   246  ARG246      0.0307
    128  CG        21.6080    7.9400   -2.1020 C.3   246  ARG246      0.0489
    129  CD        21.8790    6.4630   -2.3890 C.3   246  ARG246      0.2205
    130  NE        23.0800    6.2700   -3.1930 N.pl3 246  ARG246     -0.0865
    131  CZ        23.1330    6.4290   -4.5100 C.cat 246  ARG246      0.5346
    132  NH1       22.0470    6.7710   -5.1910 N.pl3 246  ARG246      0.1354
    133  NH2       24.2750    6.2370   -5.1470 N.pl3 246  ARG246      0.1354
    134  N         14.0740    3.9360  -12.3490 N.3   327  THR327     -0.1203
    135  CA        15.2800    3.6240  -11.5840 C.3   327  THR327      0.1994
    136  C         15.7720    4.7900  -10.7200 C.2   327  THR327      0.2617
    137  O         16.4910    4.5800   -9.7440 O.2   327  THR327     -0.2717
    138  CB        16.4270    3.1800  -12.5100 C.3   327  THR327      0.1784
    139  OG1       16.9050    4.3040  -13.2570 O.3   327  THR327     -0.2211
    140  CG2       15.9410    2.1100  -13.4780 C.3   327  THR327      0.0376
    141  N         15.3880    6.0110  -11.0830 N.am  328  TRP328     -0.1975
    142  CA        15.7290    7.1870  -10.2840 C.3   328  TRP328      0.1640
    143  C         14.5740    7.6610   -9.4040 C.2   328  TRP328      0.2290
    144  O         14.7980    8.2800   -8.3680 O.2   328  TRP328     -0.2864
    145  CB        16.1730    8.3390  -11.1880 C.3   328  TRP328      0.0576
    146  CG        17.5700    8.2290  -11.7030 C.ar  328  TRP328      0.0006
    147  CD1       18.1040    7.2050  -12.4290 C.ar  328  TRP328      0.0946
    148  CD2       18.6120    9.2010  -11.5520 C.ar  328  TRP328      0.0152
    149  NE1       19.4180    7.4750  -12.7290 N.ar  328  TRP328     -0.2442
    150  CE2       19.7530    8.6950  -12.2040 C.ar  328  TRP328      0.0810
    151  CE3       18.6900   10.4500  -10.9270 C.ar  328  TRP328      0.0012
    152  CZ2       20.9600    9.3950  -12.2480 C.ar  328  TRP328      0.0191
    153  CZ3       19.8840   11.1420  -10.9740 C.ar  328  TRP328      0.0001
    154  CH2       21.0020   10.6160  -11.6350 C.ar  328  TRP328      0.0015
    155  N         12.2620    5.7690   -7.7750 N.3   330  ILE330     -0.1245
    156  CA        12.1320    4.9820   -6.5520 C.3   330  ILE330      0.1561
    157  C         13.1890    5.4250   -5.5400 C.2   330  ILE330      0.2260
    158  O         14.3520    5.6140   -5.8900 O.2   330  ILE330     -0.2867
    159  CB        12.2540    3.4560   -6.8120 C.3   330  ILE330      0.0252
    160  CG1       13.5900    3.1110   -7.4730 C.3   330  ILE330      0.0019
    161  CG2       11.0960    2.9660   -7.6710 C.3   330  ILE330      0.0019
    162  CD1       14.0320    1.6730   -7.2450 C.3   330  ILE330      0.0001
    163  N         22.9260   16.5630  -19.3100 N.3   356  TYR356     -0.1241
    164  CA        24.3260   16.4490  -18.9370 C.3   356  TYR356      0.1605
    165  C         25.1730   17.1390  -19.9870 C.2   356  TYR356      0.2264
    166  O         24.7760   17.2400  -21.1490 O.2   356  TYR356     -0.2867
    167  CB        24.7620   14.9860  -18.8100 C.3   356  TYR356      0.0534
    168  CG        24.1970   14.2430  -17.6220 C.ar  356  TYR356     -0.0201
    169  CD1       23.8480   14.9120  -16.4560 C.ar  356  TYR356     -0.0009
    170  CD2       24.0420   12.8640  -17.6570 C.ar  356  TYR356     -0.0009
    171  CE1       23.3420   14.2300  -15.3680 C.ar  356  TYR356      0.0417
    172  CE2       23.5390   12.1740  -16.5740 C.ar  356  TYR356      0.0417
    173  CZ        23.1900   12.8620  -15.4340 C.ar  356  TYR356      0.1957
    174  OH        22.6890   12.1790  -14.3530 O.3   356  TYR356     -0.2866
    175  N         32.4000   17.5870  -18.5780 N.3   359  LYS359     -0.1245
    176  CA        33.1480   18.3300  -17.5680 C.3   359  LYS359      0.1561
    177  C         34.3890   18.9590  -18.1940 C.2   359  LYS359      0.2260
    178  O         35.0860   18.3180  -18.9810 O.2   359  LYS359     -0.2867
    179  CB        33.5460   17.4260  -16.3970 C.3   359  LYS359      0.0271
    180  CG        32.3880   16.8880  -15.5610 C.3   359  LYS359      0.0035
    181  CD        32.9140   15.9950  -14.4400 C.3   359  LYS359      0.0206
    182  CE        31.8380   15.6590  -13.4130 C.3   359  LYS359      0.1093
    183  NZ        30.6590   14.9690  -14.0030 N.3   359  LYS359     -0.1314
@<TRIPOS>BOND
     1   166   165    2
     2   165   164    1
     3   163   164    1
     4   178   177    2
     5   164   167    1
     6   167   168    1
     7   175   176    1
     8   177   176    1
     9   170   168   ar
    10   170   172   ar
    11   168   169   ar
    12   176   179    1
    13    51    52    2
    14    51    50    1
    15   172   173   ar
    16   169   171   ar
    17    50    53    1
    18    50    49    1
    19   179   180    1
    20    44    43    2
    21    56    55    1
    22    53    54    1
    23   180   181    1
    24   173   171   ar
    25   173   174    1
    26    49    43   am
    27    43    42    1
    28    54    55    1
    29   181   182    1
    30    42    45    1
    31    42    41    1
    32   183   182    1
    33    45    46    1
    34   140   138    1
    35   139   138    1
    36    66    64   ar
    37    66    67   ar
    38    46    47   ar
    39    46    48   ar
    40    64    62   ar
    41   149   147   ar
    42   149   150   ar
    43   138   135    1
    44    67    65   ar
    45   147   146   ar
    46   134   135    1
    47   152   150   ar
    48   152   154   ar
    49   150   148   ar
    50     1     2    1
    51   146   148   ar
    52   146   145    1
    53   154   153   ar
    54    62    61    1
    55    62    63   ar
    56   135   136    1
    57   148   151   ar
    58    39    37    1
    59    65    63   ar
    60   145   142    1
    61    61    58    1
    62   141   136   am
    63   141   142    1
    64   153   151   ar
    65     5     2    1
    66     5     6    1
    67    36    35    2
    68   136   137    2
    69    57    58    1
    70     4     3    2
    71     2     3    1
    72    35    34    1
    73   142   143    1
    74    13    15   ar
    75    13    12   ar
    76    58    59    1
    77    37    34    1
    78    37    38    1
    79    15    16   ar
    80     8     7    1
    81     8    11    1
    82     8     9    1
    83    10     9    2
    84   143   144    2
    85    34    33    1
    86    11    12    1
    87    12    14   ar
    88    38    40    1
    89     9    17   am
    90    59    60    2
    91    59    68   am
    92    16    14   ar
    93    68    69    1
    94    17    18    1
    95   155   156    1
    96   161   159    1
    97   160   162    1
    98   160   159    1
    99    18    19    1
   100    18    21    1
   101   159   156    1
   102    69    70    1
   103    69    72    1
   104    71    70    2
   105   156   157    1
   106    19    20    2
   107    22    21    1
   108    22    23    1
   109    70    76   am
   110   158   157    2
   111    74    73    2
   112    72    73    1
   113    76    77    1
   114    25    23   am
   115    23    24    2
   116   132   131    1
   117    73    75   am
   118   133   131    1
   119    29    28    2
   120    77    78    1
   121   131   130    2
   122    28    27    1
   123   121   120   ar
   124    30    27    1
   125    30    31    1
   126    78    79    2
   127    78    80   am
   128    27    26    1
   129   130   129    1
   130   120   122   ar
   131   120   119    1
   132    31    32    1
   133   113   112    1
   134    80    81    1
   135   129   128    1
   136   119   118    1
   137    83    82    2
   138    93    92   ar
   139    93    91   ar
   140   128   127    1
   141    26    32    1
   142   112   111    1
   143    92    90   ar
   144    91    89   ar
   145   127   124    1
   146   118   115    1
   147    90    87   ar
   148    89    87   ar
   149    89    88   ar
   150    82    81    1
   151    82    94   am
   152    81    84    1
   153   102   100   ar
   154   102   104   ar
   155   105   104    1
   156    87    85   ar
   157   110   111    1
   158   110   107    1
   159    88    86   ar
   160   100    99   ar
   161   104   103   ar
   162   115   114    1
   163   115   116    1
   164    85    86   ar
   165    85    84    1
   166   106   107    1
   167   106    96   am
   168   124   125    1
   169   124   123    1
   170    94    95    1
   171    95    96    1
   172    95    98    1
   173   117   116    2
   174   107   108    1
   175    96    97    2
   176   125   126    2
   177   103   101   ar
   178    99   101   ar
   179    99    98    1
   180   109   108    2
