@<TRIPOS>MOLECULE
tmp/4d3lC00.pdb
 97 96 0 0 0
SMALL
GASTEIGER

@<TRIPOS>ATOM
      1  N         20.7870    0.7760  -34.8960 N.3    61  SER61      -0.1202
      2  CA        20.3290    2.1240  -34.5970 C.3    61  SER61       0.2020
      3  C         19.0640    2.4130  -35.3810 C.2    61  SER61       0.2619
      4  O         18.8910    1.9420  -36.5030 O.2    61  SER61      -0.2717
      5  CB        21.3880    3.1660  -35.0010 C.3    61  SER61       0.2103
      6  OG        22.6440    2.8940  -34.4060 O.3    61  SER61      -0.2182
      7  N         18.2010    3.2340  -34.8060 N.am   62  THR62      -0.1938
      8  CA        16.9950    3.6800  -35.4610 C.3    62  THR62       0.2028
      9  C         16.7800    5.1530  -35.1580 C.2    62  THR62       0.2642
     10  O         17.4470    5.7120  -34.3020 O.2    62  THR62      -0.2714
     11  CB        15.7350    2.9230  -34.9540 C.3    62  THR62       0.1808
     12  OG1       15.4100    3.3610  -33.6190 O.3    62  THR62      -0.2208
     13  CG2       15.9650    1.4170  -34.9830 C.3    62  THR62       0.0379
     14  N         15.8080    5.7500  -35.8430 N.am   63  THR63      -0.1950
     15  CA        15.4030    7.1360  -35.6110 C.3    63  THR63       0.1897
     16  C         14.3060    7.2970  -34.5550 C.2    63  THR63       0.2313
     17  O         13.8260    8.4040  -34.3360 O.2    63  THR63      -0.2863
     18  CB        14.8620    7.7450  -36.9220 C.3    63  THR63       0.1794
     19  OG1       13.8180    6.9060  -37.4330 O.3    63  THR63      -0.2208
     20  CG2       15.9560    7.8430  -37.9610 C.3    63  THR63       0.0378
     21  N         14.6120    4.4260  -27.6370 N.3    68  GLY68      -0.1210
     22  CA        16.0340    4.5850  -27.3770 C.3    68  GLY68       0.1956
     23  C         16.9410    4.4880  -28.6010 C.2    68  GLY68       0.2612
     24  O         18.1310    4.1660  -28.4620 O.2    68  GLY68      -0.2717
     25  N         16.3730    4.7560  -29.7790 N.am   69  TYR69      -0.1962
     26  CA        17.0990    4.7540  -31.0340 C.3    69  TYR69       0.1771
     27  C         17.7450    3.3990  -31.2890 C.2    69  TYR69       0.2619
     28  O         18.8190    3.3200  -31.8950 O.2    69  TYR69      -0.2715
     29  CB        18.1600    5.8520  -31.0600 C.3    69  TYR69       0.0574
     30  CG        17.6870    7.2590  -30.8310 C.ar   69  TYR69      -0.0198
     31  CD1       17.0390    7.9680  -31.8400 C.ar   69  TYR69      -0.0009
     32  CD2       17.9670    7.9190  -29.6340 C.ar   69  TYR69      -0.0009
     33  CE1       16.6480    9.2910  -31.6510 C.ar   69  TYR69       0.0417
     34  CE2       17.5700    9.2420  -29.4220 C.ar   69  TYR69       0.0417
     35  CZ        16.9210    9.9280  -30.4360 C.ar   69  TYR69       0.1957
     36  OH        16.5340   11.2370  -30.2180 O.3    69  TYR69      -0.2866
     37  N         17.0480    2.3330  -30.8920 N.am   70  TRP70      -0.1974
     38  CA        17.5930    0.9740  -30.9410 C.3    70  TRP70       0.1640
     39  C         16.4880   -0.0370  -31.1740 C.2    70  TRP70       0.2290
     40  O         15.4190    0.0470  -30.5790 O.2    70  TRP70      -0.2864
     41  CB        18.2830    0.6780  -29.6260 C.3    70  TRP70       0.0576
     42  CG        18.8000   -0.7120  -29.3990 C.ar   70  TRP70       0.0006
     43  CD1       18.3290   -1.6320  -28.4860 C.ar   70  TRP70       0.0946
     44  CD2       19.9520   -1.3020  -30.0000 C.ar   70  TRP70       0.0152
     45  NE1       19.1070   -2.7720  -28.5230 N.ar   70  TRP70      -0.2442
     46  CE2       20.1110   -2.5890  -29.4350 C.ar   70  TRP70       0.0810
     47  CE3       20.8640   -0.8730  -30.9770 C.ar   70  TRP70       0.0012
     48  CZ2       21.1310   -3.4460  -29.8190 C.ar   70  TRP70       0.0191
     49  CZ3       21.8930   -1.7340  -31.3440 C.ar   70  TRP70       0.0001
     50  CH2       22.0100   -3.0020  -30.7740 C.ar   70  TRP70       0.0015
     51  N         18.5820    3.9610  -38.7950 N.3    99  GLN99      -0.1245
     52  CA        19.3100    5.1980  -38.8810 C.3    99  GLN99       0.1566
     53  C         20.7000    4.8940  -39.4020 C.2    99  GLN99       0.2260
     54  O         21.5560    4.4210  -38.6480 O.2    99  GLN99      -0.2867
     55  CB        19.4330    5.8170  -37.5030 C.3    99  GLN99       0.0367
     56  CG        20.2940    7.0550  -37.4780 C.3    99  GLN99       0.0905
     57  CD        19.7820    8.1380  -38.4150 C.2    99  GLN99       0.2608
     58  OE1       19.8670    8.0340  -39.6580 O.2    99  GLN99      -0.2717
     59  NE2       19.2630    9.1930  -37.8290 N.am   99  GLN99      -0.0878
     60  N         24.4610    9.8630  -39.1240 N.3   102  TYR102     -0.1227
     61  CA        24.6930   10.4780  -37.8050 C.3   102  TYR102      0.1736
     62  C         25.0920    9.4890  -36.6780 C.2   102  TYR102      0.2596
     63  O         24.6000    9.5820  -35.5400 O.2   102  TYR102     -0.2718
     64  CB        23.4620   11.2820  -37.3730 C.3   102  TYR102      0.0548
     65  CG        22.9270   12.1940  -38.4610 C.ar  102  TYR102     -0.0200
     66  CD1       23.7020   13.2200  -38.9770 C.ar  102  TYR102     -0.0009
     67  CD2       21.6220   12.0240  -38.9740 C.ar  102  TYR102     -0.0009
     68  CE1       23.2090   14.0470  -39.9740 C.ar  102  TYR102      0.0417
     69  CE2       21.1260   12.8320  -39.9890 C.ar  102  TYR102      0.0417
     70  CZ        21.9210   13.8550  -40.4870 C.ar  102  TYR102      0.1957
     71  OH        21.4260   14.6890  -41.4870 O.3   102  TYR102     -0.2866
     72  N         26.0080    8.5790  -36.9910 N.am  103  GLY103     -0.1942
     73  CA        26.5560    7.6460  -35.9920 C.3   103  GLY103      0.2014
     74  C         25.8500    6.3010  -35.8790 C.2   103  GLY103      0.2639
     75  O         26.1810    5.4800  -35.0150 O.2   103  GLY103     -0.2714
     76  N         24.8790    6.0600  -36.7480 N.am  104  GLY104     -0.1939
     77  CA        24.1800    4.7800  -36.7460 C.3   104  GLY104      0.2014
     78  C         25.0280    3.5440  -37.0530 C.2   104  GLY104      0.2638
     79  O         25.9270    3.5860  -37.8790 O.2   104  GLY104     -0.2714
     80  N         24.7050    2.4350  -36.3790 N.am  105  GLU105     -0.1977
     81  CA        25.4630    1.1870  -36.4320 C.3   105  GLU105      0.1602
     82  C         24.5590   -0.0190  -36.5560 C.2   105  GLU105      0.2287
     83  O         23.4090    0.0040  -36.1060 O.2   105  GLU105     -0.2864
     84  CB        26.2440    0.9740  -35.1390 C.3   105  GLU105      0.0415
     85  CG        27.4820    1.8330  -34.9700 C.3   105  GLU105      0.1163
     86  CD        28.2490    1.4010  -33.7220 C.2   105  GLU105      0.3649
     87  OE1       27.7480    1.7150  -32.6170 O.co2 105  GLU105     -0.2457
     88  OE2       29.3040    0.7090  -33.8410 O.co2 105  GLU105     -0.2457
     89  N         24.8060   -4.0530  -35.3940 N.3   107  LYS107     -0.1245
     90  CA        25.5380   -4.8260  -34.4050 C.3   107  LYS107      0.1561
     91  C         25.2060   -6.3040  -34.5120 C.2   107  LYS107      0.2260
     92  O         24.0350   -6.6690  -34.5720 O.2   107  LYS107     -0.2867
     93  CB        25.2380   -4.3160  -32.9970 C.3   107  LYS107      0.0271
     94  CG        25.6570   -2.8620  -32.7570 C.3   107  LYS107      0.0035
     95  CD        25.8700   -2.6040  -31.2660 C.3   107  LYS107      0.0206
     96  CE        26.2800   -1.1580  -30.9900 C.3   107  LYS107      0.1093
     97  NZ        26.9260   -1.0120  -29.6540 N.3   107  LYS107     -0.1314
@<TRIPOS>BOND
     1    71    70    1
     2    70    69   ar
     3    70    68   ar
     4    69    67   ar
     5    68    66   ar
     6    58    57    2
     7    53    52    1
     8    53    54    2
     9    60    61    1
    10    66    65   ar
    11    67    65   ar
    12    52    51    1
    13    52    55    1
    14    65    64    1
    15    57    59   am
    16    57    56    1
    17    20    18    1
    18    79    78    2
    19    61    64    1
    20    61    62    1
    21    55    56    1
    22    19    18    1
    23    78    77    1
    24    78    80   am
    25    72    62   am
    26    72    73    1
    27    18    15    1
    28    76    77    1
    29    76    74   am
    30    62    63    2
    31    82    81    1
    32    82    83    2
    33     4     3    2
    34    81    80    1
    35    81    84    1
    36    73    74    1
    37    74    75    2
    38    14    15    1
    39    14     9   am
    40    15    16    1
    41     8     9    1
    42     8    11    1
    43     8     7    1
    44    89    90    1
    45     3     7   am
    46     3     2    1
    47     9    10    2
    48    84    85    1
    49     5     2    1
    50     5     6    1
    51    13    11    1
    52    85    86    1
    53    11    12    1
    54     1     2    1
    55    92    91    2
    56    16    17    2
    57    91    90    1
    58    90    93    1
    59    88    86   ar
    60    86    87   ar
    61    93    94    1
    62    94    95    1
    63    28    27    2
    64    31    33   ar
    65    31    30   ar
    66    33    35   ar
    67    49    47   ar
    68    49    50   ar
    69    27    26    1
    70    27    37   am
    71    95    96    1
    72    39    38    1
    73    39    40    2
    74    29    26    1
    75    29    30    1
    76    26    25    1
    77    96    97    1
    78    47    44   ar
    79    38    37    1
    80    38    41    1
    81    30    32   ar
    82    50    48   ar
    83    35    36    1
    84    35    34   ar
    85    44    46   ar
    86    44    42   ar
    87    48    46   ar
    88    25    23   am
    89    32    34   ar
    90    41    42    1
    91    46    45   ar
    92    42    43   ar
    93    23    24    2
    94    23    22    1
    95    45    43   ar
    96    21    22    1
