@<TRIPOS>MOLECULE
tmp/4d3nA01.pdb
 158 157 0 0 0
SMALL
GASTEIGER

@<TRIPOS>ATOM
      1  N         -1.5930   12.9330   19.2960 N.3    65  CYS65      -0.1235
      2  CA        -1.9650   13.7840   20.4240 C.3    65  CYS65       0.1677
      3  C         -3.2990   13.4230   21.0560 C.2    65  CYS65       0.2270
      4  O         -4.3510   13.4820   20.4030 O.2    65  CYS65      -0.2867
      5  CB        -1.9920   15.2500   20.0140 C.3    65  CYS65       0.0956
      6  SG        -2.3170   16.2850   21.4560 S.3    65  CYS65      -0.0801
      7  N         15.0020   20.7100   21.9170 N.3   127  HIS127     -0.1226
      8  CA        13.8860   19.8060   21.6520 C.3   127  HIS127      0.1752
      9  C         12.6520   20.3830   22.3430 C.2   127  HIS127      0.2595
     10  O         11.5610   20.3900   21.7820 O.2   127  HIS127     -0.2718
     11  CB        14.1770   18.3940   22.1580 C.3   127  HIS127      0.0759
     12  CG        12.9510   17.5320   22.2690 C.ar  127  HIS127      0.0818
     13  ND1       12.2450   17.0990   21.1680 N.ar  127  HIS127     -0.2268
     14  CD2       12.3080   17.0340   23.3550 C.ar  127  HIS127      0.1154
     15  CE1       11.2130   16.3730   21.5710 C.ar  127  HIS127      0.1986
     16  NE2       11.2240   16.3240   22.8890 N.ar  127  HIS127     -0.2212
     17  N         12.8400   20.8700   23.5640 N.am  128  GLN128     -0.1979
     18  CA        11.8060   21.6310   24.2650 C.3   128  GLN128      0.1601
     19  C         12.4630   22.8740   24.7920 C.2   128  GLN128      0.2287
     20  O         13.6530   22.8500   25.0860 O.2   128  GLN128     -0.2864
     21  CB        11.2010   20.8180   25.4120 C.3   128  GLN128      0.0394
     22  CG        10.5110   19.5420   24.9200 C.3   128  GLN128      0.0908
     23  CD         9.8040   18.7960   26.0270 C.2   128  GLN128      0.2608
     24  OE1        9.4620   19.3710   27.0640 O.2   128  GLN128     -0.2717
     25  NE2        9.5720   17.5090   25.8120 N.am  128  GLN128     -0.0878
     26  N          5.7240   21.4440   29.0420 N.3   215  PRO215     -0.2116
     27  CA         6.3960   20.8170   27.9030 C.3   215  PRO215      0.1372
     28  C          6.2100   21.6880   26.6740 C.2   215  PRO215      0.2244
     29  O          5.0840   21.8710   26.2150 O.2   215  PRO215     -0.2868
     30  CB         5.6270   19.5060   27.7280 C.3   215  PRO215      0.0268
     31  CG         4.2410   19.8150   28.2220 C.3   215  PRO215      0.0207
     32  CD         4.3800   20.8810   29.2830 C.3   215  PRO215      0.0892
     33  N          7.3370   21.9090   22.9990 N.3   217  ILE217     -0.1245
     34  CA         8.0300   21.2810   21.8790 C.3   217  ILE217      0.1561
     35  C          8.5110   22.3600   20.9340 C.2   217  ILE217      0.2260
     36  O          7.7250   23.1830   20.4620 O.2   217  ILE217     -0.2867
     37  CB         7.1110   20.2970   21.1580 C.3   217  ILE217      0.0252
     38  CG1        6.6930   19.2060   22.1400 C.3   217  ILE217      0.0019
     39  CG2        7.8240   19.6550   19.9620 C.3   217  ILE217      0.0019
     40  CD1        7.8550   18.3280   22.5780 C.3   217  ILE217      0.0001
     41  N          9.7530   20.9230   16.1330 N.3   220  MET220     -0.1245
     42  CA         8.9580   20.3990   15.0310 C.3   220  MET220      0.1570
     43  C          8.6490   21.4820   14.0290 C.2   220  MET220      0.2261
     44  O          8.7240   22.6770   14.3290 O.2   220  MET220     -0.2867
     45  CB         7.6650   19.7620   15.5320 C.3   220  MET220      0.0387
     46  CG         7.9410   18.5070   16.3490 C.3   220  MET220      0.0595
     47  SD         6.4230   17.7080   16.8740 S.3   220  MET220     -0.1393
     48  CE         6.0540   16.7760   15.3730 C.3   220  MET220      0.0692
     49  N          5.4940   24.9570   20.4560 N.3   234  PHE234     -0.1227
     50  CA         4.1570   24.9250   21.0170 C.3   234  PHE234      0.1736
     51  C          4.1740   24.1400   22.3200 C.2   234  PHE234      0.2595
     52  O          5.0770   23.3290   22.5440 O.2   234  PHE234     -0.2718
     53  CB         3.1880   24.2990   20.0150 C.3   234  PHE234      0.0547
     54  CG         3.5960   22.9210   19.5560 C.ar  234  PHE234     -0.0202
     55  CD1        3.2810   21.8080   20.3140 C.ar  234  PHE234     -0.0042
     56  CD2        4.2730   22.7440   18.3550 C.ar  234  PHE234     -0.0042
     57  CE1        3.6480   20.5230   19.8950 C.ar  234  PHE234     -0.0003
     58  CE2        4.6410   21.4830   17.9280 C.ar  234  PHE234     -0.0003
     59  CZ         4.3270   20.3620   18.7030 C.ar  234  PHE234     -0.0000
     60  N          3.1770   24.3730   23.1700 N.am  235  ASN235     -0.1960
     61  CA         3.1140   23.6830   24.4530 C.3   235  ASN235      0.1819
     62  C          1.6840   23.3500   24.7800 C.2   235  ASN235      0.2622
     63  O          0.7670   24.0100   24.2980 O.2   235  ASN235     -0.2715
     64  CB         3.6350   24.5750   25.5770 C.3   235  ASN235      0.1195
     65  CG         2.6950   25.7310   25.8740 C.2   235  ASN235      0.2630
     66  OD1        2.7000   26.7320   25.1720 O.2   235  ASN235     -0.2716
     67  ND2        1.8720   25.5900   26.9100 N.am  235  ASN235     -0.0877
     68  N          1.5000   22.3360   25.6150 N.am  236  GLY236     -0.1940
     69  CA         0.2150   22.0900   26.2350 C.3   236  GLY236      0.2014
     70  C          0.5590   22.0510   27.6990 C.2   236  GLY236      0.2639
     71  O          1.5460   22.6770   28.1230 O.2   236  GLY236     -0.2714
     72  N         -0.2550   21.3480   28.4780 N.am  237  TRP237     -0.1959
     73  CA         0.1520   20.9350   29.8100 C.3   237  TRP237      0.1771
     74  C          0.4700   19.4580   29.7150 C.2   237  TRP237      0.2620
     75  O          0.1550   18.8030   28.7090 O.2   237  TRP237     -0.2715
     76  CB        -0.9590   21.1770   30.8230 C.3   237  TRP237      0.0590
     77  CG        -2.2680   20.6390   30.3590 C.ar  237  TRP237      0.0006
     78  CD1       -2.6780   19.3390   30.3830 C.ar  237  TRP237      0.0946
     79  CD2       -3.3240   21.3900   29.7780 C.ar  237  TRP237      0.0152
     80  NE1       -3.9460   19.2390   29.8530 N.ar  237  TRP237     -0.2442
     81  CE2       -4.3590   20.4880   29.4720 C.ar  237  TRP237      0.0810
     82  CE3       -3.4950   22.7500   29.4800 C.ar  237  TRP237      0.0012
     83  CZ2       -5.5480   20.8990   28.8780 C.ar  237  TRP237      0.0191
     84  CZ3       -4.6720   23.1530   28.9020 C.ar  237  TRP237      0.0001
     85  CH2       -5.6870   22.2320   28.6070 C.ar  237  TRP237      0.0015
     86  N          1.1100   18.9240   30.7440 N.am  238  TYR238     -0.1960
     87  CA         1.5010   17.5320   30.7130 C.3   238  TYR238      0.1771
     88  C          0.3190   16.6350   31.0470 C.2   238  TYR238      0.2619
     89  O         -0.5980   17.0210   31.7850 O.2   238  TYR238     -0.2715
     90  CB         2.5700   17.2760   31.7590 C.3   238  TYR238      0.0574
     91  CG         3.9890   17.3650   31.2670 C.ar  238  TYR238     -0.0198
     92  CD1        4.4730   16.4730   30.3300 C.ar  238  TYR238     -0.0009
     93  CD2        4.8620   18.3080   31.7870 C.ar  238  TYR238     -0.0009
     94  CE1        5.7860   16.5360   29.9040 C.ar  238  TYR238      0.0417
     95  CE2        6.1760   18.3740   31.3580 C.ar  238  TYR238      0.0417
     96  CZ         6.6250   17.4900   30.4270 C.ar  238  TYR238      0.1957
     97  OH         7.9280   17.5490   29.9930 O.3   238  TYR238     -0.2866
     98  N          0.3500   15.4340   30.4960 N.am  239  MET239     -0.1977
     99  CA        -0.4350   14.3480   31.0310 C.3   239  MET239      0.1605
    100  C          0.5280   13.6660   31.9930 C.2   239  MET239      0.2287
    101  O          1.6940   13.4830   31.6560 O.2   239  MET239     -0.2864
    102  CB        -0.8510   13.4090   29.9130 C.3   239  MET239      0.0413
    103  CG        -1.6840   12.2490   30.3820 C.3   239  MET239      0.0598
    104  SD        -2.4090   11.4080   28.9670 S.3   239  MET239     -0.1393
    105  CE        -1.0000   10.4890   28.3300 C.3   239  MET239      0.0692
    106  N          3.4020   11.1780   31.1770 N.3   242  GLU242     -0.1245
    107  CA         4.5740   11.5640   30.3910 C.3   242  GLU242      0.1567
    108  C          5.7510   11.7720   31.3280 C.2   242  GLU242      0.2260
    109  O          6.9070   11.5240   30.9690 O.2   242  GLU242     -0.2867
    110  CB         4.3050   12.8470   29.6250 C.3   242  GLU242      0.0388
    111  CG         3.1640   12.7320   28.6350 C.3   242  GLU242      0.1160
    112  CD         2.9550   14.0330   27.9080 C.2   242  GLU242      0.3649
    113  OE1        3.6780   14.2600   26.9140 O.co2 242  GLU242     -0.2457
    114  OE2        2.0740   14.8250   28.3290 O.co2 242  GLU242     -0.2457
    115  N          7.4280    7.9020   31.8300 N.3   246  ARG246     -0.1245
    116  CA         8.4610    7.9790   30.8090 C.3   246  ARG246      0.1563
    117  C          9.6910    8.7820   31.2820 C.2   246  ARG246      0.2260
    118  O         10.7540    8.2090   31.4840 O.2   246  ARG246     -0.2867
    119  CB         7.8770    8.5340   29.5020 C.3   246  ARG246      0.0307
    120  CG         6.6660    7.7400   28.9520 C.3   246  ARG246      0.0489
    121  CD         6.9780    6.2260   28.7100 C.3   246  ARG246      0.2205
    122  NE         8.2350    6.0400   27.9770 N.pl3 246  ARG246     -0.0865
    123  CZ         8.3940    6.2950   26.6760 C.cat 246  ARG246      0.5346
    124  NH1        7.3760    6.7450   25.9420 N.pl3 246  ARG246      0.1354
    125  NH2        9.5790    6.1130   26.1040 N.pl3 246  ARG246      0.1354
    126  N         -0.7230    3.7960   18.7030 N.3   327  THR327     -0.1203
    127  CA         0.4760    3.4810   19.4800 C.3   327  THR327      0.1994
    128  C          0.9570    4.6260   20.3620 C.2   327  THR327      0.2617
    129  O          1.6860    4.4000   21.3400 O.2   327  THR327     -0.2717
    130  CB         1.6390    2.9850   18.5870 C.3   327  THR327      0.1784
    131  OG1        2.1850    4.0820   17.8540 O.3   327  THR327     -0.2211
    132  CG2        1.1730    1.8990   17.6090 C.3   327  THR327      0.0376
    133  N          0.5480    5.8530   20.0420 N.am  328  TRP328     -0.1975
    134  CA         0.8920    6.9850   20.8960 C.3   328  TRP328      0.1640
    135  C         -0.2770    7.4530   21.7320 C.2   328  TRP328      0.2290
    136  O         -0.0980    8.0950   22.7680 O.2   328  TRP328     -0.2864
    137  CB         1.3780    8.1630   20.0550 C.3   328  TRP328      0.0576
    138  CG         2.7690    8.0140   19.5880 C.ar  328  TRP328      0.0006
    139  CD1        3.3000    6.9590   18.9090 C.ar  328  TRP328      0.0946
    140  CD2        3.8210    8.9740   19.7370 C.ar  328  TRP328      0.0152
    141  NE1        4.6280    7.2040   18.6300 N.ar  328  TRP328     -0.2442
    142  CE2        4.9720    8.4290   19.1390 C.ar  328  TRP328      0.0810
    143  CE3        3.8950   10.2440   20.3140 C.ar  328  TRP328      0.0012
    144  CZ2        6.1910    9.1110   19.1020 C.ar  328  TRP328      0.0191
    145  CZ3        5.1050   10.9180   20.2800 C.ar  328  TRP328      0.0001
    146  CH2        6.2330   10.3500   19.6720 C.ar  328  TRP328      0.0015
    147  N          8.3400   16.1880   12.1840 N.3   356  TYR356     -0.1241
    148  CA         9.7380   16.0790   12.5570 C.3   356  TYR356      0.1605
    149  C         10.5770   16.7600   11.5000 C.2   356  TYR356      0.2264
    150  O         10.2030   16.7980   10.3340 O.2   356  TYR356     -0.2867
    151  CB        10.1530   14.6070   12.6080 C.3   356  TYR356      0.0534
    152  CG         9.5860   13.8820   13.7840 C.ar  356  TYR356     -0.0201
    153  CD1        9.2410   14.5750   14.9330 C.ar  356  TYR356     -0.0009
    154  CD2        9.3800   12.5060   13.7490 C.ar  356  TYR356     -0.0009
    155  CE1        8.7160   13.9280   16.0250 C.ar  356  TYR356      0.0417
    156  CE2        8.8490   11.8450   14.8380 C.ar  356  TYR356      0.0417
    157  CZ         8.5140   12.5680   15.9700 C.ar  356  TYR356      0.1957
    158  OH         7.9960   11.9350   17.0710 O.3   356  TYR356     -0.2866
@<TRIPOS>BOND
     1   150   149    2
     2   149   148    1
     3   147   148    1
     4   148   151    1
     5   151   152    1
     6   154   152   ar
     7   154   156   ar
     8   152   153   ar
     9    43    44    2
    10    43    42    1
    11   156   157   ar
    12   153   155   ar
    13    42    45    1
    14    42    41    1
    15    48    47    1
    16    45    46    1
    17   157   155   ar
    18   157   158    1
    19    46    47    1
    20   132   130    1
    21   131   130    1
    22    58    56   ar
    23    58    59   ar
    24    56    54   ar
    25   130   127    1
    26   141   139   ar
    27   141   142   ar
    28   126   127    1
    29    59    57   ar
    30   139   138   ar
    31   144   142   ar
    32   144   146   ar
    33   142   140   ar
    34     1     2    1
    35   127   128    1
    36    54    53    1
    37    54    55   ar
    38   138   140   ar
    39   138   137    1
    40   146   145   ar
    41   140   143   ar
    42    57    55   ar
    43    39    37    1
    44     5     2    1
    45     5     6    1
    46    53    50    1
    47   133   128   am
    48   133   134    1
    49   137   134    1
    50   145   143   ar
    51   128   129    2
    52     4     3    2
    53     2     3    1
    54    49    50    1
    55    36    35    2
    56   134   135    1
    57    35    34    1
    58    50    51    1
    59    37    34    1
    60    37    38    1
    61    13    15   ar
    62    13    12   ar
    63    15    16   ar
    64     8     7    1
    65     8    11    1
    66     8     9    1
    67   135   136    2
    68    10     9    2
    69    34    33    1
    70    38    40    1
    71    11    12    1
    72    12    14   ar
    73    51    52    2
    74    51    60   am
    75     9    17   am
    76    16    14   ar
    77    60    61    1
    78    17    18    1
    79    18    19    1
    80    18    21    1
    81    63    62    2
    82    61    62    1
    83    61    64    1
    84    62    68   am
    85    19    20    2
    86    22    21    1
    87    22    23    1
    88    66    65    2
    89    64    65    1
    90    68    69    1
    91    25    23   am
    92    65    67   am
    93   124   123    1
    94    23    24    2
    95   125   123    1
    96    29    28    2
    97    69    70    1
    98    28    27    1
    99   123   122    2
   100   113   112   ar
   101    70    71    2
   102    70    72   am
   103    30    27    1
   104    30    31    1
   105    27    26    1
   106   112   114   ar
   107   112   111    1
   108   122   121    1
   109    31    32    1
   110   105   104    1
   111    72    73    1
   112    85    83   ar
   113    85    84   ar
   114   111   110    1
   115    75    74    2
   116   121   120    1
   117    83    81   ar
   118    84    82   ar
   119   120   119    1
   120   104   103    1
   121    26    32    1
   122    81    79   ar
   123    81    80   ar
   124    82    79   ar
   125   119   116    1
   126   110   107    1
   127    74    73    1
   128    74    86   am
   129    79    77   ar
   130    73    76    1
   131    80    78   ar
   132    94    92   ar
   133    94    96   ar
   134   102   103    1
   135   102    99    1
   136    97    96    1
   137    92    91   ar
   138    77    78   ar
   139    77    76    1
   140   107   106    1
   141   107   108    1
   142    96    95   ar
   143    98    99    1
   144    98    88   am
   145    87    86    1
   146    87    88    1
   147    87    90    1
   148   116   117    1
   149   116   115    1
   150   109   108    2
   151    99   100    1
   152    88    89    2
   153    91    90    1
   154    91    93   ar
   155   117   118    2
   156    95    93   ar
   157   101   100    2
