@<TRIPOS>MOLECULE
tmp/4d3oA01.pdb
 150 150 0 0 0
SMALL
GASTEIGER

@<TRIPOS>ATOM
      1  N         -1.6060   12.9120   19.4550 N.3    65  CYS65      -0.1235
      2  CA        -1.9160   13.7630   20.5970 C.3    65  CYS65       0.1677
      3  C         -3.2760   13.4380   21.2090 C.2    65  CYS65       0.2270
      4  O         -4.3050   13.4990   20.5360 O.2    65  CYS65      -0.2867
      5  CB        -1.9070   15.2430   20.2010 C.3    65  CYS65       0.0956
      6  SG        -2.3790   16.3260   21.5860 S.3    65  CYS65      -0.0801
      7  N         14.9950   20.7860   22.0220 N.3   127  HIS127     -0.1226
      8  CA        13.8780   19.8950   21.7560 C.3   127  HIS127      0.1752
      9  C         12.6640   20.4560   22.4840 C.2   127  HIS127      0.2595
     10  O         11.5680   20.4960   21.9360 O.2   127  HIS127     -0.2718
     11  CB        14.1690   18.4740   22.2240 C.3   127  HIS127      0.0759
     12  CG        12.9330   17.6440   22.4080 C.ar  127  HIS127      0.0818
     13  ND1       12.1780   17.1860   21.3510 N.ar  127  HIS127     -0.2268
     14  CD2       12.3100   17.2050   23.5300 C.ar  127  HIS127      0.1154
     15  CE1       11.1480   16.4940   21.8100 C.ar  127  HIS127      0.1986
     16  NE2       11.2030   16.4960   23.1300 N.ar  127  HIS127     -0.2212
     17  N         12.8610   20.8800   23.7280 N.am  128  GLN128     -0.1979
     18  CA        11.8430   21.6700   24.4200 C.3   128  GLN128      0.1601
     19  C         12.5050   22.9100   24.9450 C.2   128  GLN128      0.2287
     20  O         13.6970   22.8900   25.2360 O.2   128  GLN128     -0.2864
     21  CB        11.1860   20.8840   25.5550 C.3   128  GLN128      0.0394
     22  CG        10.4070   19.6820   25.0510 C.3   128  GLN128      0.0908
     23  CD         9.7710   18.9020   26.1620 C.2   128  GLN128      0.2608
     24  OE1        9.5280   19.4370   27.2360 O.2   128  GLN128     -0.2717
     25  NE2        9.5160   17.6140   25.9210 N.am  128  GLN128     -0.0878
     26  N          5.7700   21.5720   29.1860 N.3   215  PRO215     -0.2116
     27  CA         6.4750   20.9460   28.0640 C.3   215  PRO215      0.1372
     28  C          6.2620   21.7860   26.8180 C.2   215  PRO215      0.2244
     29  O          5.1430   21.8920   26.3210 O.2   215  PRO215     -0.2868
     30  CB         5.7760   19.5960   27.9210 C.3   215  PRO215      0.0268
     31  CG         4.3650   19.8510   28.3970 C.3   215  PRO215      0.0207
     32  CD         4.4360   20.9810   29.4090 C.3   215  PRO215      0.0892
     33  N          7.3610   22.0120   23.1730 N.3   217  ILE217     -0.1245
     34  CA         8.0490   21.3360   22.0750 C.3   217  ILE217      0.1561
     35  C          8.5130   22.3740   21.0810 C.2   217  ILE217      0.2260
     36  O          7.7040   23.1340   20.5490 O.2   217  ILE217     -0.2867
     37  CB         7.1130   20.3320   21.3730 C.3   217  ILE217      0.0252
     38  CG1        6.6690   19.2500   22.3590 C.3   217  ILE217      0.0019
     39  CG2        7.7900   19.7070   20.1320 C.3   217  ILE217      0.0019
     40  CD1        7.8140   18.4360   22.9260 C.3   217  ILE217      0.0001
     41  N          5.4420   25.0400   20.6030 N.3   234  PHE234     -0.1227
     42  CA         4.1120   24.9890   21.1710 C.3   234  PHE234      0.1736
     43  C          4.1260   24.2080   22.4680 C.2   234  PHE234      0.2595
     44  O          5.0280   23.4060   22.7090 O.2   234  PHE234     -0.2718
     45  CB         3.1600   24.3200   20.1850 C.3   234  PHE234      0.0547
     46  CG         3.5840   22.9320   19.7690 C.ar  234  PHE234     -0.0202
     47  CD1        3.2280   21.8190   20.5250 C.ar  234  PHE234     -0.0042
     48  CD2        4.3050   22.7420   18.5980 C.ar  234  PHE234     -0.0042
     49  CE1        3.5940   20.5350   20.1290 C.ar  234  PHE234     -0.0003
     50  CE2        4.6820   21.4810   18.1940 C.ar  234  PHE234     -0.0003
     51  CZ         4.3240   20.3570   18.9570 C.ar  234  PHE234     -0.0000
     52  N          3.1010   24.4090   23.2880 N.am  235  ASN235     -0.1960
     53  CA         3.0170   23.6910   24.5430 C.3   235  ASN235      0.1819
     54  C          1.5740   23.3840   24.8610 C.2   235  ASN235      0.2622
     55  O          0.6680   24.0920   24.4200 O.2   235  ASN235     -0.2715
     56  CB         3.5800   24.5420   25.6730 C.3   235  ASN235      0.1195
     57  CG         2.7050   25.7350   25.9880 C.2   235  ASN235      0.2630
     58  OD1        2.7790   26.7590   25.3150 O.2   235  ASN235     -0.2716
     59  ND2        1.8720   25.6130   27.0240 N.am  235  ASN235     -0.0877
     60  N          1.3680   22.3300   25.6330 N.am  236  GLY236     -0.1940
     61  CA         0.0990   22.1050   26.2900 C.3   236  GLY236      0.2014
     62  C          0.4680   22.0490   27.7510 C.2   236  GLY236      0.2639
     63  O          1.4120   22.7190   28.1980 O.2   236  GLY236     -0.2714
     64  N         -0.2740   21.2600   28.5060 N.am  237  TRP237     -0.1959
     65  CA         0.1620   20.8890   29.8360 C.3   237  TRP237      0.1771
     66  C          0.4970   19.4250   29.7780 C.2   237  TRP237      0.2620
     67  O          0.1490   18.7270   28.8160 O.2   237  TRP237     -0.2715
     68  CB        -0.9300   21.1440   30.8660 C.3   237  TRP237      0.0590
     69  CG        -2.2850   20.6390   30.4410 C.ar  237  TRP237      0.0006
     70  CD1       -2.7610   19.3570   30.5250 C.ar  237  TRP237      0.0946
     71  CD2       -3.3360   21.4250   29.8860 C.ar  237  TRP237      0.0152
     72  NE1       -4.0620   19.3040   30.0560 N.ar  237  TRP237     -0.2442
     73  CE2       -4.4330   20.5610   29.6570 C.ar  237  TRP237      0.0810
     74  CE3       -3.4610   22.7800   29.5650 C.ar  237  TRP237      0.0012
     75  CZ2       -5.6270   21.0100   29.1050 C.ar  237  TRP237      0.0191
     76  CZ3       -4.6450   23.2230   29.0230 C.ar  237  TRP237      0.0001
     77  CH2       -5.7210   22.3420   28.8050 C.ar  237  TRP237      0.0015
     78  N          1.1800   18.9440   30.8050 N.am  238  TYR238     -0.1960
     79  CA         1.5550   17.5590   30.8210 C.3   238  TYR238      0.1771
     80  C          0.3730   16.6700   31.1140 C.2   238  TYR238      0.2619
     81  O         -0.5200   17.0470   31.8640 O.2   238  TYR238     -0.2715
     82  CB         2.5670   17.3200   31.9170 C.3   238  TYR238      0.0574
     83  CG         3.9840   17.4130   31.4350 C.ar  238  TYR238     -0.0198
     84  CD1        4.4670   16.5170   30.5000 C.ar  238  TYR238     -0.0009
     85  CD2        4.8450   18.3680   31.9460 C.ar  238  TYR238     -0.0009
     86  CE1        5.7820   16.5810   30.0640 C.ar  238  TYR238      0.0417
     87  CE2        6.1670   18.4340   31.5190 C.ar  238  TYR238      0.0417
     88  CZ         6.6210   17.5400   30.5890 C.ar  238  TYR238      0.1957
     89  OH         7.9310   17.6030   30.1540 O.3   238  TYR238     -0.2866
     90  N          0.4020   15.4760   30.5460 N.am  239  MET239     -0.1977
     91  CA        -0.3830   14.3770   31.0830 C.3   239  MET239      0.1605
     92  C          0.5960   13.6920   32.0230 C.2   239  MET239      0.2287
     93  O          1.7640   13.5330   31.6740 O.2   239  MET239     -0.2864
     94  CB        -0.8160   13.4470   29.9610 C.3   239  MET239      0.0413
     95  CG        -1.7130   12.3170   30.4180 C.3   239  MET239      0.0598
     96  SD        -2.4320   11.4390   29.0170 S.3   239  MET239     -0.1393
     97  CE        -1.0740   10.4090   28.4600 C.3   239  MET239      0.0692
     98  N          3.5060   11.1350   31.2240 N.3   242  GLU242     -0.1245
     99  CA         4.6770   11.5360   30.4530 C.3   242  GLU242      0.1567
    100  C          5.8490   11.7590   31.3790 C.2   242  GLU242      0.2260
    101  O          7.0060   11.5300   31.0150 O.2   242  GLU242     -0.2867
    102  CB         4.4030   12.8410   29.7260 C.3   242  GLU242      0.0388
    103  CG         3.2210   12.7730   28.7810 C.3   242  GLU242      0.1160
    104  CD         3.0890   14.0520   27.9950 C.2   242  GLU242      0.3649
    105  OE1        3.8890   14.2330   27.0490 O.co2 242  GLU242     -0.2457
    106  OE2        2.2080   14.8790   28.3330 O.co2 242  GLU242     -0.2457
    107  N          7.4450    7.8960   31.9560 N.3   246  ARG246     -0.1245
    108  CA         8.4600    7.9840   30.9180 C.3   246  ARG246      0.1563
    109  C          9.6920    8.7890   31.3320 C.2   246  ARG246      0.2260
    110  O         10.7770    8.2220   31.4360 O.2   246  ARG246     -0.2867
    111  CB         7.8640    8.5380   29.6250 C.3   246  ARG246      0.0307
    112  CG         6.6470    7.7590   29.0730 C.3   246  ARG246      0.0489
    113  CD         6.9630    6.2750   28.7410 C.3   246  ARG246      0.2205
    114  NE         8.1170    6.1430   27.8520 N.pl3 246  ARG246     -0.0865
    115  CZ         8.1190    6.4370   26.5510 C.cat 246  ARG246      0.5346
    116  NH1        7.0170    6.8760   25.9440 N.pl3 246  ARG246      0.1354
    117  NH2        9.2360    6.2900   25.8520 N.pl3 246  ARG246      0.1354
    118  N         -0.7230    3.8650   18.8430 N.3   327  THR327     -0.1203
    119  CA         0.4630    3.5210   19.6240 C.3   327  THR327      0.1994
    120  C          0.9410    4.6790   20.4870 C.2   327  THR327      0.2617
    121  O          1.6190    4.4780   21.4950 O.2   327  THR327     -0.2717
    122  CB         1.6170    2.9940   18.7310 C.3   327  THR327      0.1784
    123  OG1        2.1370    4.0620   17.9340 O.3   327  THR327     -0.2211
    124  CG2        1.1280    1.8640   17.8230 C.3   327  THR327      0.0376
    125  N          0.5850    5.8990   20.1010 N.am  328  TRP328     -0.1975
    126  CA         0.9300    7.0560   20.9040 C.3   328  TRP328      0.1640
    127  C         -0.2340    7.5240   21.7540 C.2   328  TRP328      0.2290
    128  O         -0.0420    8.2160   22.7440 O.2   328  TRP328     -0.2864
    129  CB         1.3660    8.2130   20.0050 C.3   328  TRP328      0.0576
    130  CG         2.7580    8.0810   19.5360 C.ar  328  TRP328      0.0006
    131  CD1        3.2880    7.0670   18.7910 C.ar  328  TRP328      0.0946
    132  CD2        3.8170    9.0040   19.7780 C.ar  328  TRP328      0.0152
    133  NE1        4.6280    7.3100   18.5520 N.ar  328  TRP328     -0.2442
    134  CE2        4.9740    8.4910   19.1540 C.ar  328  TRP328      0.0810
    135  CE3        3.8970   10.2240   20.4560 C.ar  328  TRP328      0.0012
    136  CZ2        6.2010    9.1590   19.1920 C.ar  328  TRP328      0.0191
    137  CZ3        5.1130   10.8860   20.4920 C.ar  328  TRP328      0.0001
    138  CH2        6.2460   10.3550   19.8530 C.ar  328  TRP328      0.0015
    139  N          8.2840   16.2250   12.2640 N.3   356  TYR356     -0.1241
    140  CA         9.6780   16.1310   12.6600 C.3   356  TYR356      0.1605
    141  C         10.5240   16.8070   11.6050 C.2   356  TYR356      0.2264
    142  O         10.1530   16.8540   10.4300 O.2   356  TYR356     -0.2867
    143  CB        10.1040   14.6620   12.7640 C.3   356  TYR356      0.0534
    144  CG         9.4760   13.9370   13.9190 C.ar  356  TYR356     -0.0201
    145  CD1        9.0730   14.6300   15.0540 C.ar  356  TYR356     -0.0009
    146  CD2        9.2840   12.5580   13.8810 C.ar  356  TYR356     -0.0009
    147  CE1        8.4980   13.9770   16.1200 C.ar  356  TYR356      0.0417
    148  CE2        8.7030   11.8920   14.9450 C.ar  356  TYR356      0.0417
    149  CZ         8.3160   12.6110   16.0590 C.ar  356  TYR356      0.1957
    150  OH         7.7460   11.9650   17.1280 O.3   356  TYR356     -0.2866
@<TRIPOS>BOND
     1   142   141    2
     2   141   140    1
     3   139   140    1
     4   140   143    1
     5   143   144    1
     6   146   144   ar
     7   146   148   ar
     8   144   145   ar
     9   148   149   ar
    10   145   147   ar
    11   149   147   ar
    12   149   150    1
    13   124   122    1
    14   123   122    1
    15    50    48   ar
    16    50    51   ar
    17   133   131   ar
    18   133   134   ar
    19    48    46   ar
    20   122   119    1
    21   131   130   ar
    22   118   119    1
    23    51    49   ar
    24   134   136   ar
    25   134   132   ar
    26   136   138   ar
    27     1     2    1
    28   130   132   ar
    29   130   129    1
    30   119   120    1
    31    46    45    1
    32    46    47   ar
    33   132   135   ar
    34   138   137   ar
    35   129   126    1
    36   125   120   am
    37   125   126    1
    38    49    47   ar
    39    39    37    1
    40    45    42    1
    41     5     2    1
    42     5     6    1
    43   135   137   ar
    44   120   121    2
    45     4     3    2
    46    36    35    2
    47     2     3    1
    48    41    42    1
    49   126   127    1
    50    35    34    1
    51    42    43    1
    52    13    15   ar
    53    13    12   ar
    54    37    34    1
    55    37    38    1
    56   127   128    2
    57     8     7    1
    58     8    11    1
    59     8     9    1
    60    15    16   ar
    61    10     9    2
    62    34    33    1
    63    11    12    1
    64    38    40    1
    65    12    14   ar
    66    43    44    2
    67    43    52   am
    68     9    17   am
    69    16    14   ar
    70    52    53    1
    71    17    18    1
    72    18    19    1
    73    18    21    1
    74    55    54    2
    75    53    54    1
    76    53    56    1
    77    54    60   am
    78    19    20    2
    79    22    21    1
    80    22    23    1
    81    58    57    2
    82    60    61    1
    83    56    57    1
    84   117   115    1
    85    25    23   am
    86   116   115    1
    87    57    59   am
    88    23    24    2
    89    61    62    1
    90    29    28    2
    91   115   114    2
    92    28    27    1
    93   105   104   ar
    94    62    63    2
    95    62    64   am
    96   114   113    1
    97    30    27    1
    98    30    31    1
    99   104   106   ar
   100   104   103    1
   101    27    26    1
   102    31    32    1
   103    97    96    1
   104    64    65    1
   105   113   112    1
   106   103   102    1
   107    77    76   ar
   108    77    75   ar
   109    67    66    2
   110    96    95    1
   111    76    74   ar
   112   112   111    1
   113    75    73   ar
   114    26    32    1
   115    74    71   ar
   116   111   108    1
   117    73    71   ar
   118    73    72   ar
   119   102    99    1
   120    66    65    1
   121    66    78   am
   122    65    68    1
   123    71    69   ar
   124    94    95    1
   125    94    91    1
   126    72    70   ar
   127    86    84   ar
   128    86    88   ar
   129    89    88    1
   130    69    70   ar
   131    69    68    1
   132    99    98    1
   133    99   100    1
   134    84    83   ar
   135    90    91    1
   136    90    80   am
   137    88    87   ar
   138    78    79    1
   139    79    80    1
   140    79    82    1
   141   108   109    1
   142   108   107    1
   143   101   100    2
   144    91    92    1
   145    80    81    2
   146   109   110    2
   147    83    82    1
   148    83    85   ar
   149    87    85   ar
   150    93    92    2
