@<TRIPOS>MOLECULE
tmp/4d3sA00.pdb
 89 84 0 0 0
SMALL
GASTEIGER

@<TRIPOS>ATOM
      1  N         75.7780   38.4430  116.5240 N.3   207  ASN207     -0.1240
      2  CA        76.8410   37.8580  117.3010 C.3   207  ASN207      0.1653
      3  C         76.9090   38.5580  118.6780 C.2   207  ASN207      0.2266
      4  O         77.0670   39.7910  118.7680 O.2   207  ASN207     -0.2867
      5  CB        78.2150   37.9930  116.5810 C.3   207  ASN207      0.1155
      6  CG        78.3210   37.1600  115.2770 C.2   207  ASN207      0.2627
      7  OD1       78.4560   37.7320  114.1920 O.2   207  ASN207     -0.2716
      8  ND2       78.2670   35.8380  115.3870 N.am  207  ASN207     -0.0877
      9  N         82.5410   35.8990  122.8520 N.3   212  PHE212     -0.1241
     10  CA        83.7690   35.7420  122.0780 C.3   212  PHE212      0.1605
     11  C         84.9210   36.4570  122.7570 C.2   212  PHE212      0.2264
     12  O         86.0530   35.9670  122.7710 O.2   212  PHE212     -0.2867
     13  CB        83.5770   36.3010  120.6670 C.3   212  PHE212      0.0534
     14  CG        82.6780   35.4740  119.7900 C.ar  212  PHE212     -0.0203
     15  CD1       83.1450   34.3150  119.1870 C.ar  212  PHE212     -0.0042
     16  CD2       81.3840   35.8960  119.5200 C.ar  212  PHE212     -0.0042
     17  CE1       82.3260   33.5750  118.3490 C.ar  212  PHE212     -0.0003
     18  CE2       80.5480   35.1540  118.6990 C.ar  212  PHE212     -0.0003
     19  CZ        81.0230   33.9930  118.1080 C.ar  212  PHE212     -0.0000
     20  N         86.1080   34.2940  125.9040 N.3   215  GLY215     -0.1210
     21  CA        86.9410   33.1460  125.4780 C.3   215  GLY215      0.1956
     22  C         88.3000   33.5500  124.9050 C.2   215  GLY215      0.2612
     23  O         89.3260   32.8880  125.1150 O.2   215  GLY215     -0.2717
     24  N         88.3160   34.6310  124.1490 N.am  216  THR216     -0.1952
     25  CA        89.5660   35.1300  123.6150 C.3   216  THR216      0.1897
     26  C         90.4900   35.5750  124.7550 C.2   216  THR216      0.2313
     27  O         91.6780   35.2510  124.7610 O.2   216  THR216     -0.2863
     28  CB        89.3130   36.3080  122.6470 C.3   216  THR216      0.1794
     29  OG1       88.4710   35.8770  121.5890 O.3   216  THR216     -0.2208
     30  CG2       90.6110   36.8370  122.0530 C.3   216  THR216      0.0378
     31  N         91.9980   32.5960  126.5510 N.3   219  ALA219     -0.1245
     32  CA        93.0470   31.9800  125.7620 C.3   219  ALA219      0.1562
     33  C         94.3270   32.7930  125.7920 C.2   219  ALA219      0.2260
     34  O         95.4050   32.2410  125.9120 O.2   219  ALA219     -0.2867
     35  CB        92.5870   31.7840  124.3220 C.3   219  ALA219      0.0290
     36  N         95.3900   26.4790  121.5270 N.3   226  PRO226     -0.2116
     37  CA        95.0290   25.2540  120.8220 C.3   226  PRO226      0.1372
     38  C         93.9970   25.4760  119.7090 C.2   226  PRO226      0.2244
     39  O         92.9860   26.1690  119.9040 O.2   226  PRO226     -0.2868
     40  CB        94.4460   24.3690  121.9360 C.3   226  PRO226      0.0268
     41  CG        93.9560   25.3240  122.9680 C.3   226  PRO226      0.0207
     42  CD        94.9330   26.4550  122.9260 C.3   226  PRO226      0.0892
     43  N         88.9780   24.1610  118.4950 N.3   229  GLU229     -0.1231
     44  CA        87.7180   24.8640  118.2300 C.3   229  GLU229      0.1699
     45  C         87.7570   25.7800  116.9700 C.2   229  GLU229      0.2592
     46  O         86.7350   25.9380  116.3020 O.2   229  GLU229     -0.2718
     47  CB        87.3310   25.6900  119.4720 C.3   229  GLU229      0.0402
     48  CG        87.0810   24.8590  120.7050 C.3   229  GLU229      0.1161
     49  CD        85.8900   23.9580  120.6360 C.2   229  GLU229      0.3649
     50  OE1       85.0090   24.1310  119.7530 O.co2 229  GLU229     -0.2457
     51  OE2       85.7900   23.1320  121.5560 O.co2 229  GLU229     -0.2457
     52  N         88.9170   26.3860  116.6760 N.am  230  ASP230     -0.1974
     53  CA        89.0790   27.2820  115.5350 C.3   230  ASP230      0.1709
     54  C         90.5540   27.4660  115.2140 C.2   230  ASP230      0.2293
     55  O         91.4050   27.3300  116.0950 O.2   230  ASP230     -0.2864
     56  CB        88.3690   28.6290  115.8100 C.3   230  ASP230      0.1436
     57  CG        89.2850   29.8780  115.7090 C.2   230  ASP230      0.3671
     58  OD1       89.9660   30.2120  116.7070 O.co2 230  ASP230     -0.2456
     59  OD2       89.2620   30.5960  114.6650 O.co2 230  ASP230     -0.2456
     60  N         90.4090   30.8470  109.6670 N.3   235  ASP235     -0.1239
     61  CA        90.0620   32.2500  109.9010 C.3   235  ASP235      0.1674
     62  C         90.5980   33.1240  108.7920 C.2   235  ASP235      0.2266
     63  O         89.8990   34.0410  108.3060 O.2   235  ASP235     -0.2867
     64  CB        90.6310   32.7260  111.2240 C.3   235  ASP235      0.1410
     65  CG        90.1730   31.8940  112.3880 C.2   235  ASP235      0.3668
     66  OD1       89.0800   31.3150  112.3400 O.co2 235  ASP235     -0.2456
     67  OD2       90.9460   31.8010  113.3760 O.co2 235  ASP235     -0.2456
     68  N         94.9140   28.7940  117.4420 N.3   275  SER275     -0.1202
     69  CA        93.7220   29.6220  117.4600 C.3   275  SER275      0.2020
     70  C         94.0300   31.0740  117.1820 C.2   275  SER275      0.2619
     71  O         95.1660   31.5280  117.2480 O.2   275  SER275     -0.2717
     72  CB        92.9590   29.4680  118.7790 C.3   275  SER275      0.2103
     73  OG        93.6050   30.1470  119.8240 O.3   275  SER275     -0.2182
     74  N         92.9700   31.7770  116.8190 N.am  276  PHE276     -0.1961
     75  CA        92.9860   33.1920  116.4570 C.3   276  PHE276      0.1771
     76  C         93.6920   34.0530  117.5070 C.2   276  PHE276      0.2619
     77  O         94.4460   34.9740  117.1700 O.2   276  PHE276     -0.2715
     78  CB        91.5340   33.6330  116.2800 C.3   276  PHE276      0.0574
     79  CG        91.3360   35.0920  116.2950 C.ar  276  PHE276     -0.0200
     80  CD1       91.6160   35.8440  115.1720 C.ar  276  PHE276     -0.0042
     81  CD2       90.8940   35.7260  117.4370 C.ar  276  PHE276     -0.0042
     82  CE1       91.4440   37.2040  115.1830 C.ar  276  PHE276     -0.0003
     83  CE2       90.7410   37.0980  117.4610 C.ar  276  PHE276     -0.0003
     84  CZ        91.0220   37.8370  116.3400 C.ar  276  PHE276     -0.0000
     85  N         93.5020   33.7180  118.7790 N.am  277  ALA277     -0.1977
     86  CA        94.0590   34.5310  119.8690 C.3   277  ALA277      0.1597
     87  C         95.5600   34.6590  119.8570 C.2   277  ALA277      0.2287
     88  O         96.1110   35.6290  120.3690 O.2   277  ALA277     -0.2864
     89  CB        93.6370   33.9650  121.1800 C.3   277  ALA277      0.0319
@<TRIPOS>BOND
     1    63    62    2
     2    62    61    1
     3    60    61    1
     4    61    64    1
     5    64    65    1
     6    66    65   ar
     7    65    67   ar
     8     7     6    2
     9    59    57   ar
    10    80    82   ar
    11    80    79   ar
    12    82    84   ar
    13    54    53    1
    14    54    55    2
    15     6     8   am
    16     6     5    1
    17    53    56    1
    18    53    52    1
    19    57    56    1
    20    57    58   ar
    21    78    79    1
    22    78    75    1
    23    79    81   ar
    24    46    45    2
    25    84    83   ar
    26    75    74    1
    27    75    76    1
    28     1     2    1
    29     5     2    1
    30    52    45   am
    31    74    70   am
    32    45    44    1
    33    77    76    2
    34    70    71    2
    35    70    69    1
    36     2     3    1
    37    81    83   ar
    38    68    69    1
    39    69    72    1
    40    76    85   am
    41    19    17   ar
    42    19    18   ar
    43    44    43    1
    44    44    47    1
    45    17    15   ar
    46     3     4    2
    47    18    16   ar
    48    85    86    1
    49    72    73    1
    50    15    14   ar
    51    47    48    1
    52    16    14   ar
    53    38    39    2
    54    38    37    1
    55    50    49   ar
    56    14    13    1
    57    87    86    1
    58    87    88    2
    59    86    89    1
    60    49    48    1
    61    49    51   ar
    62    13    10    1
    63    37    36    1
    64    37    40    1
    65    36    42    1
    66    29    28    1
    67    40    41    1
    68    30    28    1
    69    10    11    1
    70    10     9    1
    71    28    25    1
    72    11    12    2
    73    42    41    1
    74    25    24    1
    75    25    26    1
    76    24    22   am
    77    35    32    1
    78    26    27    2
    79    22    23    2
    80    22    21    1
    81    21    20    1
    82    32    33    1
    83    32    31    1
    84    33    34    2
