@<TRIPOS>MOLECULE
tmp/4d3sF00.pdb
 94 93 0 0 0
SMALL
GASTEIGER

@<TRIPOS>ATOM
      1  N         58.4770   54.2420   59.8840 N.3    11  MET11      -0.1245
      2  CA        59.8670   53.9750   59.6620 C.3    11  MET11       0.1570
      3  C         60.5790   55.2610   59.2410 C.2    11  MET11       0.2261
      4  O         61.6450   55.6060   59.7590 O.2    11  MET11      -0.2867
      5  CB        59.9940   52.8880   58.6310 C.3    11  MET11       0.0387
      6  CG        61.2750   52.1600   58.8150 C.3    11  MET11       0.0595
      7  SD        61.2780   50.8890   60.1090 S.3    11  MET11      -0.1393
      8  CE        62.8280   50.2320   59.5130 C.3    11  MET11       0.0692
      9  N         65.9230   46.8210   55.7680 N.3   116  VAL116     -0.1231
     10  CA        66.0640   47.2520   57.1260 C.3   116  VAL116      0.1692
     11  C         65.4220   46.2920   58.1510 C.2   116  VAL116      0.2592
     12  O         64.2100   46.2120   58.2920 O.2   116  VAL116     -0.2718
     13  CB        65.4340   48.6190   57.3260 C.3   116  VAL116      0.0266
     14  CG1       65.6630   49.1100   58.7670 C.3   116  VAL116      0.0020
     15  CG2       66.0410   49.5960   56.3650 C.3   116  VAL116      0.0020
     16  N         66.2700   45.5460   58.8380 N.am  117  MET117     -0.1965
     17  CA        65.8370   44.5100   59.7400 C.3   117  MET117      0.1736
     18  C         65.6670   45.0840   61.1540 C.2   117  MET117      0.2617
     19  O         66.1410   44.5080   62.1250 O.2   117  MET117     -0.2715
     20  CB        66.8540   43.3710   59.6950 C.3   117  MET117      0.0427
     21  CG        66.2340   42.0060   60.0360 C.3   117  MET117      0.0599
     22  SD        64.7760   41.7050   58.9940 S.3   117  MET117     -0.1393
     23  CE        65.6870   41.3060   57.4370 C.3   117  MET117      0.0692
     24  N         64.8280   46.1140   61.2520 N.am  118  SER118     -0.1936
     25  CA        64.4370   46.6690   62.5150 C.3   118  SER118      0.2040
     26  C         63.0790   47.3190   62.4300 C.2   118  SER118      0.2485
     27  O         62.6830   47.7200   61.3710 O.2   118  SER118     -0.2729
     28  CB        65.3960   47.7250   62.9220 C.3   118  SER118      0.2129
     29  OG        64.8450   48.4800   63.9950 O.3   118  SER118     -0.2179
     30  N         62.3040   47.2980   63.5370 N.am  119  PRO119     -0.2715
     31  CA        61.0010   47.9980   63.5160 C.3   119  PRO119      0.1536
     32  C         61.3770   49.4290   63.7850 C.2   119  PRO119      0.2598
     33  O         62.5320   49.6620   64.1470 O.2   119  PRO119     -0.2715
     34  CB        60.2210   47.3690   64.6900 C.3   119  PRO119      0.0310
     35  CG        61.2860   46.8400   65.6010 C.3   119  PRO119      0.0237
     36  CD        62.4300   46.4160   64.7160 C.3   119  PRO119      0.0939
     37  N         60.4450   50.3320   63.6070 N.am  120  ALA120     -0.1978
     38  CA        60.6940   51.7320   63.7940 C.3   120  ALA120      0.1597
     39  C         61.3730   52.1580   65.1240 C.2   120  ALA120      0.2287
     40  O         62.4150   52.7920   65.1000 O.2   120  ALA120     -0.2864
     41  CB        59.4100   52.5020   63.6080 C.3   120  ALA120      0.0319
     42  N         66.3240   40.0510   52.6070 N.3   166  TYR166     -0.1241
     43  CA        65.3000   40.6550   53.4200 C.3   166  TYR166      0.1605
     44  C         64.0110   39.8230   53.3940 C.2   166  TYR166      0.2264
     45  O         63.4180   39.5640   54.4150 O.2   166  TYR166     -0.2867
     46  CB        64.9960   42.0520   52.9150 C.3   166  TYR166      0.0534
     47  CG        63.9710   42.7790   53.6860 C.ar  166  TYR166     -0.0201
     48  CD1       64.3070   43.5070   54.8410 C.ar  166  TYR166     -0.0009
     49  CD2       62.6580   42.8070   53.2520 C.ar  166  TYR166     -0.0009
     50  CE1       63.3860   44.1940   55.5810 C.ar  166  TYR166      0.0417
     51  CE2       61.7190   43.4920   54.0030 C.ar  166  TYR166      0.0417
     52  CZ        62.0920   44.1570   55.1850 C.ar  166  TYR166      0.1957
     53  OH        61.1560   44.8880   55.8640 O.3   166  TYR166     -0.2866
     54  N         61.8910   38.0200   56.3130 N.3   170  LEU170     -0.1245
     55  CA        60.5300   38.4860   56.6400 C.3   170  LEU170      0.1561
     56  C         59.4930   37.3720   56.4910 C.2   170  LEU170      0.2260
     57  O         58.4740   37.3950   57.1570 O.2   170  LEU170     -0.2867
     58  CB        60.1320   39.7020   55.8340 C.3   170  LEU170      0.0270
     59  CG        60.3730   41.0460   56.5160 C.3   170  LEU170      0.0019
     60  CD1       59.4280   41.2560   57.6560 C.3   170  LEU170      0.0001
     61  CD2       61.8100   41.1850   57.0220 C.3   170  LEU170      0.0001
     62  N         59.6740   35.6880   59.7020 N.3   173  PHE173     -0.1227
     63  CA        59.2200   36.6170   60.7190 C.3   173  PHE173      0.1736
     64  C         57.7030   36.7000   60.8320 C.2   173  PHE173      0.2595
     65  O         57.1500   36.5770   61.9300 O.2   173  PHE173     -0.2718
     66  CB        59.7960   37.9940   60.4540 C.3   173  PHE173      0.0547
     67  CG        59.3320   39.0470   61.4210 C.ar  173  PHE173     -0.0202
     68  CD1       59.9710   39.2340   62.6230 C.ar  173  PHE173     -0.0042
     69  CD2       58.2710   39.8830   61.1010 C.ar  173  PHE173     -0.0042
     70  CE1       59.5450   40.2180   63.4900 C.ar  173  PHE173     -0.0003
     71  CE2       57.8300   40.8640   61.9670 C.ar  173  PHE173     -0.0003
     72  CZ        58.4650   41.0250   63.1690 C.ar  173  PHE173     -0.0000
     73  N         57.0310   36.8930   59.7010 N.am  174  TRP174     -0.1976
     74  CA        55.5830   37.0860   59.7430 C.3   174  TRP174      0.1640
     75  C         54.8750   35.7880   60.0520 C.2   174  TRP174      0.2290
     76  O         53.8440   35.8000   60.7190 O.2   174  TRP174     -0.2864
     77  CB        55.0710   37.6530   58.4180 C.3   174  TRP174      0.0576
     78  CG        55.3180   39.1070   58.2170 C.ar  174  TRP174      0.0006
     79  CD1       55.9300   39.6900   57.1300 C.ar  174  TRP174      0.0946
     80  CD2       54.9870   40.1910   59.1090 C.ar  174  TRP174      0.0152
     81  NE1       55.9470   41.0550   57.2880 N.ar  174  TRP174     -0.2442
     82  CE2       55.3910   41.4000   58.4850 C.ar  174  TRP174      0.0810
     83  CE3       54.3670   40.2630   60.3440 C.ar  174  TRP174      0.0012
     84  CZ2       55.2390   42.6610   59.0880 C.ar  174  TRP174      0.0191
     85  CZ3       54.1870   41.5080   60.9510 C.ar  174  TRP174      0.0001
     86  CH2       54.6230   42.6940   60.3230 C.ar  174  TRP174      0.0015
     87  N         55.1850   35.4650   63.7060 N.3   177  MET177     -0.1245
     88  CA        54.3900   36.4630   64.4520 C.3   177  MET177      0.1570
     89  C         52.8920   36.2060   64.3910 C.2   177  MET177      0.2261
     90  O         52.1910   36.4630   65.3670 O.2   177  MET177     -0.2867
     91  CB        54.6700   37.8630   63.9460 C.3   177  MET177      0.0387
     92  CG        56.0490   38.4000   64.3290 C.3   177  MET177      0.0595
     93  SD        56.3900   38.4260   66.1060 S.3   177  MET177     -0.1393
     94  CE        55.1720   39.5060   66.7660 C.3   177  MET177      0.0692
@<TRIPOS>BOND
     1    42    43    1
     2    46    43    1
     3    46    47    1
     4    49    47   ar
     5    49    51   ar
     6    44    43    1
     7    44    45    2
     8    47    48   ar
     9    51    52   ar
    10    48    50   ar
    11    52    50   ar
    12    52    53    1
    13     9    10    1
    14    58    59    1
    15    58    55    1
    16    54    55    1
    17    15    13    1
    18    56    55    1
    19    56    57    2
    20    59    61    1
    21    59    60    1
    22    10    13    1
    23    10    11    1
    24    79    81   ar
    25    79    78   ar
    26    81    82   ar
    27    13    14    1
    28    23    22    1
    29    11    12    2
    30    11    16   am
    31    78    77    1
    32    78    80   ar
    33    77    74    1
    34    82    84   ar
    35    82    80   ar
    36     5     6    1
    37     5     2    1
    38     6     7    1
    39    16    17    1
    40    22    21    1
    41    84    86   ar
    42    80    83   ar
    43     3     2    1
    44     3     4    2
    45     8     7    1
    46     2     1    1
    47    20    17    1
    48    20    21    1
    49    73    74    1
    50    73    64   am
    51    62    63    1
    52    17    18    1
    53    74    75    1
    54    75    76    2
    55    86    85   ar
    56    83    85   ar
    57    66    63    1
    58    66    67    1
    59    63    64    1
    60    64    65    2
    61    69    67   ar
    62    69    71   ar
    63    18    24   am
    64    18    19    2
    65    24    25    1
    66    27    26    2
    67    67    68   ar
    68    71    72   ar
    69    26    25    1
    70    26    30   am
    71    25    28    1
    72    68    70   ar
    73    28    29    1
    74    72    70   ar
    75    31    30    1
    76    31    32    1
    77    31    34    1
    78    30    36    1
    79    37    32   am
    80    37    38    1
    81    41    38    1
    82    87    88    1
    83    32    33    2
    84    38    39    1
    85    91    92    1
    86    91    88    1
    87    92    93    1
    88    89    88    1
    89    89    90    2
    90    34    35    1
    91    36    35    1
    92    40    39    2
    93    93    94    1
