@<TRIPOS>MOLECULE
tmp/4d3tA01.pdb
 184 179 0 0 0
SMALL
GASTEIGER

@<TRIPOS>ATOM
      1  N         -1.6140   13.0570   19.3710 N.3    65  CYS65      -0.1235
      2  CA        -1.9590   13.9000   20.5130 C.3    65  CYS65       0.1677
      3  C         -3.3250   13.5910   21.1350 C.2    65  CYS65       0.2270
      4  O         -4.3740   13.7460   20.4960 O.2    65  CYS65      -0.2867
      5  CB        -1.9170   15.3780   20.1150 C.3    65  CYS65       0.0956
      6  SG        -2.4140   16.4940   21.4320 S.3    65  CYS65      -0.0801
      7  N         15.2280   21.1260   22.1230 N.3   127  HIS127     -0.1226
      8  CA        14.1010   20.2280   21.8880 C.3   127  HIS127      0.1752
      9  C         12.8360   20.7790   22.5450 C.2   127  HIS127      0.2595
     10  O         11.7640   20.8130   21.9330 O.2   127  HIS127     -0.2718
     11  CB        14.4070   18.8180   22.3910 C.3   127  HIS127      0.0759
     12  CG        13.1840   17.9790   22.5710 C.ar  127  HIS127      0.0818
     13  ND1       12.3900   17.5890   21.5160 N.ar  127  HIS127     -0.2268
     14  CD2       12.6080   17.4750   23.6870 C.ar  127  HIS127      0.1154
     15  CE1       11.3780   16.8670   21.9720 C.ar  127  HIS127      0.1986
     16  NE2       11.4890   16.7830   23.2890 N.ar  127  HIS127     -0.2212
     17  N         12.9700   21.2080   23.7970 N.am  128  GLN128     -0.1979
     18  CA        11.9450   21.9950   24.4690 C.3   128  GLN128      0.1601
     19  C         12.6160   23.2550   25.0060 C.2   128  GLN128      0.2287
     20  O         13.8120   23.2450   25.3070 O.2   128  GLN128     -0.2864
     21  CB        11.2770   21.1940   25.5900 C.3   128  GLN128      0.0394
     22  CG        10.4540   19.9780   25.0820 C.3   128  GLN128      0.0908
     23  CD         9.8660   19.1490   26.2000 C.2   128  GLN128      0.2608
     24  OE1        9.5310   19.6660   27.2650 O.2   128  GLN128     -0.2717
     25  NE2        9.7400   17.8470   25.9610 N.am  128  GLN128     -0.0878
     26  N         14.2810   22.4700   29.5260 N.3   131  ARG131     -0.1245
     27  CA        14.6700   21.0660   29.6280 C.3   131  ARG131      0.1563
     28  C         15.9810   20.9430   30.3920 C.2   131  ARG131      0.2260
     29  O         16.7540   21.8880   30.4570 O.2   131  ARG131     -0.2867
     30  CB        14.8130   20.4330   28.2480 C.3   131  ARG131      0.0307
     31  CG        14.1580   19.0520   28.2040 C.3   131  ARG131      0.0489
     32  CD        14.6020   18.2250   27.0400 C.3   131  ARG131      0.2205
     33  NE        13.8780   16.9620   27.0590 N.pl3 131  ARG131     -0.0865
     34  CZ        14.1040   15.9490   26.2290 C.cat 131  ARG131      0.5346
     35  NH1       15.0670   16.0360   25.3150 N.pl3 131  ARG131      0.1354
     36  NH2       13.3710   14.8410   26.3270 N.pl3 131  ARG131      0.1354
     37  N          5.8730   21.9950   29.2960 N.3   215  PRO215     -0.2116
     38  CA         6.6300   21.4080   28.1850 C.3   215  PRO215      0.1372
     39  C          6.3850   22.2180   26.9180 C.2   215  PRO215      0.2244
     40  O          5.2400   22.3690   26.4800 O.2   215  PRO215     -0.2868
     41  CB         6.0380   20.0030   28.0580 C.3   215  PRO215      0.0268
     42  CG         4.6050   20.1530   28.5360 C.3   215  PRO215      0.0207
     43  CD         4.5570   21.3550   29.4820 C.3   215  PRO215      0.0892
     44  N          7.5330   22.3580   23.1570 N.3   217  ILE217     -0.1245
     45  CA         8.2340   21.6840   22.0620 C.3   217  ILE217      0.1561
     46  C          8.7050   22.7090   21.0470 C.2   217  ILE217      0.2260
     47  O          7.9030   23.4770   20.5170 O.2   217  ILE217     -0.2867
     48  CB         7.3210   20.6520   21.3790 C.3   217  ILE217      0.0252
     49  CG1        7.0440   19.4810   22.3310 C.3   217  ILE217      0.0019
     50  CG2        7.9260   20.1730   20.0560 C.3   217  ILE217      0.0019
     51  CD1        8.2450   18.5380   22.5130 C.3   217  ILE217      0.0001
     52  N          9.9060   21.2410   16.1690 N.3   220  MET220     -0.1245
     53  CA         9.0370   20.7280   15.1110 C.3   220  MET220      0.1570
     54  C          8.6560   21.8100   14.1140 C.2   220  MET220      0.2261
     55  O          8.6160   22.9990   14.4510 O.2   220  MET220     -0.2867
     56  CB         7.7840   20.0570   15.6900 C.3   220  MET220      0.0387
     57  CG         8.1040   18.8520   16.5450 C.3   220  MET220      0.0595
     58  SD         6.6280   17.9410   17.0610 S.3   220  MET220     -0.1393
     59  CE         6.2130   17.0960   15.5310 C.3   220  MET220      0.0692
     60  N          5.5740   25.3780   20.5640 N.3   234  PHE234     -0.1227
     61  CA         4.2240   25.2900   21.1130 C.3   234  PHE234      0.1736
     62  C          4.2110   24.5340   22.4430 C.2   234  PHE234      0.2595
     63  O          5.0790   23.6870   22.6980 O.2   234  PHE234     -0.2718
     64  CB         3.2790   24.6130   20.1120 C.3   234  PHE234      0.0547
     65  CG         3.6880   23.2170   19.7410 C.ar  234  PHE234     -0.0202
     66  CD1        3.3330   22.1300   20.5420 C.ar  234  PHE234     -0.0042
     67  CD2        4.4240   22.9890   18.5870 C.ar  234  PHE234     -0.0042
     68  CE1        3.7170   20.8360   20.1960 C.ar  234  PHE234     -0.0003
     69  CE2        4.8070   21.7130   18.2290 C.ar  234  PHE234     -0.0003
     70  CZ         4.4520   20.6240   19.0340 C.ar  234  PHE234     -0.0000
     71  N          3.2230   24.8330   23.2820 N.am  235  ASN235     -0.1960
     72  CA         3.0630   24.1150   24.5440 C.3   235  ASN235      0.1819
     73  C          1.6220   23.8050   24.8660 C.2   235  ASN235      0.2622
     74  O          0.7060   24.5000   24.4240 O.2   235  ASN235     -0.2715
     75  CB         3.6160   24.9170   25.7150 C.3   235  ASN235      0.1195
     76  CG         2.7460   26.1190   26.0480 C.2   235  ASN235      0.2630
     77  OD1        2.8210   27.1520   25.3800 O.2   235  ASN235     -0.2716
     78  ND2        1.8950   25.9820   27.0700 N.am  235  ASN235     -0.0877
     79  N          1.4470   22.7630   25.6680 N.am  236  GLY236     -0.1940
     80  CA         0.1930   22.5090   26.3510 C.3   236  GLY236      0.2014
     81  C          0.5730   22.3810   27.8130 C.2   236  GLY236      0.2639
     82  O          1.5130   23.0390   28.2890 O.2   236  GLY236     -0.2714
     83  N         -0.1630   21.5450   28.5350 N.am  237  TRP237     -0.1959
     84  CA         0.2620   21.1280   29.8590 C.3   237  TRP237      0.1771
     85  C          0.6070   19.6520   29.7500 C.2   237  TRP237      0.2620
     86  O          0.3540   19.0260   28.7260 O.2   237  TRP237     -0.2715
     87  CB        -0.8350   21.3580   30.8970 C.3   237  TRP237      0.0590
     88  CG        -2.1910   20.8760   30.4650 C.ar  237  TRP237      0.0006
     89  CD1       -2.6560   19.5860   30.5100 C.ar  237  TRP237      0.0946
     90  CD2       -3.2610   21.6730   29.9350 C.ar  237  TRP237      0.0152
     91  NE1       -3.9570   19.5410   30.0430 N.ar  237  TRP237     -0.2442
     92  CE2       -4.3450   20.8070   29.6850 C.ar  237  TRP237      0.0810
     93  CE3       -3.4140   23.0430   29.6640 C.ar  237  TRP237      0.0012
     94  CZ2       -5.5560   21.2550   29.1560 C.ar  237  TRP237      0.0191
     95  CZ3       -4.6160   23.4880   29.1440 C.ar  237  TRP237      0.0001
     96  CH2       -5.6730   22.6010   28.8960 C.ar  237  TRP237      0.0015
     97  N          1.1950   19.1010   30.8000 N.am  238  TYR238     -0.1960
     98  CA         1.5770   17.6880   30.7890 C.3   238  TYR238      0.1771
     99  C          0.3970   16.7760   31.0810 C.2   238  TYR238      0.2619
    100  O         -0.5040   17.1410   31.8350 O.2   238  TYR238     -0.2715
    101  CB         2.6250   17.4420   31.8660 C.3   238  TYR238      0.0574
    102  CG         4.0570   17.5430   31.4020 C.ar  238  TYR238     -0.0198
    103  CD1        4.5640   16.6380   30.4840 C.ar  238  TYR238     -0.0009
    104  CD2        4.9000   18.5300   31.8980 C.ar  238  TYR238     -0.0009
    105  CE1        5.8970   16.7050   30.0600 C.ar  238  TYR238      0.0417
    106  CE2        6.2300   18.6100   31.4880 C.ar  238  TYR238      0.0417
    107  CZ         6.7150   17.7000   30.5710 C.ar  238  TYR238      0.1957
    108  OH         8.0250   17.7660   30.1480 O.3   238  TYR238     -0.2866
    109  N          0.4310   15.5800   30.4910 N.am  239  MET239     -0.1977
    110  CA        -0.3090   14.4450   31.0370 C.3   239  MET239      0.1605
    111  C          0.6650   13.7860   32.0130 C.2   239  MET239      0.2287
    112  O          1.8610   13.6590   31.7170 O.2   239  MET239     -0.2864
    113  CB        -0.7430   13.4860   29.9270 C.3   239  MET239      0.0413
    114  CG        -1.6040   12.3240   30.4190 C.3   239  MET239      0.0598
    115  SD        -2.4690   11.4470   29.0850 S.3   239  MET239     -0.1393
    116  CE        -1.1490   10.4650   28.3640 C.3   239  MET239      0.0692
    117  N          3.5320   11.2170   31.2800 N.3   242  GLU242     -0.1245
    118  CA         4.7230   11.6320   30.5460 C.3   242  GLU242      0.1567
    119  C          5.8850   11.8200   31.5090 C.2   242  GLU242      0.2260
    120  O          7.0360   11.5170   31.1810 O.2   242  GLU242     -0.2867
    121  CB         4.4430   12.9580   29.8310 C.3   242  GLU242      0.0388
    122  CG         3.3440   12.8740   28.7810 C.3   242  GLU242      0.1160
    123  CD         3.2230   14.1850   28.0340 C.2   242  GLU242      0.3649
    124  OE1        4.1340   14.4860   27.2290 O.co2 242  GLU242     -0.2457
    125  OE2        2.2520   14.9280   28.2850 O.co2 242  GLU242     -0.2457
    126  N          7.5780    7.9300   32.0840 N.3   246  ARG246     -0.1245
    127  CA         8.5820    8.0390   31.0450 C.3   246  ARG246      0.1563
    128  C          9.7880    8.8760   31.4740 C.2   246  ARG246      0.2260
    129  O         10.8720    8.3360   31.6480 O.2   246  ARG246     -0.2867
    130  CB         7.9690    8.5480   29.7360 C.3   246  ARG246      0.0307
    131  CG         6.7780    7.7080   29.1710 C.3   246  ARG246      0.0489
    132  CD         7.1100    6.2380   28.7720 C.3   246  ARG246      0.2205
    133  NE         8.3370    6.1560   27.9800 N.pl3 246  ARG246     -0.0865
    134  CZ         8.4300    6.4470   26.6830 C.cat 246  ARG246      0.5346
    135  NH1        7.3630    6.8370   25.9980 N.pl3 246  ARG246      0.1354
    136  NH2        9.6110    6.3650   26.0730 N.pl3 246  ARG246      0.1354
    137  N         11.8640    5.7880   32.7170 N.3   250  ASP250     -0.1239
    138  CA        12.6030    5.0750   31.6750 C.3   250  ASP250      0.1674
    139  C         14.0520    4.8070   32.1050 C.2   250  ASP250      0.2266
    140  O         14.7280    5.7010   32.6580 O.2   250  ASP250     -0.2867
    141  CB        12.6530    5.8980   30.3850 C.3   250  ASP250      0.1410
    142  CG        11.4230    5.7520   29.5190 C.2   250  ASP250      0.3668
    143  OD1       10.3980    5.1740   29.9640 O.co2 250  ASP250     -0.2456
    144  OD2       11.4930    6.2570   28.3700 O.co2 250  ASP250     -0.2456
    145  N         16.2520    7.2920   30.8270 N.3   253  ARG253     -0.1245
    146  CA        16.0450    8.6660   31.2880 C.3   253  ARG253      0.1563
    147  C         16.5040    8.7370   32.7380 C.2   253  ARG253      0.2260
    148  O         17.6320    8.3410   33.0400 O.2   253  ARG253     -0.2867
    149  CB        14.5840    9.0870   31.1200 C.3   253  ARG253      0.0307
    150  CG        14.1000    9.0500   29.6650 C.3   253  ARG253      0.0489
    151  CD        14.8230   10.0630   28.7550 C.3   253  ARG253      0.2205
    152  NE        14.5420   11.4490   29.1430 N.pl3 253  ARG253     -0.0865
    153  CZ        13.3820   12.0710   28.9460 C.cat 253  ARG253      0.5346
    154  NH1       12.3560   11.4400   28.3720 N.pl3 253  ARG253      0.1354
    155  NH2       13.2450   13.3390   29.3410 N.pl3 253  ARG253      0.1354
    156  N         -0.7520    3.8530   18.7420 N.3   327  THR327     -0.1203
    157  CA         0.4360    3.5090   19.5200 C.3   327  THR327      0.1994
    158  C          0.9200    4.6490   20.4110 C.2   327  THR327      0.2617
    159  O          1.5980    4.4040   21.4080 O.2   327  THR327     -0.2717
    160  CB         1.5950    2.9700   18.6390 C.3   327  THR327      0.1784
    161  OG1        2.1700    4.0380   17.8730 O.3   327  THR327     -0.2211
    162  CG2        1.0960    1.8800   17.6960 C.3   327  THR327      0.0376
    163  N          0.5520    5.8850   20.0700 N.am  328  TRP328     -0.1975
    164  CA         0.8900    7.0460   20.8890 C.3   328  TRP328      0.1640
    165  C         -0.2720    7.5370   21.7380 C.2   328  TRP328      0.2290
    166  O         -0.0630    8.1770   22.7660 O.2   328  TRP328     -0.2864
    167  CB         1.3990    8.2040   20.0150 C.3   328  TRP328      0.0576
    168  CG         2.8250    8.0570   19.5780 C.ar  328  TRP328      0.0006
    169  CD1        3.3650    7.0270   18.8480 C.ar  328  TRP328      0.0946
    170  CD2        3.8980    8.9700   19.8380 C.ar  328  TRP328      0.0152
    171  NE1        4.7090    7.2510   18.6400 N.ar  328  TRP328     -0.2442
    172  CE2        5.0590    8.4390   19.2370 C.ar  328  TRP328      0.0810
    173  CE3        3.9890   10.1950   20.5110 C.ar  328  TRP328      0.0012
    174  CZ2        6.2990    9.0870   19.2990 C.ar  328  TRP328      0.0191
    175  CZ3        5.2220   10.8340   20.5740 C.ar  328  TRP328      0.0001
    176  CH2        6.3530   10.2840   19.9670 C.ar  328  TRP328      0.0015
    177  N         -2.6800    5.6270   23.2790 N.3   330  ILE330     -0.1245
    178  CA        -2.7870    4.8680   24.5230 C.3   330  ILE330      0.1561
    179  C         -1.7610    5.3740   25.5530 C.2   330  ILE330      0.2260
    180  O         -0.5820    5.6000   25.2240 O.2   330  ILE330     -0.2867
    181  CB        -2.6640    3.3320   24.2980 C.3   330  ILE330      0.0252
    182  CG1       -1.3320    2.9670   23.6520 C.3   330  ILE330      0.0019
    183  CG2       -3.8110    2.8320   23.4190 C.3   330  ILE330      0.0019
    184  CD1       -0.9250    1.5400   23.9710 C.3   330  ILE330      0.0001
@<TRIPOS>BOND
     1    54    55    2
     2    54    53    1
     3    53    56    1
     4    53    52    1
     5    59    58    1
     6    56    57    1
     7    57    58    1
     8   162   160    1
     9   161   160    1
    10    69    67   ar
    11    69    70   ar
    12    67    65   ar
    13   160   157    1
    14   171   169   ar
    15   171   172   ar
    16   156   157    1
    17   169   168   ar
    18    70    68   ar
    19   172   174   ar
    20   172   170   ar
    21   174   176   ar
    22     1     2    1
    23   157   158    1
    24   168   170   ar
    25   168   167    1
    26    65    64    1
    27    65    66   ar
    28   170   173   ar
    29   176   175   ar
    30   167   164    1
    31    50    48    1
    32   163   158   am
    33   163   164    1
    34    64    61    1
    35     5     2    1
    36     5     6    1
    37    68    66   ar
    38   158   159    2
    39     4     3    2
    40   173   175   ar
    41     2     3    1
    42    47    46    2
    43    60    61    1
    44   164   165    1
    45    46    45    1
    46    61    62    1
    47    48    45    1
    48    48    49    1
    49    13    15   ar
    50    13    12   ar
    51   165   166    2
    52     8     7    1
    53     8    11    1
    54     8     9    1
    55    10     9    2
    56    15    16   ar
    57    45    44    1
    58    49    51    1
    59    11    12    1
    60    62    63    2
    61    62    71   am
    62     9    17   am
    63    12    14   ar
    64   177   178    1
    65    71    72    1
    66    16    14   ar
    67   183   181    1
    68   182   184    1
    69   182   181    1
    70    17    18    1
    71   181   178    1
    72    74    73    2
    73    18    19    1
    74    18    21    1
    75   178   179    1
    76    72    73    1
    77    72    75    1
    78    73    79   am
    79    19    20    2
    80    22    21    1
    81    22    23    1
    82   180   179    2
    83    35    34    1
    84    77    76    2
    85    79    80    1
    86    75    76    1
    87    25    23   am
    88   135   134    1
    89    76    78   am
    90   136   134    1
    91    23    24    2
    92    34    36    1
    93    34    33    2
    94    80    81    1
    95    40    39    2
    96   134   133    2
    97    39    38    1
    98    32    33    1
    99    32    31    1
   100   124   123   ar
   101    81    82    2
   102    81    83   am
   103   133   132    1
   104   123   125   ar
   105   123   122    1
   106    41    38    1
   107    41    42    1
   108    38    37    1
   109    31    30    1
   110    30    27    1
   111   116   115    1
   112   144   142   ar
   113   154   153    1
   114    83    84    1
   115    42    43    1
   116    86    85    2
   117   151   152    1
   118   151   150    1
   119   132   131    1
   120   122   121    1
   121    96    95   ar
   122    96    94   ar
   123   153   152    2
   124   153   155    1
   125   115   114    1
   126    95    93   ar
   127    94    92   ar
   128   131   130    1
   129    37    43    1
   130   142   143   ar
   131   142   141    1
   132    26    27    1
   133    27    28    1
   134    93    90   ar
   135   150   149    1
   136    92    90   ar
   137    92    91   ar
   138   130   127    1
   139    85    84    1
   140    85    97   am
   141   121   118    1
   142    84    87    1
   143   113   114    1
   144   113   110    1
   145    90    88   ar
   146    91    89   ar
   147   105   103   ar
   148   105   107   ar
   149   108   107    1
   150   141   138    1
   151    28    29    2
   152    88    89   ar
   153    88    87    1
   154   103   102   ar
   155   109   110    1
   156   109    99   am
   157   118   117    1
   158   118   119    1
   159   107   106   ar
   160    98    97    1
   161    98    99    1
   162    98   101    1
   163   145   146    1
   164   110   111    1
   165   127   128    1
   166   127   126    1
   167    99   100    2
   168   149   146    1
   169   120   119    2
   170   146   147    1
   171   102   101    1
   172   102   104   ar
   173   128   129    2
   174   106   104   ar
   175   138   139    1
   176   138   137    1
   177   112   111    2
   178   139   140    2
   179   147   148    2
