@<TRIPOS>MOLECULE
tmp/4d41H00.pdb
 177 170 0 0 0
SMALL
GASTEIGER

@<TRIPOS>ATOM
      1  N         24.6390   37.6360    0.4490 N.3    93  ALA93      -0.1231
      2  CA        23.6530   38.2650   -0.4310 C.3    93  ALA93       0.1694
      3  C         24.2740   39.4580   -1.1600 C.2    93  ALA93       0.2592
      4  O         25.2740   40.0180   -0.7070 O.2    93  ALA93      -0.2718
      5  CB        22.4320   38.7010    0.3670 C.3    93  ALA93       0.0304
      6  N         23.6970   39.8640   -2.2800 N.am   94  PHE94      -0.1962
      7  CA        24.2210   41.0280   -2.9850 C.3    94  PHE94       0.1771
      8  C         23.2120   41.5860   -3.9700 C.2    94  PHE94       0.2619
      9  O         22.5020   40.8180   -4.5930 O.2    94  PHE94      -0.2715
     10  CB        25.5060   40.6850   -3.7360 C.3    94  PHE94       0.0574
     11  CG        26.0970   41.8560   -4.4860 C.ar   94  PHE94      -0.0200
     12  CD1       25.6830   42.1560   -5.7800 C.ar   94  PHE94      -0.0042
     13  CD2       27.0610   42.6680   -3.8840 C.ar   94  PHE94      -0.0042
     14  CE1       26.2280   43.2440   -6.4620 C.ar   94  PHE94      -0.0003
     15  CE2       27.5960   43.7580   -4.5550 C.ar   94  PHE94      -0.0003
     16  CZ        27.1840   44.0450   -5.8410 C.ar   94  PHE94      -0.0000
     17  N         23.1180   42.9080   -4.0820 N.am   95  ALA95      -0.1977
     18  CA        22.3390   43.5500   -5.1470 C.3    95  ALA95       0.1597
     19  C         23.0790   44.8130   -5.5810 C.2    95  ALA95       0.2287
     20  O         23.9080   45.3100   -4.8200 O.2    95  ALA95      -0.2864
     21  CB        20.9240   43.8700   -4.6750 C.3    95  ALA95       0.0319
     22  N         23.7310   48.5370   -5.7350 N.3    97  MET97      -0.1245
     23  CA        23.3040   49.4580   -4.6850 C.3    97  MET97       0.1570
     24  C         22.2010   50.3970   -5.1930 C.2    97  MET97       0.2261
     25  O         21.3270   50.8140   -4.4310 O.2    97  MET97      -0.2867
     26  CB        24.4990   50.2260   -4.0770 C.3    97  MET97       0.0387
     27  CG        25.1500   49.5520   -2.8350 C.3    97  MET97       0.0595
     28  SD        26.2770   50.5510   -1.8020 S.3    97  MET97      -0.1393
     29  CE        26.8930   49.2920   -0.6710 C.3    97  MET97       0.0692
     30  N         18.2870   49.6560   -4.2820 N.3   100  LEU100     -0.1245
     31  CA        17.6770   49.6140   -2.9370 C.3   100  LEU100      0.1561
     32  C         17.2810   50.9640   -2.3310 C.2   100  LEU100      0.2260
     33  O         17.3780   51.1770   -1.1110 O.2   100  LEU100     -0.2867
     34  CB        18.5970   48.8900   -1.9600 C.3   100  LEU100      0.0270
     35  CG        19.4160   47.7900   -2.6340 C.3   100  LEU100      0.0019
     36  CD1       20.6600   47.4490   -1.8120 C.3   100  LEU100      0.0001
     37  CD2       18.5610   46.5530   -2.8890 C.3   100  LEU100      0.0001
     38  N         15.4150   37.9940    5.2490 N.3   145  TYR145     -0.1241
     39  CA        14.8940   39.1690    5.8970 C.3   145  TYR145      0.1605
     40  C         13.3820   39.2430    5.6440 C.2   145  TYR145      0.2264
     41  O         12.8910   38.7710    4.6090 O.2   145  TYR145     -0.2867
     42  CB        15.6900   40.4140    5.4500 C.3   145  TYR145      0.0534
     43  CG        15.1110   41.7000    5.9570 C.ar  145  TYR145     -0.0201
     44  CD1       15.0440   41.9510    7.3260 C.ar  145  TYR145     -0.0009
     45  CD2       14.5300   42.6110    5.0840 C.ar  145  TYR145     -0.0009
     46  CE1       14.4280   43.0770    7.8220 C.ar  145  TYR145      0.0417
     47  CE2       13.9290   43.7760    5.5700 C.ar  145  TYR145      0.0417
     48  CZ        13.8850   43.9930    6.9400 C.ar  145  TYR145      0.1957
     49  OH        13.2720   45.1190    7.4440 O.3   145  TYR145     -0.2866
     50  N          8.6750   45.5990    1.6920 N.3   152  VAL152     -0.1231
     51  CA         9.2420   46.5840    2.5930 C.3   152  VAL152      0.1692
     52  C          9.8810   47.6450    1.6920 C.2   152  VAL152      0.2592
     53  O         10.8410   47.3700    0.9710 O.2   152  VAL152     -0.2718
     54  CB        10.3040   45.9410    3.5240 C.3   152  VAL152      0.0266
     55  CG1       11.0370   46.9860    4.2720 C.3   152  VAL152      0.0020
     56  CG2        9.6790   44.9590    4.5300 C.3   152  VAL152      0.0020
     57  N          9.2970   48.8390    1.6940 N.am  153  GLN153     -0.1966
     58  CA         9.7920   50.0310    1.0080 C.3   153  GLN153      0.1733
     59  C         11.3170   50.1170    0.9590 C.2   153  GLN153      0.2616
     60  O         11.9630   50.0360    1.9970 O.2   153  GLN153     -0.2715
     61  CB         9.2290   51.2510    1.7390 C.3   153  GLN153      0.0408
     62  CG         9.1340   52.5180    0.9120 C.3   153  GLN153      0.0908
     63  CD         7.8930   52.5350    0.0290 C.2   153  GLN153      0.2608
     64  OE1        7.9880   52.3710   -1.1920 O.2   153  GLN153     -0.2717
     65  NE2        6.7260   52.7760    0.6360 N.am  153  GLN153     -0.0878
     66  N         11.8930   50.2940   -0.2300 N.am  154  ASN154     -0.1958
     67  CA        13.3590   50.3300   -0.4180 C.3   154  ASN154      0.1819
     68  C         14.1150   49.0070   -0.4790 C.2   154  ASN154      0.2621
     69  O         15.2780   48.9720   -0.8410 O.2   154  ASN154     -0.2715
     70  CB        14.0350   51.1640    0.6610 C.3   154  ASN154      0.1195
     71  CG        13.5640   52.5780    0.6440 C.2   154  ASN154      0.2630
     72  OD1       13.1020   53.0680   -0.3740 O.2   154  ASN154     -0.2716
     73  ND2       13.6240   53.2280    1.7870 N.am  154  ASN154     -0.0877
     74  N         13.5080   47.9140   -0.0700 N.am  155  TYR155     -0.1974
     75  CA        14.2800   46.6930   -0.0320 C.3   155  TYR155      0.1639
     76  C         14.2770   46.0880   -1.4400 C.2   155  TYR155      0.2290
     77  O         15.2410   45.4180   -1.8350 O.2   155  TYR155     -0.2864
     78  CB        13.6720   45.7600    1.0030 C.3   155  TYR155      0.0560
     79  CG        14.5310   44.5960    1.3480 C.ar  155  TYR155     -0.0198
     80  CD1       15.8200   44.7800    1.8140 C.ar  155  TYR155     -0.0009
     81  CD2       14.0240   43.3020    1.2750 C.ar  155  TYR155     -0.0009
     82  CE1       16.5970   43.7180    2.1640 C.ar  155  TYR155      0.0417
     83  CE2       14.8180   42.2120    1.5930 C.ar  155  TYR155      0.0417
     84  CZ        16.1210   42.4250    2.0120 C.ar  155  TYR155      0.1957
     85  OH        16.8960   41.3450    2.3990 O.3   155  TYR155     -0.2866
     86  N         15.9700   43.0390   -3.4540 N.3   158  MET158     -0.1245
     87  CA        16.5880   42.0930   -2.5300 C.3   158  MET158      0.1570
     88  C         15.4720   41.2490   -1.8970 C.2   158  MET158      0.2261
     89  O         15.6820   40.0810   -1.5110 O.2   158  MET158     -0.2867
     90  CB        17.4740   42.7960   -1.4840 C.3   158  MET158      0.0387
     91  CG        18.2480   41.8210   -0.5750 C.3   158  MET158      0.0595
     92  SD        19.3070   40.6460   -1.4750 S.3   158  MET158     -0.1393
     93  CE        20.8490   41.5540   -1.5160 C.3   158  MET158      0.0692
     94  N         15.1840   37.4490   -1.5400 N.3   162  LYS162     -0.1245
     95  CA        14.8860   36.7340   -0.3040 C.3   162  LYS162      0.1561
     96  C         13.6520   35.8510   -0.4370 C.2   162  LYS162      0.2260
     97  O         13.7060   34.7130    0.0080 O.2   162  LYS162     -0.2867
     98  CB        14.7640   37.6710    0.8890 C.3   162  LYS162      0.0271
     99  CG        16.0380   38.4470    1.1710 C.3   162  LYS162      0.0035
    100  CD        17.2330   37.5530    1.4850 C.3   162  LYS162      0.0206
    101  CE        18.3850   38.4170    1.9990 C.3   162  LYS162      0.1093
    102  NZ        19.5070   37.5590    2.4580 N.3   162  LYS162     -0.1314
    103  N         16.1060   40.4670   12.1400 N.3   189  GLY189     -0.1210
    104  CA        15.7310   41.8740   12.1220 C.3   189  GLY189      0.1940
    105  C         16.8850   42.7210   11.6060 C.2   189  GLY189      0.2454
    106  O         17.9680   42.2120   11.3480 O.2   189  GLY189     -0.2732
    107  N         16.6610   44.0270   11.4350 N.am  190  PRO190     -0.2717
    108  CA        17.7310   44.9650   11.0290 C.3   190  PRO190      0.1535
    109  C         18.9160   45.0900   12.0130 C.2   190  PRO190      0.2598
    110  O         18.7290   45.2800   13.2120 O.2   190  PRO190     -0.2715
    111  CB        16.9900   46.3090   10.9110 C.3   190  PRO190      0.0310
    112  CG        15.6980   46.1440   11.7270 C.3   190  PRO190      0.0237
    113  CD        15.3370   44.6730   11.5360 C.3   190  PRO190      0.0939
    114  N         20.1400   45.0340   11.4900 N.am  191  ILE191     -0.1978
    115  CA        21.3500   45.0360   12.3020 C.3   191  ILE191      0.1596
    116  C         22.3300   45.8990   11.5360 C.2   191  ILE191      0.2287
    117  O         22.4830   45.7260   10.3260 O.2   191  ILE191     -0.2864
    118  CB        21.9480   43.6130   12.4750 C.3   191  ILE191      0.0276
    119  CG1       21.0740   42.7190   13.3690 C.3   191  ILE191      0.0022
    120  CG2       23.3140   43.6950   13.1020 C.3   191  ILE191      0.0022
    121  CD1       21.3110   41.2290   13.1540 C.3   191  ILE191      0.0001
    122  N         25.2790   46.6270    9.8140 N.3   193  THR193     -0.1218
    123  CA        26.3860   45.8850    9.2100 C.3   193  THR193      0.1862
    124  C         26.9150   46.6260    7.9880 C.2   193  THR193      0.2287
    125  O         26.2440   47.5190    7.4660 O.2   193  THR193     -0.2866
    126  CB        25.9630   44.4580    8.7930 C.3   193  THR193      0.1770
    127  OG1       25.0860   44.5320    7.6660 O.3   193  THR193     -0.2211
    128  CG2       25.2420   43.7640    9.9300 C.3   193  THR193      0.0375
    129  N         26.9210   45.7230    4.8470 N.3   195  SER195     -0.1202
    130  CA        25.9000   45.6930    3.7990 C.3   195  SER195      0.2020
    131  C         24.6900   46.5740    4.0910 C.2   195  SER195      0.2618
    132  O         24.0950   47.1290    3.1660 O.2   195  SER195     -0.2717
    133  CB        25.3930   44.2730    3.5690 C.3   195  SER195      0.2103
    134  OG        26.3270   43.5150    2.8520 O.3   195  SER195     -0.2182
    135  N         24.2750   46.6330    5.3530 N.am  196  ALA196     -0.1979
    136  CA        23.1830   47.5220    5.7430 C.3   196  ALA196      0.1597
    137  C         23.3500   49.0040    5.3160 C.2   196  ALA196      0.2287
    138  O         22.3620   49.7000    5.0790 O.2   196  ALA196     -0.2864
    139  CB        22.9570   47.4030    7.2250 C.3   196  ALA196      0.0319
    140  N         24.2850   50.0160    2.5030 N.3   198  GLY198     -0.1210
    141  CA        23.7680   50.0860    1.1340 C.3   198  GLY198      0.1956
    142  C         22.2480   50.0510    0.9580 C.2   198  GLY198      0.2612
    143  O         21.7480   50.1980   -0.1620 O.2   198  GLY198     -0.2717
    144  N         21.4970   49.8450    2.0410 N.am  199  VAL199     -0.1965
    145  CA        20.0400   49.8640    1.9660 C.3   199  VAL199      0.1727
    146  C         19.5200   51.2440    2.3450 C.2   199  VAL199      0.2617
    147  O         19.8100   51.7410    3.4320 O.2   199  VAL199     -0.2715
    148  CB        19.4400   48.7940    2.8900 C.3   199  VAL199      0.0290
    149  CG1       17.9470   48.6840    2.6920 C.3   199  VAL199      0.0023
    150  CG2       20.1120   47.4490    2.6290 C.3   199  VAL199      0.0023
    151  N         18.7970   51.8830    1.4310 N.am  200  GLY200     -0.1940
    152  CA        18.1760   53.1640    1.7450 C.3   200  GLY200      0.2014
    153  C         17.1160   53.0030    2.8190 C.2   200  GLY200      0.2639
    154  O         16.3610   52.0390    2.7830 O.2   200  GLY200     -0.2714
    155  N         17.0820   53.9050    3.7990 N.am  201  GLY201     -0.1939
    156  CA        16.0290   53.9080    4.8220 C.3   201  GLY201      0.2014
    157  C         16.3150   53.0600    6.0510 C.2   201  GLY201      0.2638
    158  O         15.4390   52.8270    6.8910 O.2   201  GLY201     -0.2714
    159  N         17.5390   52.5480    6.1310 N.am  202  PHE202     -0.1973
    160  CA        17.9170   51.6330    7.2140 C.3   202  PHE202      0.1639
    161  C         17.7660   52.2460    8.6080 C.2   202  PHE202      0.2290
    162  O         17.2280   51.6060    9.4850 O.2   202  PHE202     -0.2864
    163  CB        19.3500   51.1450    7.0260 C.3   202  PHE202      0.0560
    164  CG        19.8040   50.2010    8.0840 C.ar  202  PHE202     -0.0200
    165  CD1       19.5260   48.8470    7.9670 C.ar  202  PHE202     -0.0042
    166  CD2       20.4780   50.6690    9.2000 C.ar  202  PHE202     -0.0042
    167  CE1       19.9120   47.9480    8.9460 C.ar  202  PHE202     -0.0003
    168  CE2       20.8630   49.7960   10.2060 C.ar  202  PHE202     -0.0003
    169  CZ        20.5740   48.4240   10.0800 C.ar  202  PHE202     -0.0000
    170  N         14.2470   52.4680    9.7660 N.3   205  ILE205     -0.1245
    171  CA        13.7040   51.1430   10.0560 C.3   205  ILE205      0.1561
    172  C         14.1840   50.6420   11.4250 C.2   205  ILE205      0.2260
    173  O         13.3760   50.1270   12.2010 O.2   205  ILE205     -0.2867
    174  CB        13.9220   50.1650    8.8660 C.3   205  ILE205      0.0252
    175  CG1       12.8540   50.4100    7.7970 C.3   205  ILE205      0.0019
    176  CG2       13.7970   48.7260    9.2660 C.3   205  ILE205      0.0019
    177  CD1       11.4140   50.6280    8.3230 C.3   205  ILE205      0.0001
@<TRIPOS>BOND
     1    14    16   ar
     2    14    12   ar
     3    16    15   ar
     4    12    11   ar
     5    22    23    1
     6    19    18    1
     7    19    20    2
     8    24    23    1
     9    24    25    2
    10    18    21    1
    11    18    17    1
    12    23    26    1
    13     9     8    2
    14    15    13   ar
    15    11    13   ar
    16    11    10    1
    17    30    31    1
    18    17     8   am
    19    26    27    1
    20     8     7    1
    21    10     7    1
    22    86    87    1
    23     7     6    1
    24    31    32    1
    25    31    34    1
    26    37    35    1
    27    27    28    1
    28    35    34    1
    29    35    36    1
    30    87    88    1
    31    87    90    1
    32    32    33    2
    33     6     3   am
    34    88    89    2
    35    77    76    2
    36    28    29    1
    37    94    95    1
    38    93    92    1
    39    90    91    1
    40    92    91    1
    41    76    75    1
    42    64    63    2
    43     3     4    2
    44     3     2    1
    45    69    68    2
    46    68    67    1
    47    68    74   am
    48    96    95    1
    49    96    97    2
    50     2     5    1
    51     2     1    1
    52    67    66    1
    53    67    70    1
    54    72    71    2
    55    95    98    1
    56    66    59   am
    57   143   142    2
    58    74    75    1
    59    75    78    1
    60    63    65   am
    61    63    62    1
    62    71    70    1
    63    71    73   am
    64    98    99    1
    65    62    61    1
    66   142   141    1
    67   142   144   am
    68    59    58    1
    69    59    60    2
    70    53    52    2
    71    78    79    1
    72    58    57    1
    73    58    61    1
    74   141   140    1
    75    99   100    1
    76    81    79   ar
    77    81    83   ar
    78    79    80   ar
    79   151   152    1
    80   151   146   am
    81   100   101    1
    82    83    84   ar
    83    52    57   am
    84    52    51    1
    85    50    51    1
    86   152   153    1
    87    80    82   ar
    88   145   144    1
    89   145   146    1
    90   145   148    1
    91   101   102    1
    92    84    82   ar
    93    84    85    1
    94   146   147    2
    95    51    54    1
    96   150   148    1
    97   149   148    1
    98   154   153    2
    99   153   155   am
   100   134   133    1
   101   132   131    2
   102    54    55    1
   103    54    56    1
   104   133   130    1
   105   130   131    1
   106   130   129    1
   107   155   156    1
   108   131   135   am
   109    41    40    2
   110   156   157    1
   111   138   137    2
   112    45    47   ar
   113    45    43   ar
   114    38    39    1
   115   137   136    1
   116   135   136    1
   117    42    39    1
   118    42    43    1
   119    47    48   ar
   120    40    39    1
   121   136   139    1
   122    43    44   ar
   123   157   159   am
   124   157   158    2
   125   159   160    1
   126    48    49    1
   127    48    46   ar
   128   163   160    1
   129   163   164    1
   130   160   161    1
   131    44    46   ar
   132   125   124    2
   133   127   126    1
   134   175   177    1
   135   175   174    1
   136   165   164   ar
   137   165   167   ar
   138   124   123    1
   139   164   166   ar
   140   161   162    2
   141   126   123    1
   142   126   128    1
   143   174   176    1
   144   174   171    1
   145   167   169   ar
   146   166   168   ar
   147   123   122    1
   148   170   171    1
   149   171   172    1
   150   169   168   ar
   151   117   116    2
   152   111   108    1
   153   111   112    1
   154   108   107    1
   155   108   109    1
   156   106   105    2
   157   172   173    2
   158   107   113    1
   159   107   105   am
   160   114   109   am
   161   114   115    1
   162   116   115    1
   163   113   112    1
   164   105   104    1
   165   109   110    2
   166   104   103    1
   167   115   118    1
   168   118   120    1
   169   118   119    1
   170   121   119    1
