@<TRIPOS>MOLECULE
tmp/4d43B03.pdb
 158 148 0 0 0
SMALL
GASTEIGER

@<TRIPOS>ATOM
      1  N        -18.3220   53.4710   -2.9820 N.3    91  SER91      -0.1217
      2  CA       -17.6150   54.7210   -2.7140 C.3    91  SER91       0.1889
      3  C        -17.8110   55.0400   -1.2500 C.2    91  SER91       0.2288
      4  O        -18.2870   56.1390   -0.9010 O.2    91  SER91      -0.2866
      5  CB       -18.1340   55.8640   -3.6030 C.3    91  SER91       0.2089
      6  OG       -17.2110   56.9470   -3.6570 O.3    91  SER91      -0.2183
      7  N        -16.4320   54.7390    2.8210 N.3    93  ALA93      -0.1231
      8  CA       -15.4770   54.4800    3.8840 C.3    93  ALA93       0.1694
      9  C        -15.8060   55.3680    5.0690 C.2    93  ALA93       0.2592
     10  O        -16.4980   56.3710    4.9100 O.2    93  ALA93      -0.2718
     11  CB       -14.1000   54.7280    3.3940 C.3    93  ALA93       0.0304
     12  N        -15.2640   55.0060    6.2260 N.am   94  PHE94      -0.1962
     13  CA       -15.4540   55.7240    7.4570 C.3    94  PHE94       0.1771
     14  C        -14.4140   55.2950    8.5130 C.2    94  PHE94       0.2619
     15  O        -14.0910   54.1220    8.6560 O.2    94  PHE94      -0.2715
     16  CB       -16.8420   55.4120    8.0110 C.3    94  PHE94       0.0574
     17  CG       -17.2370   56.2970    9.1660 C.ar   94  PHE94      -0.0200
     18  CD1      -17.6930   57.5740    8.9340 C.ar   94  PHE94      -0.0042
     19  CD2      -16.9110   55.9270   10.4660 C.ar   94  PHE94      -0.0042
     20  CE1      -17.9820   58.4310   10.0010 C.ar   94  PHE94      -0.0003
     21  CE2      -17.1750   56.7660   11.5400 C.ar   94  PHE94      -0.0003
     22  CZ       -17.7680   57.9930   11.3200 C.ar   94  PHE94      -0.0000
     23  N        -13.9020   56.2550    9.2700 N.am   95  ALA95      -0.1977
     24  CA       -13.1300   55.9580   10.4660 C.3    95  ALA95       0.1597
     25  C        -13.4030   57.0770   11.4650 C.2    95  ALA95       0.2287
     26  O        -13.6440   58.2020   11.0740 O.2    95  ALA95      -0.2864
     27  CB       -11.6010   55.8650   10.1530 C.3    95  ALA95       0.0319
     28  N        -12.7890   60.2150   13.6700 N.3    97  MET97      -0.1245
     29  CA       -11.8350   61.3160   13.8970 C.3    97  MET97       0.1570
     30  C        -10.8130   61.0480   15.0070 C.2    97  MET97       0.2261
     31  O         -9.6250   61.2950   14.8070 O.2    97  MET97      -0.2867
     32  CB       -12.5430   62.6370   14.2120 C.3    97  MET97       0.0387
     33  CG       -13.1430   63.3180   13.0020 C.3    97  MET97       0.0595
     34  SD       -11.9110   64.0500   11.8910 S.3    97  MET97      -0.1393
     35  CE       -12.1610   65.7800   12.3330 C.3    97  MET97       0.0692
     36  N         -8.2800   58.7540   13.7910 N.3   100  LEU100     -0.1245
     37  CA        -7.5790   59.3850   12.6600 C.3   100  LEU100      0.1561
     38  C         -6.6090   60.4880   13.1030 C.2   100  LEU100      0.2260
     39  O         -5.4950   60.5960   12.5730 O.2   100  LEU100     -0.2867
     40  CB        -8.5650   59.9800   11.6330 C.3   100  LEU100      0.0270
     41  CG        -8.9040   59.2120   10.3650 C.3   100  LEU100      0.0019
     42  CD1       -9.6880   60.0750    9.4250 C.3   100  LEU100      0.0001
     43  CD2       -7.6900   58.6150    9.6250 C.3   100  LEU100      0.0001
     44  N         -7.2310   54.8000   -1.9470 N.3   145  TYR145     -0.1241
     45  CA        -6.2620   55.8830   -1.9650 C.3   145  TYR145      0.1605
     46  C         -4.8610   55.2670   -1.6680 C.2   145  TYR145      0.2264
     47  O         -4.7500   54.2070   -1.0790 O.2   145  TYR145     -0.2867
     48  CB        -6.6540   56.9780   -0.9550 C.3   145  TYR145      0.0534
     49  CG        -5.6210   58.0740   -0.7350 C.ar  145  TYR145     -0.0201
     50  CD1       -5.3390   59.0120   -1.7420 C.ar  145  TYR145     -0.0009
     51  CD2       -4.9540   58.2000    0.5030 C.ar  145  TYR145     -0.0009
     52  CE1       -4.4420   60.0490   -1.5450 C.ar  145  TYR145      0.0417
     53  CE2       -3.9660   59.2240    0.7120 C.ar  145  TYR145      0.0417
     54  CZ        -3.7460   60.1520   -0.3100 C.ar  145  TYR145      0.1957
     55  OH        -2.8350   61.1840   -0.1350 O.3   145  TYR145     -0.2866
     56  N          1.0630   57.0770    4.5390 N.3   152  VAL152     -0.1245
     57  CA         0.8860   58.5090    4.2550 C.3   152  VAL152      0.1561
     58  C          0.6250   59.2280    5.5820 C.2   152  VAL152      0.2260
     59  O         -0.2950   58.8710    6.3410 O.2   152  VAL152     -0.2867
     60  CB        -0.2570   58.8360    3.2280 C.3   152  VAL152      0.0252
     61  CG1       -0.5200   60.3680    3.1780 C.3   152  VAL152      0.0019
     62  CG2        0.0730   58.3080    1.7870 C.3   152  VAL152      0.0019
     63  N         -2.9380   59.6300    7.6140 N.3   155  TYR155     -0.1241
     64  CA        -4.0010   58.7750    7.1080 C.3   155  TYR155      0.1605
     65  C         -4.2690   57.5950    8.0430 C.2   155  TYR155      0.2264
     66  O         -5.4150   57.1550    8.1580 O.2   155  TYR155     -0.2867
     67  CB        -3.6510   58.3200    5.7140 C.3   155  TYR155      0.0534
     68  CG        -4.8270   57.8820    4.9030 C.ar  155  TYR155     -0.0201
     69  CD1       -5.9090   58.7250    4.6770 C.ar  155  TYR155     -0.0009
     70  CD2       -4.8090   56.6510    4.2760 C.ar  155  TYR155     -0.0009
     71  CE1       -6.9670   58.3340    3.8500 C.ar  155  TYR155      0.0417
     72  CE2       -5.8590   56.2360    3.4900 C.ar  155  TYR155      0.0417
     73  CZ        -6.9220   57.0800    3.2710 C.ar  155  TYR155      0.1957
     74  OH        -7.9280   56.6260    2.4670 O.3   155  TYR155     -0.2866
     75  N         -7.1850   54.6410    8.4270 N.3   158  MET158     -0.1245
     76  CA        -7.8000   54.4950    7.1090 C.3   158  MET158      0.1570
     77  C         -6.8670   53.8490    6.0720 C.2   158  MET158      0.2261
     78  O         -7.3110   53.1080    5.1930 O.2   158  MET158     -0.2867
     79  CB        -8.3340   55.8540    6.5930 C.3   158  MET158      0.0387
     80  CG        -9.1490   55.7110    5.3030 C.3   158  MET158      0.0595
     81  SD       -10.6500   54.6780    5.5380 S.3   158  MET158     -0.1393
     82  CE       -11.7740   55.9640    6.0990 C.3   158  MET158      0.0692
     83  N         -7.6310   50.6790    3.8030 N.3   162  LYS162     -0.1245
     84  CA        -7.4710   50.6900    2.3500 C.3   162  LYS162      0.1561
     85  C         -6.6080   49.5360    1.9050 C.2   162  LYS162      0.2260
     86  O         -6.8260   49.0320    0.7900 O.2   162  LYS162     -0.2867
     87  CB        -6.9100   52.0220    1.8720 C.3   162  LYS162      0.0271
     88  CG        -7.9910   53.1210    2.1230 C.3   162  LYS162      0.0035
     89  CD        -9.2940   52.8420    1.3750 C.3   162  LYS162      0.0206
     90  CE       -10.1510   54.1090    1.2820 C.3   162  LYS162      0.1093
     91  NZ       -11.4930   53.8450    0.6640 N.3   162  LYS162     -0.1314
     92  N         -6.7200   60.4450   -6.5400 N.3   189  GLY189     -0.1210
     93  CA        -5.8860   61.4960   -5.9390 C.3   189  GLY189      0.1940
     94  C         -6.6720   62.2350   -4.8640 C.2   189  GLY189      0.2454
     95  O         -7.8880   62.1260   -4.8500 O.2   189  GLY189     -0.2732
     96  N         -6.0080   63.0160   -3.9690 N.am  190  PRO190     -0.2717
     97  CA        -6.8340   63.8720   -3.0840 C.3   190  PRO190      0.1535
     98  C         -7.7690   64.8470   -3.8300 C.2   190  PRO190      0.2598
     99  O         -7.3640   65.5690   -4.7690 O.2   190  PRO190     -0.2715
    100  CB        -5.8070   64.6650   -2.2550 C.3   190  PRO190      0.0310
    101  CG        -4.5390   64.6410   -3.0760 C.3   190  PRO190      0.0237
    102  CD        -4.6280   63.5300   -4.1110 C.3   190  PRO190      0.0939
    103  N         -9.0050   64.9150   -3.3430 N.am  191  ILE191     -0.1978
    104  CA       -10.1060   65.6450   -3.9550 C.3   191  ILE191      0.1596
    105  C        -10.9070   66.2820   -2.7940 C.2   191  ILE191      0.2287
    106  O        -11.0960   65.6140   -1.7780 O.2   191  ILE191     -0.2864
    107  CB       -10.9870   64.6730   -4.7650 C.3   191  ILE191      0.0276
    108  CG1      -10.2330   64.1440   -5.9920 C.3   191  ILE191      0.0022
    109  CG2      -12.3460   65.3600   -5.1360 C.3   191  ILE191      0.0022
    110  CD1      -10.9080   62.9990   -6.7850 C.3   191  ILE191      0.0001
    111  N        -13.8210   66.9270   -0.6540 N.3   193  THR193     -0.1218
    112  CA       -15.1440   66.3740   -0.4270 C.3   193  THR193      0.1862
    113  C        -15.4420   66.5840    1.0380 C.2   193  THR193      0.2287
    114  O        -14.5440   66.9340    1.7940 O.2   193  THR193     -0.2866
    115  CB       -15.1530   64.8570   -0.6840 C.3   193  THR193      0.1770
    116  OG1      -14.3010   64.2080    0.2630 O.3   193  THR193     -0.2211
    117  CG2      -14.6760   64.5580   -2.1140 C.3   193  THR193      0.0375
    118  N        -15.7020   64.3690    3.2470 N.3   195  SER195     -0.1202
    119  CA       -14.9440   63.4550    4.0960 C.3   195  SER195      0.2020
    120  C        -13.4530   63.8090    4.1290 C.2   195  SER195      0.2618
    121  O        -12.7140   63.2980    4.9690 O.2   195  SER195     -0.2717
    122  CB       -15.1520   61.9870    3.6600 C.3   195  SER195      0.2103
    123  OG       -16.3990   61.4730    4.1490 O.3   195  SER195     -0.2182
    124  N        -13.0130   64.6790    3.2200 N.am  196  ALA196     -0.1979
    125  CA       -11.6140   65.1050    3.2010 C.3   196  ALA196      0.1597
    126  C        -11.2820   65.9810    4.4180 C.2   196  ALA196      0.2287
    127  O        -10.1140   65.9970    4.8540 O.2   196  ALA196     -0.2864
    128  CB       -11.2300   65.7870    1.8570 C.3   196  ALA196      0.0319
    129  N        -11.6660   65.1940    7.3220 N.3   198  GLY198     -0.1210
    130  CA       -11.2680   64.2970    8.3900 C.3   198  GLY198      0.1956
    131  C         -9.7810   64.0190    8.3110 C.2   198  GLY198      0.2611
    132  O         -9.2040   63.5310    9.2810 O.2   198  GLY198     -0.2717
    133  N         -9.1410   64.2970    7.1730 N.am  199  VAL199     -0.1979
    134  CA        -7.7320   63.9500    7.0770 C.3   199  VAL199      0.1595
    135  C         -6.8950   65.1630    7.5160 C.2   199  VAL199      0.2287
    136  O         -6.9950   66.2190    6.9090 O.2   199  VAL199     -0.2864
    137  CB        -7.3660   63.4190    5.6530 C.3   199  VAL199      0.0276
    138  CG1       -5.8770   63.1400    5.5530 C.3   199  VAL199      0.0022
    139  CG2       -8.1450   62.1530    5.3350 C.3   199  VAL199      0.0022
    140  N         -4.7360   67.8750    4.8150 N.3   202  PHE202     -0.1241
    141  CA        -5.2770   67.7500    3.4530 C.3   202  PHE202      0.1605
    142  C         -4.9220   68.8930    2.4780 C.2   202  PHE202      0.2264
    143  O         -4.5770   68.6450    1.3210 O.2   202  PHE202     -0.2867
    144  CB        -6.7970   67.4880    3.4960 C.3   202  PHE202      0.0534
    145  CG        -7.4370   67.4070    2.1430 C.ar  202  PHE202     -0.0203
    146  CD1       -7.9160   68.5590    1.5230 C.ar  202  PHE202     -0.0042
    147  CD2       -7.5270   66.1920    1.4760 C.ar  202  PHE202     -0.0042
    148  CE1       -8.5360   68.4900    0.3030 C.ar  202  PHE202     -0.0003
    149  CE2       -8.0840   66.1250    0.2240 C.ar  202  PHE202     -0.0003
    150  CZ        -8.5980   67.2750   -0.3610 C.ar  202  PHE202     -0.0000
    151  N         -1.4830   68.2940    1.3720 N.3   205  ILE205     -0.1245
    152  CA        -1.4760   67.1420    0.4360 C.3   205  ILE205      0.1561
    153  C         -1.8780   67.5830   -0.9800 C.2   205  ILE205      0.2260
    154  O         -1.2080   67.2470   -1.9570 O.2   205  ILE205     -0.2867
    155  CB        -2.4030   65.9900    0.9250 C.3   205  ILE205      0.0252
    156  CG1       -1.8500   65.3300    2.1750 C.3   205  ILE205      0.0019
    157  CG2       -2.6710   64.9420   -0.1230 C.3   205  ILE205      0.0019
    158  CD1       -2.9760   64.8180    3.0840 C.3   205  ILE205      0.0001
@<TRIPOS>BOND
     1   110   108    1
     2    92    93    1
     3   108   107    1
     4    93    94    1
     5   109   107    1
     6    94    95    2
     7    94    96   am
     8    99    98    2
     9   107   104    1
    10   102    96    1
    11   102   101    1
    12    96    97    1
    13   104   103    1
    14   104   105    1
    15    98   103   am
    16    98    97    1
    17     6     5    1
    18     5     2    1
    19    97   100    1
    20   101   100    1
    21     1     2    1
    22   105   106    2
    23     2     3    1
    24   117   115    1
    25    45    44    1
    26    45    46    1
    27    45    48    1
    28   154   153    2
    29    50    52   ar
    30    50    49   ar
    31    46    47    2
    32    52    54   ar
    33     3     4    2
    34   153   152    1
    35    48    49    1
    36    49    51   ar
    37   115   112    1
    38   115   116    1
    39   111   112    1
    40   112   113    1
    41   150   149   ar
    42   150   148   ar
    43    54    55    1
    44    54    53   ar
    45   157   155    1
    46   149   147   ar
    47   148   146   ar
    48   152   155    1
    49   152   151    1
    50    51    53   ar
    51    91    90    1
    52    86    85    2
    53   155   156    1
    54   113   114    2
    55    90    89    1
    56   143   142    2
    57    89    88    1
    58   147   145   ar
    59   146   145   ar
    60    62    60    1
    61   128   125    1
    62    87    88    1
    63    87    84    1
    64    85    84    1
    65   145   144    1
    66   156   158    1
    67    84    83    1
    68    74    73    1
    69   142   141    1
    70     7     8    1
    71    61    60    1
    72   125   124    1
    73   125   126    1
    74   124   120   am
    75    60    57    1
    76   118   119    1
    77    73    72   ar
    78    73    71   ar
    79    11     8    1
    80   141   144    1
    81   141   140    1
    82    72    70   ar
    83   122   119    1
    84   122   123    1
    85    71    69   ar
    86     8     9    1
    87   119   120    1
    88   120   121    2
    89    57    56    1
    90    57    58    1
    91    70    68   ar
    92   126   127    2
    93    69    68   ar
    94    68    67    1
    95    10     9    2
    96     9    12   am
    97    78    77    2
    98    80    81    1
    99    80    79    1
   100   139   137    1
   101    81    82    1
   102   138   137    1
   103    58    59    2
   104   137   134    1
   105    67    64    1
   106    77    76    1
   107    12    13    1
   108    79    76    1
   109   136   135    2
   110   134   133    1
   111   134   135    1
   112    64    63    1
   113    64    65    1
   114    76    75    1
   115   133   131   am
   116   129   130    1
   117    13    16    1
   118    13    14    1
   119    16    17    1
   120    65    66    2
   121   131   130    1
   122   131   132    2
   123    14    15    2
   124    14    23   am
   125    18    17   ar
   126    18    20   ar
   127    17    19   ar
   128    23    24    1
   129    42    41    1
   130    43    41    1
   131    20    22   ar
   132    27    24    1
   133    41    40    1
   134    19    21   ar
   135    24    25    1
   136    26    25    2
   137    22    21   ar
   138    40    37    1
   139    34    35    1
   140    34    33    1
   141    39    38    2
   142    37    38    1
   143    37    36    1
   144    33    32    1
   145    28    29    1
   146    29    32    1
   147    29    30    1
   148    31    30    2
