@<TRIPOS>MOLECULE
tmp/4d44B03.pdb
 99 92 0 0 0
SMALL
GASTEIGER

@<TRIPOS>ATOM
      1  N         -7.0650  -59.4960    5.2340 N.3     5  LYS5       -0.1245
      2  CA        -6.1620  -58.5120    4.6120 C.3     5  LYS5        0.1561
      3  C         -5.6500  -59.0470    3.2750 C.2     5  LYS5        0.2260
      4  O         -5.5620  -60.2590    3.0880 O.2     5  LYS5       -0.2867
      5  CB        -4.9460  -58.2250    5.4920 C.3     5  LYS5        0.0271
      6  CG        -5.2440  -57.6670    6.8890 C.3     5  LYS5        0.0035
      7  CD        -6.3050  -56.5640    6.8870 C.3     5  LYS5        0.0206
      8  CE        -6.7140  -56.1190    8.2900 C.3     5  LYS5        0.1093
      9  NZ        -6.2180  -54.7360    8.5600 N.3     5  LYS5       -0.1314
     10  N         -2.3120  -58.4260    0.5490 N.3     7  TYR7       -0.1241
     11  CA        -1.0570  -57.7240    0.2880 C.3     7  TYR7        0.1605
     12  C         -0.4900  -58.1290   -1.0830 C.2     7  TYR7        0.2264
     13  O         -0.6170  -59.2870   -1.4960 O.2     7  TYR7       -0.2867
     14  CB        -0.0230  -58.0850    1.3660 C.3     7  TYR7        0.0534
     15  CG        -0.4400  -57.6070    2.7320 C.ar    7  TYR7       -0.0201
     16  CD1       -0.3760  -56.2530    3.0650 C.ar    7  TYR7       -0.0009
     17  CD2       -0.9890  -58.4940    3.6540 C.ar    7  TYR7       -0.0009
     18  CE1       -0.7950  -55.8110    4.3210 C.ar    7  TYR7        0.0417
     19  CE2       -1.4110  -58.0620    4.8900 C.ar    7  TYR7        0.0417
     20  CZ        -1.3070  -56.7230    5.2170 C.ar    7  TYR7        0.1957
     21  OH        -1.7730  -56.3130    6.4560 O.3     7  TYR7       -0.2866
     22  N         -4.4620  -53.9620    1.3390 N.3    86  ASP86      -0.1239
     23  CA        -3.9980  -53.3420    2.5560 C.3    86  ASP86       0.1674
     24  C         -2.5440  -52.8600    2.5450 C.2    86  ASP86       0.2266
     25  O         -2.0810  -52.2020    3.4850 O.2    86  ASP86      -0.2867
     26  CB        -4.2310  -54.3370    3.6800 C.3    86  ASP86       0.1410
     27  CG        -5.7010  -54.6500    3.8440 C.2    86  ASP86       0.3668
     28  OD1       -6.4100  -53.7630    4.3690 O.co2  86  ASP86      -0.2456
     29  OD2       -6.1660  -55.6960    3.3250 O.co2  86  ASP86      -0.2456
     30  N         -9.1010  -46.5180    2.2600 N.3   136  GLU136     -0.1231
     31  CA        -9.0050  -46.1870    3.6910 C.3   136  GLU136      0.1699
     32  C         -7.6570  -46.3350    4.3880 C.2   136  GLU136      0.2593
     33  O         -7.6360  -46.3350    5.6200 O.2   136  GLU136     -0.2718
     34  CB       -10.0470  -46.8760    4.5650 C.3   136  GLU136      0.0402
     35  CG       -10.3200  -48.2640    4.1830 C.3   136  GLU136      0.1161
     36  CD       -11.6450  -48.2930    3.5000 C.2   136  GLU136      0.3649
     37  OE1      -12.2010  -47.1810    3.3170 O.co2 136  GLU136     -0.2457
     38  OE2      -12.1120  -49.4110    3.1900 O.co2 136  GLU136     -0.2457
     39  N         -6.5740  -46.4210    3.6180 N.am  137  GLY137     -0.1942
     40  CA        -5.2090  -46.3950    4.1670 C.3   137  GLY137      0.2014
     41  C         -4.5820  -47.7670    4.0010 C.2   137  GLY137      0.2639
     42  O         -5.2260  -48.7100    3.5070 O.2   137  GLY137     -0.2714
     43  N         -3.3100  -47.8720    4.3720 N.am  138  GLY138     -0.1939
     44  CA        -2.5780  -49.0840    4.0910 C.3   138  GLY138      0.2014
     45  C         -1.1350  -48.8430    4.4440 C.2   138  GLY138      0.2639
     46  O         -0.7970  -47.8770    5.1250 O.2   138  GLY138     -0.2714
     47  N         -0.3030  -49.7920    4.0550 N.am  139  SER139     -0.1949
     48  CA         1.0730  -49.7880    4.4900 C.3   139  SER139      0.1924
     49  C          1.9400  -50.2540    3.3130 C.2   139  SER139      0.2314
     50  O          1.6770  -51.3020    2.7030 O.2   139  SER139     -0.2863
     51  CB         1.2110  -50.6980    5.6980 C.3   139  SER139      0.2116
     52  OG         2.5840  -50.7170    6.0790 O.3   139  SER139     -0.2180
     53  N         -3.6750  -41.7760    5.2450 N.3   180  ASN180     -0.1240
     54  CA        -3.5380  -42.9520    6.1070 C.3   180  ASN180      0.1653
     55  C         -2.7390  -44.0970    5.4410 C.2   180  ASN180      0.2266
     56  O         -2.9960  -45.2650    5.7100 O.2   180  ASN180     -0.2867
     57  CB        -4.9070  -43.4240    6.6120 C.3   180  ASN180      0.1155
     58  CG        -4.7710  -44.2970    7.8520 C.2   180  ASN180      0.2627
     59  OD1       -3.8190  -44.1640    8.6280 O.2   180  ASN180     -0.2716
     60  ND2       -5.7010  -45.2270    8.0180 N.am  180  ASN180     -0.0877
     61  N          1.0010  -45.5890    5.3060 N.3   182  ARG182     -0.1245
     62  CA         2.3070  -45.4690    5.9550 C.3   182  ARG182      0.1563
     63  C          3.3170  -46.0610    5.0010 C.2   182  ARG182      0.2260
     64  O          2.9780  -46.9400    4.1930 O.2   182  ARG182     -0.2867
     65  CB         2.3130  -46.2760    7.2540 C.3   182  ARG182      0.0307
     66  CG         1.2920  -45.6750    8.2540 C.3   182  ARG182      0.0489
     67  CD         1.3300  -46.3230    9.6530 C.3   182  ARG182      0.2205
     68  NE         0.7910  -47.6880    9.6010 N.pl3 182  ARG182     -0.0865
     69  CZ         1.5020  -48.8040    9.5920 C.cat 182  ARG182      0.5346
     70  NH1        2.8420  -48.7760    9.6160 N.pl3 182  ARG182      0.1354
     71  NH2        0.8610  -49.9650    9.5360 N.pl3 182  ARG182      0.1354
     72  N          3.4000  -54.0610    8.0720 N.3   232  LEU232     -0.1231
     73  CA         2.2190  -54.1290    7.1950 C.3   232  LEU232      0.1693
     74  C          0.9120  -54.2010    7.9570 C.2   232  LEU232      0.2593
     75  O         -0.1570  -54.0690    7.3530 O.2   232  LEU232     -0.2718
     76  CB         2.2730  -55.3540    6.2540 C.3   232  LEU232      0.0284
     77  CG         3.3530  -55.2010    5.1660 C.3   232  LEU232      0.0019
     78  CD1        3.5410  -56.5740    4.4850 C.3   232  LEU232      0.0001
     79  CD2        2.9810  -54.0750    4.1490 C.3   232  LEU232      0.0001
     80  N          0.9760  -54.3580    9.2730 N.am  233  SER233     -0.1938
     81  CA        -0.2440  -54.5550   10.0590 C.3   233  SER233      0.2055
     82  C         -0.5110  -53.3760   10.9980 C.2   233  SER233      0.2643
     83  O          0.2960  -52.4370   11.0660 O.2   233  SER233     -0.2714
     84  CB        -0.0790  -55.8070   10.9140 C.3   233  SER233      0.2130
     85  OG         0.7360  -55.4980   12.0360 O.3   233  SER233     -0.2179
     86  N         -1.6860  -53.3910   11.6340 N.am  234  ASP234     -0.1971
     87  CA        -2.0480  -52.3850   12.6360 C.3   234  ASP234      0.1709
     88  C         -1.0800  -52.3040   13.8240 C.2   234  ASP234      0.2293
     89  O         -1.1330  -51.3390   14.5700 O.2   234  ASP234     -0.2864
     90  CB        -3.4910  -52.6040   13.1410 C.3   234  ASP234      0.1436
     91  CG        -3.9140  -51.5640   14.2030 C.2   234  ASP234      0.3671
     92  OD1       -4.0430  -50.3670   13.8450 O.co2 234  ASP234     -0.2456
     93  OD2       -4.0400  -51.9070   15.4150 O.co2 234  ASP234     -0.2456
     94  N          0.8310  -49.0960   13.7200 N.3   237  SER237     -0.1217
     95  CA         0.1100  -47.8390   13.6800 C.3   237  SER237      0.1889
     96  C          0.9460  -46.7790   14.3940 C.2   237  SER237      0.2288
     97  O          1.7030  -47.0750   15.3290 O.2   237  SER237     -0.2866
     98  CB        -1.3150  -47.9840   14.2290 C.3   237  SER237      0.2089
     99  OG        -1.3980  -47.7090   15.6120 O.3   237  SER237     -0.2183
@<TRIPOS>BOND
     1    13    12    2
     2    12    11    1
     3    11    10    1
     4    11    14    1
     5    22    23    1
     6    14    15    1
     7    30    31    1
     8    24    23    1
     9    24    25    2
    10    23    26    1
    11    50    49    2
    12    15    16   ar
    13    15    17   ar
    14    16    18   ar
    15     4     3    2
    16    38    36   ar
    17     3     2    1
    18    49    48    1
    19    37    36   ar
    20    29    27   ar
    21    36    35    1
    22    42    41    2
    23    39    40    1
    24    39    32   am
    25    17    19   ar
    26    26    27    1
    27    31    32    1
    28    31    34    1
    29    27    28   ar
    30    41    40    1
    31    41    43   am
    32    47    45   am
    33    47    48    1
    34    44    43    1
    35    44    45    1
    36    79    77    1
    37    35    34    1
    38    64    63    2
    39    18    20   ar
    40    32    33    2
    41    45    46    2
    42    78    77    1
    43    48    51    1
    44     2     1    1
    45     2     5    1
    46    19    20   ar
    47    63    62    1
    48    77    76    1
    49    20    21    1
    50    53    54    1
    51    61    62    1
    52    55    56    2
    53    55    54    1
    54     5     6    1
    55    51    52    1
    56    62    65    1
    57    54    57    1
    58    76    73    1
    59    57    58    1
    60     7     6    1
    61     7     8    1
    62    73    74    1
    63    73    72    1
    64    65    66    1
    65    75    74    2
    66    58    60   am
    67    58    59    2
    68    74    80   am
    69    66    67    1
    70     8     9    1
    71    80    81    1
    72    71    69    1
    73    69    68    2
    74    69    70    1
    75    68    67    1
    76    81    84    1
    77    81    82    1
    78    84    85    1
    79    82    83    2
    80    82    86   am
    81    86    87    1
    82    87    90    1
    83    87    88    1
    84    90    91    1
    85    95    94    1
    86    95    98    1
    87    95    96    1
    88    88    89    2
    89    92    91   ar
    90    91    93   ar
    91    98    99    1
    92    96    97    2
