@<TRIPOS>MOLECULE
tmp/4d44B01.pdb
 141 133 0 0 0
SMALL
GASTEIGER

@<TRIPOS>ATOM
      1  N         14.2540  -62.6690   -0.4990 N.3    18  ILE18      -0.1245
      2  CA        13.7570  -62.0380    0.7500 C.3    18  ILE18       0.1561
      3  C         12.2540  -61.9750    0.6880 C.2    18  ILE18       0.2260
      4  O         11.5860  -62.3200    1.6660 O.2    18  ILE18      -0.2867
      5  CB        14.3640  -60.6360    0.9750 C.3    18  ILE18       0.0252
      6  CG1       15.8460  -60.8300    1.2980 C.3    18  ILE18       0.0019
      7  CG2       13.6170  -59.8600    2.1170 C.3    18  ILE18       0.0019
      8  CD1       16.6910  -59.5650    1.4090 C.3    18  ILE18       0.0001
      9  N         15.3130  -54.5610   -6.8200 N.3    93  ALA93      -0.1231
     10  CA        16.4590  -53.7130   -7.1160 C.3    93  ALA93       0.1694
     11  C         17.2360  -54.3600   -8.2340 C.2    93  ALA93       0.2592
     12  O         17.1500  -55.5920   -8.4550 O.2    93  ALA93      -0.2718
     13  CB        17.4020  -53.5650   -5.8700 C.3    93  ALA93       0.0304
     14  N         18.0560  -53.5460   -8.8950 N.am   94  PHE94      -0.1962
     15  CA        18.8920  -54.0990   -9.9710 C.3    94  PHE94       0.1771
     16  C         20.0380  -53.1430  -10.2570 C.2    94  PHE94       0.2619
     17  O         19.8570  -51.9100  -10.2440 O.2    94  PHE94      -0.2715
     18  CB        18.0540  -54.2250  -11.2580 C.3    94  PHE94       0.0574
     19  CG        18.8180  -54.8460  -12.3940 C.ar   94  PHE94      -0.0200
     20  CD1       19.0030  -56.2250  -12.4130 C.ar   94  PHE94      -0.0042
     21  CD2       19.5710  -54.0470  -13.2640 C.ar   94  PHE94      -0.0042
     22  CE1       19.7740  -56.8330  -13.4010 C.ar   94  PHE94      -0.0003
     23  CE2       20.3650  -54.6380  -14.2490 C.ar   94  PHE94      -0.0003
     24  CZ        20.4650  -56.0290  -14.3230 C.ar   94  PHE94      -0.0000
     25  N         21.2280  -53.6800  -10.5270 N.am   95  ALA95      -0.1977
     26  CA        22.3080  -52.8680  -11.1070 C.3    95  ALA95       0.1597
     27  C         23.0950  -53.8340  -11.9850 C.2    95  ALA95       0.2287
     28  O         23.0790  -55.0410  -11.7390 O.2    95  ALA95      -0.2864
     29  CB        23.2210  -52.2900  -10.0080 C.3    95  ALA95       0.0319
     30  N         29.1370  -53.4030   -9.0410 N.3   100  LEU100     -0.1245
     31  CA        29.0090  -53.9910   -7.6910 C.3   100  LEU100      0.1561
     32  C         30.3370  -54.5650   -7.1710 C.2   100  LEU100      0.2260
     33  O         30.3950  -55.4580   -6.2950 O.2   100  LEU100     -0.2867
     34  CB        27.9270  -55.0740   -7.6950 C.3   100  LEU100      0.0270
     35  CG        26.4970  -54.6010   -7.9640 C.3   100  LEU100      0.0019
     36  CD1       25.5260  -55.7700   -8.1250 C.3   100  LEU100      0.0001
     37  CD2       25.9960  -53.6060   -6.8920 C.3   100  LEU100      0.0001
     38  N         19.3650  -51.5880    2.4080 N.3   145  TYR145     -0.1241
     39  CA        20.5430  -52.2210    3.0180 C.3   145  TYR145      0.1605
     40  C         21.3540  -51.0350    3.5630 C.2   145  TYR145      0.2264
     41  O         21.2190  -49.9230    3.0580 O.2   145  TYR145     -0.2867
     42  CB        21.3410  -52.9300    1.9080 C.3   145  TYR145      0.0534
     43  CG        22.6590  -53.5050    2.4200 C.ar  145  TYR145     -0.0201
     44  CD1       22.6780  -54.4390    3.4510 C.ar  145  TYR145     -0.0009
     45  CD2       23.8750  -53.1180    1.8310 C.ar  145  TYR145     -0.0009
     46  CE1       23.8600  -54.8920    3.9460 C.ar  145  TYR145      0.0417
     47  CE2       25.0880  -53.6070    2.2870 C.ar  145  TYR145      0.0417
     48  CZ        25.0590  -54.4990    3.3240 C.ar  145  TYR145      0.1957
     49  OH        26.2180  -54.9990    3.8420 O.3   145  TYR145     -0.2866
     50  N         29.5460  -52.2360   -2.8660 N.3   155  TYR155     -0.1241
     51  CA        28.1060  -52.0940   -3.0590 C.3   155  TYR155      0.1605
     52  C         27.8500  -50.9180   -3.9950 C.2   155  TYR155      0.2264
     53  O         26.8850  -50.9100   -4.7730 O.2   155  TYR155     -0.2867
     54  CB        27.4430  -51.8220   -1.7080 C.3   155  TYR155      0.0534
     55  CG        25.9330  -52.0140   -1.7320 C.ar  155  TYR155     -0.0201
     56  CD1       25.3600  -53.2360   -2.1260 C.ar  155  TYR155     -0.0009
     57  CD2       25.1190  -51.0160   -1.2600 C.ar  155  TYR155     -0.0009
     58  CE1       23.9780  -53.4430   -2.0820 C.ar  155  TYR155      0.0417
     59  CE2       23.7260  -51.2020   -1.1750 C.ar  155  TYR155      0.0417
     60  CZ        23.1880  -52.3950   -1.5740 C.ar  155  TYR155      0.1957
     61  OH        21.8320  -52.5380   -1.4710 O.3   155  TYR155     -0.2866
     62  N         24.7860  -49.4150   -6.0530 N.3   158  MET158     -0.1245
     63  CA        23.5230  -49.7340   -5.3650 C.3   158  MET158      0.1570
     64  C         23.3970  -48.9790   -4.0050 C.2   158  MET158      0.2261
     65  O         22.3100  -48.7470   -3.4780 O.2   158  MET158     -0.2867
     66  CB        23.4650  -51.2660   -5.1270 C.3   158  MET158      0.0387
     67  CG        22.0890  -51.6830   -4.5390 C.3   158  MET158      0.0595
     68  SD        20.6220  -51.1760   -5.5000 S.3   158  MET158     -0.1393
     69  CE        21.1710  -51.6440   -7.0580 C.3   158  MET158      0.0692
     70  N         20.2110  -47.0580   -2.8860 N.3   162  LYS162     -0.1245
     71  CA        19.5160  -47.2830   -1.6220 C.3   162  LYS162      0.1561
     72  C         19.3540  -45.9880   -0.8230 C.2   162  LYS162      0.2260
     73  O         18.3630  -45.8390   -0.1200 O.2   162  LYS162     -0.2867
     74  CB        20.1970  -48.3450   -0.7650 C.3   162  LYS162      0.0271
     75  CG        20.1000  -49.7330   -1.4430 C.3   162  LYS162      0.0035
     76  CD        18.6400  -50.2300   -1.6790 C.3   162  LYS162      0.0206
     77  CE        18.6850  -51.7670   -2.0040 C.3   162  LYS162      0.1093
     78  NZ        17.2600  -52.2400   -2.2630 N.3   162  LYS162     -0.1314
     79  N         20.0020  -57.3060    6.8800 N.3   189  GLY189     -0.1210
     80  CA        21.4000  -57.7010    6.8590 C.3   189  GLY189      0.1940
     81  C         21.6340  -58.6170    5.6670 C.2   189  GLY189      0.2454
     82  O         20.7040  -58.9270    4.9180 O.2   189  GLY189     -0.2732
     83  N         22.9140  -58.9300    5.3880 N.am  190  PRO190     -0.2717
     84  CA        23.1710  -59.7360    4.1860 C.3   190  PRO190      0.1535
     85  C         22.5780  -61.1320    4.2740 C.2   190  PRO190      0.2598
     86  O         22.6460  -61.8020    5.3410 O.2   190  PRO190     -0.2715
     87  CB        24.7060  -59.7860    4.0960 C.3   190  PRO190      0.0310
     88  CG        25.1690  -59.6080    5.5990 C.3   190  PRO190      0.0237
     89  CD        24.1330  -58.6110    6.1620 C.3   190  PRO190      0.0939
     90  N         21.9740  -61.5290    3.1520 N.am  191  ILE191     -0.1978
     91  CA        21.3120  -62.8170    3.0100 C.3   191  ILE191      0.1596
     92  C         21.6940  -63.4200    1.6500 C.2   191  ILE191      0.2287
     93  O         21.6680  -62.7180    0.6350 O.2   191  ILE191     -0.2864
     94  CB        19.7760  -62.6870    3.1860 C.3   191  ILE191      0.0276
     95  CG1       19.4570  -62.0500    4.5480 C.3   191  ILE191      0.0022
     96  CG2       19.1600  -64.1050    2.9990 C.3   191  ILE191      0.0022
     97  CD1       17.9630  -61.6140    4.7300 C.3   191  ILE191      0.0001
     98  N         21.1940  -64.7030   -1.5980 N.3   193  THR193     -0.1218
     99  CA        20.0900  -64.7590   -2.5520 C.3   193  THR193      0.1862
    100  C         20.7060  -64.6980   -3.9480 C.2   193  THR193      0.2287
    101  O         21.9050  -64.4340   -4.1090 O.2   193  THR193     -0.2866
    102  CB        19.1550  -63.5070   -2.4100 C.3   193  THR193      0.1770
    103  OG1       19.9120  -62.3380   -2.7110 O.3   193  THR193     -0.2211
    104  CG2       18.5390  -63.3660   -0.9960 C.3   193  THR193      0.0375
    105  N         20.5500  -62.2500   -6.0350 N.3   195  SER195     -0.1202
    106  CA        21.0930  -60.9110   -6.2710 C.3   195  SER195      0.2020
    107  C         22.3900  -60.6880   -5.5000 C.2   195  SER195      0.2618
    108  O         23.2640  -59.9310   -5.9290 O.2   195  SER195     -0.2717
    109  CB        20.0400  -59.8320   -5.8990 C.3   195  SER195      0.2103
    110  OG        19.0880  -59.7420   -6.9770 O.3   195  SER195     -0.2182
    111  N         22.5670  -61.4060   -4.3970 N.am  196  ALA196     -0.1979
    112  CA        23.7990  -61.2750   -3.6200 C.3   196  ALA196      0.1597
    113  C         25.0210  -61.7070   -4.4300 C.2   196  ALA196      0.2287
    114  O         26.1190  -61.2070   -4.2020 O.2   196  ALA196     -0.2864
    115  CB        23.7190  -62.0750   -2.3120 C.3   196  ALA196      0.0319
    116  N         27.1320  -58.8310   -5.5560 N.3   199  VAL199     -0.1245
    117  CA        27.9470  -57.9990   -4.6910 C.3   199  VAL199      0.1561
    118  C         29.3470  -58.6040   -4.4310 C.2   199  VAL199      0.2260
    119  O         29.4680  -59.6700   -3.8200 O.2   199  VAL199     -0.2867
    120  CB        27.2250  -57.7360   -3.3500 C.3   199  VAL199      0.0252
    121  CG1       28.1000  -56.8510   -2.4610 C.3   199  VAL199      0.0019
    122  CG2       25.8240  -57.1060   -3.5620 C.3   199  VAL199      0.0019
    123  N         30.8550  -60.6190   -1.0550 N.3   202  PHE202     -0.1241
    124  CA        29.7010  -60.9990   -0.2460 C.3   202  PHE202      0.1605
    125  C         30.0120  -61.9700    0.9100 C.2   202  PHE202      0.2264
    126  O         29.4740  -61.7880    1.9930 O.2   202  PHE202     -0.2867
    127  CB        28.5590  -61.5690   -1.1220 C.3   202  PHE202      0.0534
    128  CG        27.3390  -61.9080   -0.3300 C.ar  202  PHE202     -0.0203
    129  CD1       26.4200  -60.9190    0.0350 C.ar  202  PHE202     -0.0042
    130  CD2       27.0960  -63.2320    0.0640 C.ar  202  PHE202     -0.0042
    131  CE1       25.3370  -61.2570    0.8140 C.ar  202  PHE202     -0.0003
    132  CE2       25.9640  -63.5550    0.8080 C.ar  202  PHE202     -0.0003
    133  CZ        25.1300  -62.5430    1.2250 C.ar  202  PHE202     -0.0000
    134  N         31.3460  -60.2250    3.8240 N.3   205  ILE205     -0.1245
    135  CA        30.3460  -59.3870    4.5000 C.3   205  ILE205      0.1561
    136  C         29.5770  -60.2530    5.4780 C.2   205  ILE205      0.2260
    137  O         29.3510  -59.8530    6.6190 O.2   205  ILE205     -0.2867
    138  CB        29.3910  -58.7040    3.4800 C.3   205  ILE205      0.0252
    139  CG1       30.1640  -57.7140    2.6130 C.3   205  ILE205      0.0019
    140  CG2       28.2280  -57.9830    4.1690 C.3   205  ILE205      0.0019
    141  CD1       29.3000  -57.1070    1.5020 C.3   205  ILE205      0.0001
@<TRIPOS>BOND
     1    24    23   ar
     2    24    22   ar
     3    23    21   ar
     4    22    20   ar
     5    21    19   ar
     6    20    19   ar
     7    19    18    1
     8    27    28    2
     9    27    26    1
    10    18    15    1
    11    26    25    1
    12    26    29    1
    13    25    16   am
    14    16    17    2
    15    16    15    1
    16    15    14    1
    17    30    31    1
    18    14    11   am
    19    12    11    2
    20    11    10    1
    21    36    35    1
    22    35    34    1
    23    35    37    1
    24    34    31    1
    25    31    32    1
    26    32    33    2
    27    10     9    1
    28    10    13    1
    29    69    68    1
    30   110   109    1
    31   106   105    1
    32   106   109    1
    33   106   107    1
    34    62    63    1
    35   108   107    2
    36   116   117    1
    37   107   111   am
    38    68    67    1
    39    63    66    1
    40    63    64    1
    41    66    67    1
    42    53    52    2
    43   117   118    1
    44   117   120    1
    45   118   119    2
    46   113   114    2
    47   113   112    1
    48   111   112    1
    49   101   100    2
    50    64    65    2
    51    52    51    1
    52   100    99    1
    53   112   115    1
    54   122   120    1
    55   120   121    1
    56    51    50    1
    57    51    54    1
    58    70    71    1
    59   103   102    1
    60    99   102    1
    61    99    98    1
    62   102   104    1
    63    78    77    1
    64    56    58   ar
    65    56    55   ar
    66    58    60   ar
    67    77    76    1
    68    55    54    1
    69    55    57   ar
    70    76    75    1
    71    71    72    1
    72    71    74    1
    73    60    61    1
    74    60    59   ar
    75    75    74    1
    76    57    59   ar
    77   127   128    1
    78   127   124    1
    79   123   124    1
    80    72    73    2
    81     1     2    1
    82   128   129   ar
    83   128   130   ar
    84   124   125    1
    85   129   131   ar
    86   130   132   ar
    87    93    92    2
    88     3     2    1
    89     3     4    2
    90     2     5    1
    91   132   133   ar
    92   131   133   ar
    93   125   126    2
    94     5     6    1
    95     5     7    1
    96     6     8    1
    97   141   139    1
    98    92    91    1
    99    45    47   ar
   100    45    43   ar
   101    42    43    1
   102    42    39    1
   103    47    48   ar
   104    38    39    1
   105    43    44   ar
   106   139   138    1
   107    96    94    1
   108    91    90    1
   109    91    94    1
   110    39    40    1
   111    41    40    2
   112    90    85   am
   113    94    95    1
   114    48    49    1
   115    48    46   ar
   116    44    46   ar
   117   138   140    1
   118   138   135    1
   119   134   135    1
   120    87    84    1
   121    87    88    1
   122    84    85    1
   123    84    83    1
   124    85    86    2
   125   135   136    1
   126    95    97    1
   127    82    81    2
   128    83    81   am
   129    83    89    1
   130   136   137    2
   131    88    89    1
   132    81    80    1
   133    80    79    1
