@<TRIPOS>MOLECULE
tmp/4d45A02.pdb
 151 144 0 0 0
SMALL
GASTEIGER

@<TRIPOS>ATOM
      1  N         27.5520  -27.5910   -9.0490 N.3    91  SER91      -0.1202
      2  CA        26.4830  -26.7540   -8.5480 C.3    91  SER91       0.2020
      3  C         25.3340  -26.8300   -9.5410 C.2    91  SER91       0.2619
      4  O         24.8400  -25.7920  -10.0130 O.2    91  SER91      -0.2717
      5  CB        26.9670  -25.3130   -8.3480 C.3    91  SER91       0.2103
      6  OG        26.1720  -24.6140   -7.3950 O.3    91  SER91      -0.2182
      7  N         24.9400  -28.0660   -9.8690 N.am   92  ILE92      -0.1965
      8  CA        24.0340  -28.3170  -10.9860 C.3    92  ILE92       0.1727
      9  C         22.8710  -29.2310  -10.6150 C.2    92  ILE92       0.2616
     10  O         23.0690  -30.3030  -10.0370 O.2    92  ILE92      -0.2715
     11  CB        24.7910  -28.9120  -12.2070 C.3    92  ILE92       0.0290
     12  CG1       25.7360  -27.8760  -12.8160 C.3    92  ILE92       0.0022
     13  CG2       23.7900  -29.4730  -13.2460 C.3    92  ILE92       0.0023
     14  CD1       26.6720  -28.4790  -13.8770 C.3    92  ILE92       0.0001
     15  N         21.6580  -28.8110  -10.9690 N.am   93  ALA93      -0.1963
     16  CA        20.5030  -29.6700  -10.8060 C.3    93  ALA93       0.1728
     17  C         19.4090  -29.2040  -11.7610 C.2    93  ALA93       0.2616
     18  O         19.4230  -28.0540  -12.1640 O.2    93  ALA93      -0.2715
     19  CB        20.0080  -29.6510   -9.3560 C.3    93  ALA93       0.0334
     20  N         18.4530  -30.0780  -12.0690 N.am   94  PHE94      -0.1960
     21  CA        17.2830  -29.7220  -12.8860 C.3    94  PHE94       0.1771
     22  C         16.1390  -30.7200  -12.6700 C.2    94  PHE94       0.2619
     23  O         16.3890  -31.8990  -12.4870 O.2    94  PHE94      -0.2715
     24  CB        17.6630  -29.6940  -14.3800 C.3    94  PHE94       0.0574
     25  CG        16.5710  -29.1520  -15.2710 C.ar   94  PHE94      -0.0200
     26  CD1       16.4030  -27.7850  -15.4030 C.ar   94  PHE94      -0.0042
     27  CD2       15.5910  -30.0090  -15.8010 C.ar   94  PHE94      -0.0042
     28  CE1       15.3500  -27.2410  -16.1310 C.ar   94  PHE94      -0.0003
     29  CE2       14.5200  -29.4890  -16.5270 C.ar   94  PHE94      -0.0003
     30  CZ        14.4060  -28.0990  -16.7110 C.ar   94  PHE94      -0.0000
     31  N         14.8930  -30.2840  -12.8660 N.am   95  ALA95      -0.1977
     32  CA        13.7370  -31.1660  -12.8710 C.3    95  ALA95       0.1597
     33  C         12.6380  -30.3710  -13.5710 C.2    95  ALA95       0.2287
     34  O         12.6380  -29.1450  -13.5080 O.2    95  ALA95      -0.2864
     35  CB        13.3330  -31.4890  -11.4660 C.3    95  ALA95       0.0319
     36  N          7.6850  -31.3520  -10.4940 N.3   100  LEU100     -0.1245
     37  CA         7.8240  -30.6230   -9.2230 C.3   100  LEU100      0.1561
     38  C          6.5100  -30.1090   -8.6130 C.2   100  LEU100      0.2260
     39  O          6.3180  -30.1870   -7.3880 O.2   100  LEU100     -0.2867
     40  CB         8.7680  -29.4280   -9.3920 C.3   100  LEU100      0.0270
     41  CG        10.2640  -29.7080   -9.3900 C.3   100  LEU100      0.0019
     42  CD1       11.0270  -28.4210   -9.5670 C.3   100  LEU100      0.0001
     43  CD2       10.7120  -30.3780   -8.0770 C.3   100  LEU100      0.0001
     44  N         20.6370  -30.6220   -0.9250 N.3   145  TYR145     -0.1241
     45  CA        19.7080  -29.9580   -0.0650 C.3   145  TYR145      0.1605
     46  C         19.0890  -30.9720    0.9160 C.2   145  TYR145      0.2264
     47  O         18.9500  -32.1620    0.6210 O.2   145  TYR145     -0.2867
     48  CB        18.6450  -29.2740   -0.9310 C.3   145  TYR145      0.0534
     49  CG        17.5920  -28.5750   -0.1560 C.ar  145  TYR145     -0.0201
     50  CD1       17.9110  -27.4990    0.6550 C.ar  145  TYR145     -0.0009
     51  CD2       16.2730  -29.0130   -0.2100 C.ar  145  TYR145     -0.0009
     52  CE1       16.9450  -26.8750    1.4250 C.ar  145  TYR145      0.0417
     53  CE2       15.2810  -28.3860    0.5350 C.ar  145  TYR145      0.0417
     54  CZ        15.6370  -27.3270    1.3530 C.ar  145  TYR145      0.1957
     55  OH        14.6770  -26.7200    2.1190 O.3   145  TYR145     -0.2866
     56  N          9.2970  -30.4030   -2.8680 N.3   155  TYR155     -0.1241
     57  CA        10.6080  -30.7380   -3.3810 C.3   155  TYR155      0.1605
     58  C         10.5900  -32.0130   -4.2010 C.2   155  TYR155      0.2264
     59  O         11.4460  -32.2130   -5.0770 O.2   155  TYR155     -0.2867
     60  CB        11.5970  -30.8800   -2.2370 C.3   155  TYR155      0.0534
     61  CG        13.0060  -30.6100   -2.6770 C.ar  155  TYR155     -0.0201
     62  CD1       13.3600  -29.4310   -3.3390 C.ar  155  TYR155     -0.0009
     63  CD2       14.0080  -31.5010   -2.3590 C.ar  155  TYR155     -0.0009
     64  CE1       14.6740  -29.2250   -3.7460 C.ar  155  TYR155      0.0417
     65  CE2       15.3170  -31.2810   -2.7110 C.ar  155  TYR155      0.0417
     66  CZ        15.6620  -30.1520   -3.3760 C.ar  155  TYR155      0.1957
     67  OH        17.0180  -30.0150   -3.7060 O.3   155  TYR155     -0.2866
     68  N         12.9680  -33.8370   -6.8720 N.3   158  MET158     -0.1245
     69  CA        14.3170  -33.3170   -6.6520 C.3   158  MET158      0.1570
     70  C         14.8430  -33.9310   -5.3390 C.2   158  MET158      0.2261
     71  O         16.0440  -34.1870   -5.2010 O.2   158  MET158     -0.2867
     72  CB        14.3300  -31.7820   -6.5920 C.3   158  MET158      0.0387
     73  CG        15.7800  -31.1790   -6.5470 C.3   158  MET158      0.0595
     74  SD        16.8110  -31.7230   -7.9270 S.3   158  MET158     -0.1393
     75  CE        16.2180  -30.5860   -9.1830 C.3   158  MET158      0.0692
     76  N         18.4660  -35.7180   -5.0410 N.3   162  LYS162     -0.1245
     77  CA        19.4630  -35.4030   -4.0200 C.3   162  LYS162      0.1561
     78  C         19.8010  -36.5790   -3.1060 C.2   162  LYS162      0.2260
     79  O         20.9670  -36.7400   -2.7390 O.2   162  LYS162     -0.2867
     80  CB        19.0140  -34.1900   -3.1710 C.3   162  LYS162      0.0271
     81  CG        18.8370  -32.9110   -4.0050 C.3   162  LYS162      0.0035
     82  CD        20.1460  -32.4670   -4.6690 C.3   162  LYS162      0.0206
     83  CE        19.9500  -31.1120   -5.3790 C.3   162  LYS162      0.1093
     84  NZ        21.2810  -30.5360   -5.7650 N.3   162  LYS162     -0.1314
     85  N         21.3580  -24.3130    3.0060 N.3   189  GLY189     -0.1210
     86  CA        20.0590  -23.7550    3.3060 C.3   189  GLY189      0.1940
     87  C         19.4050  -23.0980    2.1120 C.2   189  GLY189      0.2454
     88  O         20.0420  -22.9040    1.0710 O.2   189  GLY189     -0.2732
     89  N         18.1030  -22.7940    2.2350 N.am  190  PRO190     -0.2717
     90  CA        17.4150  -22.0790    1.1590 C.3   190  PRO190      0.1535
     91  C         18.0340  -20.7090    0.8610 C.2   190  PRO190      0.2598
     92  O         18.2790  -19.9260    1.7740 O.2   190  PRO190     -0.2715
     93  CB        15.9750  -21.9720    1.6620 C.3   190  PRO190      0.0310
     94  CG        16.0310  -22.3010    3.1560 C.3   190  PRO190      0.0237
     95  CD        17.1870  -23.2370    3.3030 C.3   190  PRO190      0.0939
     96  N         18.3630  -20.4710   -0.4060 N.am  191  ILE191     -0.1978
     97  CA        18.9310  -19.2150   -0.8760 C.3   191  ILE191      0.1596
     98  C         18.2040  -18.7600   -2.1470 C.2   191  ILE191      0.2287
     99  O         17.9950  -19.5670   -3.0470 O.2   191  ILE191     -0.2864
    100  CB        20.4420  -19.3580   -1.1320 C.3   191  ILE191      0.0276
    101  CG1       21.1680  -19.7580    0.1570 C.3   191  ILE191      0.0022
    102  CG2       21.0220  -18.0340   -1.6360 C.3   191  ILE191      0.0022
    103  CD1       22.5420  -20.3400   -0.0890 C.3   191  ILE191      0.0001
    104  N         17.6420  -17.8000   -5.5870 N.3   193  THR193     -0.1218
    105  CA        18.4030  -17.8840   -6.8270 C.3   193  THR193      0.1862
    106  C         17.3960  -18.1100   -7.9330 C.2   193  THR193      0.2287
    107  O         16.2100  -18.3260   -7.6650 O.2   193  THR193     -0.2866
    108  CB        19.3450  -19.1380   -6.8320 C.3   193  THR193      0.1770
    109  OG1       18.5360  -20.3000   -6.7390 O.3   193  THR193     -0.2211
    110  CG2       20.3210  -19.1390   -5.6610 C.3   193  THR193      0.0375
    111  N         17.0200  -20.8130   -9.7790 N.3   195  SER195     -0.1202
    112  CA        16.4000  -22.1330   -9.6900 C.3   195  SER195      0.2020
    113  C         15.4830  -22.3120   -8.4760 C.2   195  SER195      0.2618
    114  O         14.5360  -23.1130   -8.5140 O.2   195  SER195     -0.2717
    115  CB        17.4620  -23.2460   -9.7560 C.3   195  SER195      0.2103
    116  OG        18.0050  -23.2630  -11.0840 O.3   195  SER195     -0.2182
    117  N         15.7210  -21.5190   -7.4310 N.am  196  ALA196     -0.1979
    118  CA        14.8160  -21.5140   -6.2890 C.3   196  ALA196      0.1597
    119  C         13.3480  -21.2200   -6.6640 C.2   196  ALA196      0.2287
    120  O         12.4050  -21.6290   -5.9630 O.2   196  ALA196     -0.2864
    121  CB        15.3470  -20.5650   -5.2030 C.3   196  ALA196      0.0319
    122  N         11.7310  -22.6620   -8.9850 N.3   198  GLY198     -0.1210
    123  CA        11.0530  -23.9330   -9.2560 C.3   198  GLY198      0.1956
    124  C         10.6010  -24.6970   -8.0220 C.2   198  GLY198      0.2611
    125  O          9.9640  -25.7570   -8.1220 O.2   198  GLY198     -0.2717
    126  N         10.8680  -24.1330   -6.8510 N.am  199  VAL199     -0.1979
    127  CA        10.4600  -24.7610   -5.5970 C.3   199  VAL199      0.1595
    128  C          9.2030  -24.0820   -5.0270 C.2   199  VAL199      0.2287
    129  O          9.2930  -23.0000   -4.4660 O.2   199  VAL199     -0.2864
    130  CB        11.6490  -24.7630   -4.5790 C.3   199  VAL199      0.0276
    131  CG1       11.1990  -25.2200   -3.2090 C.3   199  VAL199      0.0022
    132  CG2       12.7650  -25.6780   -5.0540 C.3   199  VAL199      0.0022
    133  N          8.5890  -21.4570   -1.7110 N.3   202  PHE202     -0.1241
    134  CA         9.9390  -21.0700   -1.3060 C.3   202  PHE202      0.1605
    135  C          9.9900  -19.9890   -0.2100 C.2   202  PHE202      0.2264
    136  O         10.6940  -20.1520    0.7700 O.2   202  PHE202     -0.2867
    137  CB        10.8300  -20.7250   -2.5140 C.3   202  PHE202      0.0534
    138  CG        12.2720  -20.5330   -2.1690 C.ar  202  PHE202     -0.0203
    139  CD1       13.1170  -21.6430   -1.9600 C.ar  202  PHE202     -0.0042
    140  CD2       12.7960  -19.2660   -2.0460 C.ar  202  PHE202     -0.0042
    141  CE1       14.4700  -21.4780   -1.6650 C.ar  202  PHE202     -0.0003
    142  CE2       14.1720  -19.0830   -1.7270 C.ar  202  PHE202     -0.0003
    143  CZ        14.9790  -20.2000   -1.5160 C.ar  202  PHE202     -0.0000
    144  N          9.6870  -21.4800    3.1480 N.3   205  ILE205     -0.1245
    145  CA        10.8790  -22.2270    3.6080 C.3   205  ILE205      0.1561
    146  C         11.8900  -21.2820    4.2520 C.2   205  ILE205      0.2260
    147  O         12.4730  -21.5660    5.2920 O.2   205  ILE205     -0.2867
    148  CB        11.5310  -23.0490    2.4400 C.3   205  ILE205      0.0252
    149  CG1       10.5190  -24.0630    1.8800 C.3   205  ILE205      0.0019
    150  CG2       12.7660  -23.7900    2.8780 C.3   205  ILE205      0.0019
    151  CD1       11.0030  -24.8210    0.6300 C.3   205  ILE205      0.0001
@<TRIPOS>BOND
     1    30    29   ar
     2    30    28   ar
     3    29    27   ar
     4    28    26   ar
     5    27    25   ar
     6    26    25   ar
     7    25    24    1
     8    24    21    1
     9    14    12    1
    10    33    34    2
    11    33    32    1
    12    13    11    1
    13    21    22    1
    14    21    20    1
    15    32    31    1
    16    32    35    1
    17    31    22   am
    18    12    11    1
    19    22    23    2
    20    11     8    1
    21    18    17    2
    22    20    17   am
    23    17    16    1
    24   116   115    1
    25     8     9    1
    26     8     7    1
    27    15    16    1
    28    15     9   am
    29    16    19    1
    30     9    10    2
    31    36    37    1
    32     4     3    2
    33     7     3   am
    34   111   112    1
    35   115   112    1
    36   112   113    1
    37    42    41    1
    38     3     2    1
    39    40    41    1
    40    40    37    1
    41    41    43    1
    42   123   122    1
    43   123   124    1
    44    37    38    1
    45    75    74    1
    46     1     2    1
    47    38    39    2
    48     2     5    1
    49   114   113    2
    50   113   117   am
    51     5     6    1
    52   125   124    2
    53   124   126   am
    54   106   107    2
    55   106   105    1
    56    74    73    1
    57   117   118    1
    58    68    69    1
    59   126   127    1
    60   108   105    1
    61   108   109    1
    62   108   110    1
    63   105   104    1
    64   119   118    1
    65   119   120    2
    66    69    72    1
    67    69    70    1
    68    72    73    1
    69   118   121    1
    70    84    83    1
    71   127   128    1
    72   127   130    1
    73    83    82    1
    74    70    71    2
    75    59    58    2
    76   132   130    1
    77    76    77    1
    78   128   129    2
    79    82    81    1
    80   130   131    1
    81    58    57    1
    82    77    80    1
    83    77    78    1
    84    81    80    1
    85    64    66   ar
    86    64    62   ar
    87    67    66    1
    88    57    56    1
    89    57    60    1
    90    66    65   ar
    91    62    61   ar
    92    78    79    2
    93    99    98    2
    94    65    63   ar
    95    61    63   ar
    96    61    60    1
    97   137   138    1
    98   137   134    1
    99   138   140   ar
   100   138   139   ar
   101    98    97    1
   102   140   142   ar
   103   139   141   ar
   104   142   143   ar
   105   133   134    1
   106   141   143   ar
   107   102   100    1
   108   134   135    1
   109   100    97    1
   110   100   101    1
   111    48    49    1
   112    48    45    1
   113    44    45    1
   114    97    96    1
   115    96    91   am
   116   135   136    2
   117    51    49   ar
   118    51    53   ar
   119    49    50   ar
   120   103   101    1
   121    45    46    1
   122    53    54   ar
   123    47    46    2
   124   151   149    1
   125    50    52   ar
   126    91    90    1
   127    91    92    2
   128    88    87    2
   129    90    93    1
   130    90    89    1
   131    54    52   ar
   132    54    55    1
   133    93    94    1
   134   149   148    1
   135    87    89   am
   136    87    86    1
   137    89    95    1
   138   148   150    1
   139   148   145    1
   140    85    86    1
   141   144   145    1
   142    94    95    1
   143   145   146    1
   144   146   147    2
