@<TRIPOS>MOLECULE
tmp/4d46A01.pdb
 102 99 0 0 0
SMALL
GASTEIGER

@<TRIPOS>ATOM
      1  N        -21.6870   27.5170  -14.6720 N.3    90  SER90      -0.1202
      2  CA       -22.4660   26.7110  -13.7340 C.3    90  SER90       0.2020
      3  C        -22.6940   27.4660  -12.4270 C.2    90  SER90       0.2619
      4  O        -22.2710   27.0290  -11.3370 O.2    90  SER90      -0.2717
      5  CB       -21.7940   25.3560  -13.4930 C.3    90  SER90       0.2103
      6  OG       -22.6090   24.4890  -12.7360 O.3    90  SER90      -0.2182
      7  N        -23.4130   28.5840  -12.5840 N.am   91  ILE91      -0.1965
      8  CA       -23.5430   29.6060  -11.5580 C.3    91  ILE91       0.1727
      9  C        -24.9840   30.0190  -11.4510 C.2    91  ILE91       0.2617
     10  O        -25.6090   30.3250  -12.4750 O.2    91  ILE91      -0.2715
     11  CB       -22.7330   30.8800  -11.9230 C.3    91  ILE91       0.0290
     12  CG1      -21.2280   30.5730  -11.7850 C.3    91  ILE91       0.0022
     13  CG2      -23.1320   32.0280  -11.0330 C.3    91  ILE91       0.0023
     14  CD1      -20.3130   31.4970  -12.5910 C.3    91  ILE91       0.0001
     15  N        -25.5070   30.0550  -10.2330 N.am   92  GLY92      -0.1940
     16  CA       -26.8990   30.4960  -10.0020 C.3    92  GLY92       0.2014
     17  C        -26.9910   31.1580   -8.6310 C.2    92  GLY92       0.2639
     18  O        -26.2970   30.7330   -7.7040 O.2    92  GLY92      -0.2714
     19  N        -27.7740   32.2360   -8.5080 N.am   93  PHE93      -0.1959
     20  CA       -28.0040   32.8130   -7.1920 C.3    93  PHE93       0.1771
     21  C        -29.2340   33.6840   -7.1600 C.2    93  PHE93       0.2619
     22  O        -29.4950   34.4240   -8.1200 O.2    93  PHE93      -0.2715
     23  CB       -26.8260   33.6750   -6.7340 C.3    93  PHE93       0.0574
     24  CG       -27.0140   34.2510   -5.3450 C.ar   93  PHE93      -0.0200
     25  CD1      -26.8290   33.4550   -4.2120 C.ar   93  PHE93      -0.0042
     26  CD2      -27.3290   35.5980   -5.1770 C.ar   93  PHE93      -0.0042
     27  CE1      -27.0360   33.9800   -2.9340 C.ar   93  PHE93      -0.0003
     28  CE2      -27.5370   36.1420   -3.8990 C.ar   93  PHE93      -0.0003
     29  CZ       -27.3540   35.3390   -2.7710 C.ar   93  PHE93      -0.0000
     30  N        -29.9560   33.5950   -6.0370 N.am   94  ALA94      -0.1977
     31  CA       -30.9400   34.6060   -5.6480 C.3    94  ALA94       0.1597
     32  C        -30.8720   34.7130   -4.1380 C.2    94  ALA94       0.2287
     33  O        -30.6240   33.6930   -3.5060 O.2    94  ALA94      -0.2864
     34  CB       -32.3380   34.2310   -6.1310 C.3    94  ALA94       0.0319
     35  N        -36.8670   32.7490   -2.2590 N.3    99  LEU99      -0.1245
     36  CA       -37.3210   31.3660   -2.4390 C.3    99  LEU99       0.1561
     37  C        -38.3430   30.8470   -1.4040 C.2    99  LEU99       0.2260
     38  O        -38.5210   29.6590   -1.2570 O.2    99  LEU99      -0.2867
     39  CB       -36.1150   30.4420   -2.4920 C.3    99  LEU99       0.0270
     40  CG       -35.0210   30.9610   -3.4430 C.3    99  LEU99       0.0019
     41  CD1      -33.8180   29.9640   -3.4310 C.3    99  LEU99       0.0001
     42  CD2      -35.4970   31.2810   -4.8690 C.3    99  LEU99       0.0001
     43  N        -32.9160   24.8770  -15.6570 N.3   145  TYR145     -0.1241
     44  CA       -33.8400   24.0280  -14.8890 C.3   145  TYR145      0.1605
     45  C        -35.2630   24.2630  -15.4360 C.2   145  TYR145      0.2264
     46  O        -35.5490   25.3420  -15.9730 O.2   145  TYR145     -0.2867
     47  CB       -33.7690   24.3940  -13.3880 C.3   145  TYR145      0.0534
     48  CG       -34.6930   23.5930  -12.5280 C.ar  145  TYR145     -0.0201
     49  CD1      -34.6540   22.1970  -12.5710 C.ar  145  TYR145     -0.0009
     50  CD2      -35.6930   24.2100  -11.7590 C.ar  145  TYR145     -0.0009
     51  CE1      -35.5610   21.4270  -11.8170 C.ar  145  TYR145      0.0417
     52  CE2      -36.6260   23.4420  -11.0060 C.ar  145  TYR145      0.0417
     53  CZ       -36.5450   22.0550  -11.0730 C.ar  145  TYR145      0.1957
     54  OH       -37.4170   21.2550  -10.3650 O.3   145  TYR145     -0.2866
     55  N        -39.4590   27.9990   -6.2860 N.3   155  TYR155     -0.1241
     56  CA       -38.2950   28.2930   -7.1570 C.3   155  TYR155      0.1605
     57  C        -38.4160   29.7710   -7.5830 C.2   155  TYR155      0.2264
     58  O        -37.4150   30.4610   -7.7190 O.2   155  TYR155     -0.2867
     59  CB       -38.2620   27.3660   -8.3790 C.3   155  TYR155      0.0534
     60  CG       -36.9540   27.3970   -9.1300 C.ar  155  TYR155     -0.0201
     61  CD1      -35.7660   26.9180   -8.5300 C.ar  155  TYR155     -0.0009
     62  CD2      -36.8870   27.8830  -10.4150 C.ar  155  TYR155     -0.0009
     63  CE1      -34.5950   26.8130   -9.2650 C.ar  155  TYR155      0.0417
     64  CE2      -35.6700   27.8310  -11.1500 C.ar  155  TYR155      0.0417
     65  CZ       -34.5480   27.2710  -10.5680 C.ar  155  TYR155      0.1957
     66  OH       -33.3430   27.2140  -11.2350 O.3   155  TYR155     -0.2866
     67  N        -36.0780   32.6650   -9.4350 N.3   158  MET158     -0.1245
     68  CA       -35.0550   31.8840  -10.1520 C.3   158  MET158      0.1570
     69  C        -35.6300   31.3060  -11.4440 C.2   158  MET158      0.2261
     70  O        -34.9260   31.1980  -12.4370 O.2   158  MET158     -0.2867
     71  CB       -34.4920   30.7210   -9.3130 C.3   158  MET158      0.0387
     72  CG       -33.4290   31.1450   -8.2820 C.3   158  MET158      0.0595
     73  SD       -31.9780   31.8780   -9.0620 S.3   158  MET158     -0.1393
     74  CE       -31.3790   30.4390   -9.9570 C.3   158  MET158      0.0692
     75  N        -33.9200   31.8730  -15.0100 N.3   162  LYS162     -0.1245
     76  CA       -33.6260   30.8210  -15.9690 C.3   162  LYS162      0.1561
     77  C        -34.2400   31.0540  -17.3630 C.2   162  LYS162      0.2260
     78  O        -33.5930   30.7530  -18.3960 O.2   162  LYS162     -0.2867
     79  CB       -34.0440   29.4130  -15.4340 C.3   162  LYS162      0.0271
     80  CG       -33.3150   28.9650  -14.1730 C.3   162  LYS162      0.0035
     81  CD       -31.7870   28.9570  -14.3480 C.3   162  LYS162      0.0206
     82  CE       -31.0780   28.1700  -13.2310 C.3   162  LYS162      0.1093
     83  NZ       -29.5620   28.1540  -13.4580 N.3   162  LYS162     -0.1314
     84  N        -32.4250   17.8560  -14.3920 N.3   189  GLY189     -0.1210
     85  CA       -33.3930   17.4960  -13.3490 C.3   189  GLY189      0.1940
     86  C        -32.7520   17.7170  -11.9750 C.2   189  GLY189      0.2454
     87  O        -31.5640   18.0220  -11.8590 O.2   189  GLY189     -0.2732
     88  N        -33.5570   17.6320  -10.9140 N.am  190  PRO190     -0.2717
     89  CA       -33.0030   17.9040   -9.5930 C.3   190  PRO190      0.1535
     90  C        -32.0320   16.7760   -9.1930 C.2   190  PRO190      0.2598
     91  O        -32.2810   15.5980   -9.4490 O.2   190  PRO190     -0.2715
     92  CB       -34.2350   17.9700   -8.6790 C.3   190  PRO190      0.0310
     93  CG       -35.4050   17.3340   -9.4990 C.3   190  PRO190      0.0237
     94  CD       -35.0120   17.3560  -10.9500 C.3   190  PRO190      0.0939
     95  N        -30.8880   17.1340   -8.6300 N.am  191  ILE191     -0.1978
     96  CA       -29.8490   16.1310   -8.4390 C.3   191  ILE191      0.1596
     97  C        -29.8130   15.4280   -7.0740 C.2   191  ILE191      0.2287
     98  O        -30.1550   16.0780   -6.0820 O.2   191  ILE191     -0.2864
     99  CB       -28.5120   16.7310   -8.8690 C.3   191  ILE191      0.0276
    100  CG1      -28.4190   16.4270  -10.3750 C.3   191  ILE191      0.0022
    101  CG2      -27.3820   16.1590   -8.0340 C.3   191  ILE191      0.0022
    102  CD1      -27.3690   17.1160  -11.1130 C.3   191  ILE191      0.0001
@<TRIPOS>BOND
     1    78    77    2
     2    77    76    1
     3    46    45    2
     4    76    79    1
     5    76    75    1
     6    43    44    1
     7    45    44    1
     8    79    80    1
     9    44    47    1
    10     1     2    1
    11    84    85    1
    12    81    80    1
    13    81    82    1
    14     2     5    1
    15     2     3    1
    16     5     6    1
    17    83    82    1
    18    47    48    1
    19    85    86    1
    20    14    12    1
    21     7     3   am
    22     7     8    1
    23    49    48   ar
    24    49    51   ar
    25    48    50   ar
    26    10     9    2
    27    70    69    2
    28     3     4    2
    29    86    87    2
    30    86    88   am
    31    11    12    1
    32    11     8    1
    33    11    13    1
    34    51    53   ar
    35    50    52   ar
    36     8     9    1
    37     9    15   am
    38    69    68    1
    39    66    65    1
    40    64    65   ar
    41    64    62   ar
    42   102   100    1
    43    53    52   ar
    44    53    54    1
    45    94    88    1
    46    94    93    1
    47    88    89    1
    48    65    63   ar
    49    62    60   ar
    50   100    99    1
    51    15    16    1
    52    68    67    1
    53    68    71    1
    54    16    17    1
    55    74    73    1
    56    89    90    1
    57    89    92    1
    58    93    92    1
    59    91    90    2
    60    71    72    1
    61    63    61   ar
    62    90    95   am
    63    60    61   ar
    64    60    59    1
    65    73    72    1
    66    99    96    1
    67    99   101    1
    68    17    19   am
    69    17    18    2
    70    95    96    1
    71    19    20    1
    72    96    97    1
    73    59    56    1
    74    22    21    2
    75    58    57    2
    76    57    56    1
    77    20    21    1
    78    20    23    1
    79    21    30   am
    80    56    55    1
    81    97    98    2
    82    23    24    1
    83    34    31    1
    84    30    31    1
    85    31    32    1
    86    24    26   ar
    87    24    25   ar
    88    26    28   ar
    89    42    40    1
    90    25    27   ar
    91    32    33    2
    92    28    29   ar
    93    40    41    1
    94    40    39    1
    95    27    29   ar
    96    39    36    1
    97    36    35    1
    98    36    37    1
    99    37    38    2
