@<TRIPOS>MOLECULE
tmp/4d47C00.pdb
 143 140 0 0 0
SMALL
GASTEIGER

@<TRIPOS>ATOM
      1  N        239.1320   47.6990   59.3810 N.3    42  TRP42      -0.1227
      2  CA       238.0890   48.1080   58.4480 C.3    42  TRP42       0.1737
      3  C        236.7230   47.6330   58.9680 C.2    42  TRP42       0.2595
      4  O        236.1130   48.3540   59.7580 O.2    42  TRP42      -0.2718
      5  CB       238.3990   47.6470   57.0050 C.3    42  TRP42       0.0564
      6  CG       238.7140   46.1960   56.7290 C.ar   42  TRP42       0.0003
      7  CD1      237.9490   45.3250   56.0060 C.ar   42  TRP42       0.0946
      8  CD2      239.8960   45.4720   57.1020 C.ar   42  TRP42       0.0152
      9  NE1      238.5650   44.1020   55.9270 N.ar   42  TRP42      -0.2442
     10  CE2      239.7610   44.1630   56.5920 C.ar   42  TRP42       0.0810
     11  CE3      241.0460   45.7950   57.8280 C.ar   42  TRP42       0.0012
     12  CZ2      240.7310   43.1820   56.7840 C.ar   42  TRP42       0.0191
     13  CZ3      242.0090   44.8140   58.0190 C.ar   42  TRP42       0.0001
     14  CH2      241.8440   43.5260   57.5000 C.ar   42  TRP42       0.0015
     15  N        236.2150   46.4810   58.5360 N.am   43  ASP43      -0.1974
     16  CA       234.9120   46.0130   59.0250 C.3    43  ASP43       0.1709
     17  C        234.7890   46.0420   60.5390 C.2    43  ASP43       0.2293
     18  O        235.5760   45.4150   61.2470 O.2    43  ASP43      -0.2864
     19  CB       234.6290   44.5930   58.5680 C.3    43  ASP43       0.1436
     20  CG       234.1390   44.5250   57.1600 C.2    43  ASP43       0.3671
     21  OD1      234.4840   45.4080   56.3460 O.co2  43  ASP43      -0.2456
     22  OD2      233.3640   43.5890   56.8930 O.co2  43  ASP43      -0.2456
     23  N        237.7560   43.6340   61.9670 N.3    66  LEU66      -0.1245
     24  CA       238.7020   42.9860   61.0730 C.3    66  LEU66       0.1561
     25  C        239.9720   43.8240   61.1100 C.2    66  LEU66       0.2260
     26  O        239.9210   45.0440   60.9430 O.2    66  LEU66      -0.2867
     27  CB       238.1520   42.8720   59.6490 C.3    66  LEU66       0.0270
     28  CG       236.9600   41.9390   59.4120 C.3    66  LEU66       0.0019
     29  CD1      236.7540   41.7200   57.9190 C.3    66  LEU66       0.0001
     30  CD2      237.1320   40.6090   60.1230 C.3    66  LEU66       0.0001
     31  N        243.3040   42.0030   53.1730 N.3    94  HIS94      -0.1241
     32  CA       242.2410   41.0090   53.2940 C.3    94  HIS94       0.1621
     33  C        242.7960   39.6010   53.4770 C.2    94  HIS94       0.2264
     34  O        242.1560   38.7460   54.0900 O.2    94  HIS94      -0.2867
     35  CB       241.3320   41.0650   52.0680 C.3    94  HIS94       0.0745
     36  CG       240.8830   42.4500   51.7340 C.ar   94  HIS94       0.0817
     37  ND1      239.7850   43.0410   52.3190 N.ar   94  HIS94      -0.2268
     38  CD2      241.3980   43.3690   50.8840 C.ar   94  HIS94       0.1154
     39  CE1      239.6440   44.2660   51.8460 C.ar   94  HIS94       0.1986
     40  NE2      240.6050   44.4870   50.9690 N.ar   94  HIS94      -0.2212
     41  N        237.3830   36.3680   58.6830 N.3   128  TRP128     -0.1227
     42  CA       236.5590   37.3850   58.0360 C.3   128  TRP128      0.1737
     43  C        235.3140   37.6890   58.8630 C.2   128  TRP128      0.2595
     44  O        235.1030   37.1000   59.9250 O.2   128  TRP128     -0.2718
     45  CB       236.1930   36.9430   56.6100 C.3   128  TRP128      0.0564
     46  CG       237.2570   37.3000   55.5950 C.ar  128  TRP128      0.0003
     47  CD1      238.5420   37.6810   55.8580 C.ar  128  TRP128      0.0946
     48  CD2      237.1250   37.3100   54.1660 C.ar  128  TRP128      0.0152
     49  NE1      239.2150   37.9290   54.6880 N.ar  128  TRP128     -0.2442
     50  CE2      238.3700   37.7070   53.6340 C.ar  128  TRP128      0.0810
     51  CE3      236.0790   37.0220   53.2850 C.ar  128  TRP128      0.0012
     52  CZ2      238.5950   37.8230   52.2650 C.ar  128  TRP128      0.0191
     53  CZ3      236.3070   37.1360   51.9220 C.ar  128  TRP128      0.0001
     54  CH2      237.5550   37.5340   51.4270 C.ar  128  TRP128      0.0015
     55  N        234.5010   38.6170   58.3660 N.am  129  ALA129     -0.1980
     56  CA       233.5320   39.3290   59.1930 C.3   129  ALA129      0.1597
     57  C        232.3600   38.4730   59.6480 C.2   129  ALA129      0.2287
     58  O        232.0390   37.4500   59.0450 O.2   129  ALA129     -0.2864
     59  CB       233.0100   40.5420   58.4390 C.3   129  ALA129      0.0319
     60  N        229.4660   34.3830   53.2860 N.3   199  ARG199     -0.1231
     61  CA       230.0630   34.9880   54.4790 C.3   199  ARG199      0.1694
     62  C        229.1030   35.8710   55.2810 C.2   199  ARG199      0.2592
     63  O        227.9550   36.0730   54.8900 O.2   199  ARG199     -0.2718
     64  CB       231.2880   35.8120   54.0740 C.3   199  ARG199      0.0321
     65  CG       231.0410   36.7950   52.9500 C.3   199  ARG199      0.0489
     66  CD       232.3380   37.4670   52.5480 C.3   199  ARG199      0.2205
     67  NE       232.1690   38.3860   51.4240 N.pl3 199  ARG199     -0.0865
     68  CZ       232.1290   38.0150   50.1470 C.cat 199  ARG199      0.5346
     69  NH1      232.2430   36.7360   49.8140 N.pl3 199  ARG199      0.1354
     70  NH2      231.9720   38.9300   49.2000 N.pl3 199  ARG199      0.1354
     71  N        229.5950   36.3550   56.4220 N.am  200  ASP200     -0.1974
     72  CA       228.9570   37.4120   57.2180 C.3   200  ASP200      0.1709
     73  C        227.7000   36.9770   57.9710 C.2   200  ASP200      0.2293
     74  O        226.6040   37.4490   57.6770 O.2   200  ASP200     -0.2864
     75  CB       228.6050   38.6090   56.3310 C.3   200  ASP200      0.1436
     76  CG       229.8210   39.2380   55.6910 C.2   200  ASP200      0.3671
     77  OD1      230.9530   38.8090   55.9990 O.co2 200  ASP200     -0.2456
     78  OD2      229.6420   40.1730   54.8850 O.co2 200  ASP200     -0.2456
     79  N        225.5360   36.5770   53.6410 N.3   217  GLU217     -0.1245
     80  CA       225.6900   36.8160   52.2130 C.3   217  GLU217      0.1567
     81  C        225.8390   35.4940   51.4900 C.2   217  GLU217      0.2260
     82  O        226.5150   34.5870   51.9720 O.2   217  GLU217     -0.2867
     83  CB       226.9010   37.6960   51.9180 C.3   217  GLU217      0.0388
     84  CG       227.2230   37.7850   50.4290 C.3   217  GLU217      0.1160
     85  CD       228.3800   38.7080   50.1320 C.2   217  GLU217      0.3649
     86  OE1      229.1020   39.0820   51.0800 O.co2 217  GLU217     -0.2457
     87  OE2      228.5710   39.0520   48.9470 O.co2 217  GLU217     -0.2457
     88  N        226.5340   42.1270   50.8090 N.3   284  GLU284     -0.1231
     89  CA       227.3670   41.7120   51.9320 C.3   284  GLU284      0.1699
     90  C        226.8400   42.2230   53.2700 C.2   284  GLU284      0.2592
     91  O        225.9660   43.0910   53.3120 O.2   284  GLU284     -0.2718
     92  CB       228.8030   42.2070   51.7310 C.3   284  GLU284      0.0402
     93  CG       229.2410   42.3100   50.2790 C.3   284  GLU284      0.1161
     94  CD       230.7060   42.6730   50.1430 C.2   284  GLU284      0.3649
     95  OE1      231.0830   43.7810   50.5780 O.co2 284  GLU284     -0.2457
     96  OE2      231.4790   41.8590   49.5970 O.co2 284  GLU284     -0.2457
     97  N        227.4140   41.6870   54.3480 N.am  285  ARG285     -0.1980
     98  CA       227.0710   42.0470   55.7280 C.3   285  ARG285      0.1597
     99  C        225.5960   42.3690   55.9260 C.2   285  ARG285      0.2287
    100  O        225.2500   43.4730   56.3380 O.2   285  ARG285     -0.2864
    101  CB       227.9140   43.2350   56.1930 C.3   285  ARG285      0.0334
    102  CG       229.3680   42.8970   56.4470 C.3   285  ARG285      0.0492
    103  CD       230.0440   43.9950   57.2280 C.3   285  ARG285      0.2205
    104  NE       229.6960   43.9430   58.6430 N.pl3 285  ARG285     -0.0865
    105  CZ       229.9690   44.9080   59.5150 C.cat 285  ARG285      0.5346
    106  NH1      230.6020   46.0050   59.1190 N.pl3 285  ARG285      0.1354
    107  NH2      229.6150   44.7720   60.7850 N.pl3 285  ARG285      0.1354
    108  N        225.2990   45.8340   52.4360 N.3   300  ILE300     -0.1245
    109  CA       226.2570   46.7210   51.7810 C.3   300  ILE300      0.1561
    110  C        226.6750   46.1400   50.4310 C.2   300  ILE300      0.2260
    111  O        226.6990   44.9210   50.2530 O.2   300  ILE300     -0.2867
    112  CB       227.4980   46.9500   52.6640 C.3   300  ILE300      0.0252
    113  CG1      228.1810   45.6130   52.9670 C.3   300  ILE300      0.0019
    114  CG2      227.1050   47.6530   53.9560 C.3   300  ILE300      0.0019
    115  CD1      229.5070   45.7400   53.6650 C.3   300  ILE300      0.0001
    116  N        228.7680   47.2480   46.2780 N.3   302  HIS302     -0.1241
    117  CA       229.6730   48.1060   45.5200 C.3   302  HIS302      0.1621
    118  C        229.0670   48.6530   44.2450 C.2   302  HIS302      0.2264
    119  O        228.2410   48.0080   43.5980 O.2   302  HIS302     -0.2867
    120  CB       230.9480   47.3530   45.1470 C.3   302  HIS302      0.0745
    121  CG       231.7650   46.9300   46.3220 C.ar  302  HIS302      0.0817
    122  ND1      232.5080   47.8230   47.0600 N.ar  302  HIS302     -0.2268
    123  CD2      231.9750   45.7120   46.8750 C.ar  302  HIS302      0.1154
    124  CE1      233.1350   47.1760   48.0240 C.ar  302  HIS302      0.1986
    125  NE2      232.8290   45.8940   47.9360 N.ar  302  HIS302     -0.2212
    126  N        233.4760   52.5080   53.5150 N.3   349  TYR349     -0.1227
    127  CA       232.7380   51.2900   53.2020 C.3   349  TYR349      0.1736
    128  C        232.3180   50.5450   54.4700 C.2   349  TYR349      0.2596
    129  O        232.7210   50.9010   55.5750 O.2   349  TYR349     -0.2718
    130  CB       233.5670   50.3690   52.3030 C.3   349  TYR349      0.0548
    131  CG       232.7400   49.2690   51.6840 C.ar  349  TYR349     -0.0200
    132  CD1      231.7690   49.5570   50.7360 C.ar  349  TYR349     -0.0009
    133  CD2      232.8940   47.9490   52.0840 C.ar  349  TYR349     -0.0009
    134  CE1      230.9930   48.5590   50.1820 C.ar  349  TYR349      0.0417
    135  CE2      232.1220   46.9440   51.5380 C.ar  349  TYR349      0.0417
    136  CZ       231.1720   47.2530   50.5880 C.ar  349  TYR349      0.1957
    137  OH       230.4010   46.2530   50.0370 O.3   349  TYR349     -0.2866
    138  N        231.4920   49.5190   54.2910 N.am  350  SER350     -0.1952
    139  CA       231.0510   48.6460   55.3740 C.3   350  SER350      0.1924
    140  C        230.1650   49.4050   56.3520 C.2   350  SER350      0.2314
    141  O        230.3890   49.3970   57.5610 O.2   350  SER350     -0.2863
    142  CB       232.2450   48.0210   56.0960 C.3   350  SER350      0.2116
    143  OG       231.8800   46.7800   56.6700 O.3   350  SER350     -0.2180
@<TRIPOS>BOND
     1   119   118    2
     2   118   117    1
     3   120   117    1
     4   120   121    1
     5   117   116    1
     6   121   123   ar
     7   121   122   ar
     8   123   125   ar
     9   122   124   ar
    10   125   124   ar
    11    87    85   ar
    12    70    68    1
    13    96    94   ar
    14    69    68    1
    15   137   136    1
    16    85    84    1
    17    85    86   ar
    18    94    93    1
    19    94    95   ar
    20    68    67    2
    21   134   136   ar
    22   134   132   ar
    23   111   110    2
    24    93    92    1
    25    84    83    1
    26   110   109    1
    27   136   135   ar
    28   132   131   ar
    29    88    89    1
    30    38    40   ar
    31    38    36   ar
    32    40    39   ar
    33    67    66    1
    34    54    53   ar
    35    54    52   ar
    36    81    82    2
    37    81    80    1
    38   135   133   ar
    39   131   133   ar
    40   131   130    1
    41    92    89    1
    42    36    35    1
    43    36    37   ar
    44   109   108    1
    45   109   112    1
    46    39    37   ar
    47    83    80    1
    48    53    51   ar
    49    89    90    1
    50    35    32    1
    51    80    79    1
    52    52    50   ar
    53   130   127    1
    54    66    65    1
    55   112   113    1
    56   112   114    1
    57    65    64    1
    58   113   115    1
    59    31    32    1
    60   127   126    1
    61   127   128    1
    62    90    91    2
    63    90    97   am
    64    51    48   ar
    65    60    61    1
    66    32    33    1
    67    33    34    2
    68    50    48   ar
    69    50    49   ar
    70    64    61    1
    71    48    46   ar
    72   138   128   am
    73   138   139    1
    74    97    98    1
    75   128   129    2
    76    61    62    1
    77    49    47   ar
    78    78    76   ar
    79    63    62    2
    80    62    71   am
    81   139   142    1
    82   139   140    1
    83    46    47   ar
    84    46    45    1
    85    76    77   ar
    86    76    75    1
    87    98    99    1
    88    98   101    1
    89    99   100    2
    90     9     7   ar
    91     9    10   ar
    92     7     6   ar
    93   142   143    1
    94   101   102    1
    95    75    72    1
    96    21    20   ar
    97   140   141    2
    98    71    72    1
    99   102   103    1
   100    10    12   ar
   101    10     8   ar
   102    45    42    1
   103     6     5    1
   104     6     8   ar
   105    12    14   ar
   106    22    20   ar
   107     5     2    1
   108     8    11   ar
   109    20    19    1
   110    72    73    1
   111   103   104    1
   112    14    13   ar
   113    74    73    2
   114    11    13   ar
   115    29    28    1
   116    42    41    1
   117    42    43    1
   118    55    43   am
   119    55    56    1
   120    59    56    1
   121     2     3    1
   122     2     1    1
   123    15     3   am
   124    15    16    1
   125    19    16    1
   126   104   105    2
   127    43    44    2
   128     3     4    2
   129    16    17    1
   130    58    57    2
   131   106   105    1
   132    56    57    1
   133    28    27    1
   134    28    30    1
   135   105   107    1
   136    27    24    1
   137    17    18    2
   138    26    25    2
   139    24    25    1
   140    24    23    1
