@<TRIPOS>MOLECULE
tmp/4d47C01.pdb
 113 109 0 0 0
SMALL
GASTEIGER

@<TRIPOS>ATOM
      1  N        245.5060   43.6920   52.6220 N.3    93  ARG93      -0.1231
      2  CA       245.1060   43.4200   54.0020 C.3    93  ARG93       0.1694
      3  C        244.1430   42.2440   54.1720 C.2    93  ARG93       0.2592
      4  O        244.1520   41.5770   55.2060 O.2    93  ARG93      -0.2718
      5  CB       244.4690   44.6720   54.6070 C.3    93  ARG93       0.0321
      6  CG       243.0920   45.0120   54.0510 C.3    93  ARG93       0.0489
      7  CD       242.5830   46.3180   54.6330 C.3    93  ARG93       0.2205
      8  NE       241.2620   46.6870   54.1290 N.pl3  93  ARG93      -0.0865
      9  CZ       241.0390   47.2860   52.9620 C.cat  93  ARG93       0.5346
     10  NH1      242.0470   47.5770   52.1510 N.pl3  93  ARG93       0.1354
     11  NH2      239.8010   47.5890   52.6000 N.pl3  93  ARG93       0.1354
     12  N        243.3040   42.0030   53.1730 N.am   94  HIS94      -0.1976
     13  CA       242.2410   41.0090   53.2940 C.3    94  HIS94       0.1656
     14  C        242.7960   39.6010   53.4770 C.2    94  HIS94       0.2291
     15  O        242.1560   38.7460   54.0900 O.2    94  HIS94      -0.2864
     16  CB       241.3320   41.0650   52.0680 C.3    94  HIS94       0.0771
     17  CG       240.8830   42.4500   51.7340 C.ar   94  HIS94       0.0820
     18  ND1      239.7850   43.0410   52.3190 N.ar   94  HIS94      -0.2267
     19  CD2      241.3980   43.3690   50.8840 C.ar   94  HIS94       0.1154
     20  CE1      239.6440   44.2660   51.8460 C.ar   94  HIS94       0.1986
     21  NE2      240.6050   44.4870   50.9690 N.ar   94  HIS94      -0.2212
     22  N        237.3830   36.3680   58.6830 N.3   128  TRP128     -0.1241
     23  CA       236.5590   37.3850   58.0360 C.3   128  TRP128      0.1605
     24  C        235.3140   37.6890   58.8630 C.2   128  TRP128      0.2264
     25  O        235.1030   37.1000   59.9250 O.2   128  TRP128     -0.2867
     26  CB       236.1930   36.9430   56.6100 C.3   128  TRP128      0.0550
     27  CG       237.2570   37.3000   55.5950 C.ar  128  TRP128      0.0003
     28  CD1      238.5420   37.6810   55.8580 C.ar  128  TRP128      0.0946
     29  CD2      237.1250   37.3100   54.1660 C.ar  128  TRP128      0.0152
     30  NE1      239.2150   37.9290   54.6880 N.ar  128  TRP128     -0.2442
     31  CE2      238.3700   37.7070   53.6340 C.ar  128  TRP128      0.0810
     32  CE3      236.0790   37.0220   53.2850 C.ar  128  TRP128      0.0012
     33  CZ2      238.5950   37.8230   52.2650 C.ar  128  TRP128      0.0191
     34  CZ3      236.3070   37.1360   51.9220 C.ar  128  TRP128      0.0001
     35  CH2      237.5550   37.5340   51.4270 C.ar  128  TRP128      0.0015
     36  N        229.4660   34.3830   53.2860 N.3   199  ARG199     -0.1245
     37  CA       230.0630   34.9880   54.4790 C.3   199  ARG199      0.1563
     38  C        229.1030   35.8710   55.2810 C.2   199  ARG199      0.2260
     39  O        227.9550   36.0730   54.8900 O.2   199  ARG199     -0.2867
     40  CB       231.2880   35.8120   54.0740 C.3   199  ARG199      0.0307
     41  CG       231.0410   36.7950   52.9500 C.3   199  ARG199      0.0489
     42  CD       232.3380   37.4670   52.5480 C.3   199  ARG199      0.2205
     43  NE       232.1690   38.3860   51.4240 N.pl3 199  ARG199     -0.0865
     44  CZ       232.1290   38.0150   50.1470 C.cat 199  ARG199      0.5346
     45  NH1      232.2430   36.7360   49.8140 N.pl3 199  ARG199      0.1354
     46  NH2      231.9720   38.9300   49.2000 N.pl3 199  ARG199      0.1354
     47  N        227.1210   41.1360   44.8080 N.3   282  GLN282     -0.1245
     48  CA       227.5020   41.1550   46.2190 C.3   282  GLN282      0.1566
     49  C        226.5370   41.9460   47.0950 C.2   282  GLN282      0.2260
     50  O        226.4730   43.1750   47.0300 O.2   282  GLN282     -0.2867
     51  CB       228.9130   41.7270   46.3670 C.3   282  GLN282      0.0367
     52  CG       229.9470   41.0140   45.5120 C.3   282  GLN282      0.0905
     53  CD       231.3690   41.2560   45.9780 C.2   282  GLN282      0.2608
     54  OE1      231.6860   42.3110   46.5300 O.2   282  GLN282     -0.2717
     55  NE2      232.2370   40.2760   45.7550 N.am  282  GLN282     -0.0878
     56  N        226.5340   42.1270   50.8090 N.3   284  GLU284     -0.1245
     57  CA       227.3670   41.7120   51.9320 C.3   284  GLU284      0.1567
     58  C        226.8400   42.2230   53.2700 C.2   284  GLU284      0.2260
     59  O        225.9660   43.0910   53.3120 O.2   284  GLU284     -0.2867
     60  CB       228.8030   42.2070   51.7310 C.3   284  GLU284      0.0388
     61  CG       229.2410   42.3100   50.2790 C.3   284  GLU284      0.1160
     62  CD       230.7060   42.6730   50.1430 C.2   284  GLU284      0.3649
     63  OE1      231.0830   43.7810   50.5780 O.co2 284  GLU284     -0.2457
     64  OE2      231.4790   41.8590   49.5970 O.co2 284  GLU284     -0.2457
     65  N        228.7680   47.2480   46.2780 N.3   302  HIS302     -0.1241
     66  CA       229.6730   48.1060   45.5200 C.3   302  HIS302      0.1621
     67  C        229.0670   48.6530   44.2450 C.2   302  HIS302      0.2264
     68  O        228.2410   48.0080   43.5980 O.2   302  HIS302     -0.2867
     69  CB       230.9480   47.3530   45.1470 C.3   302  HIS302      0.0745
     70  CG       231.7650   46.9300   46.3220 C.ar  302  HIS302      0.0817
     71  ND1      232.5080   47.8230   47.0600 N.ar  302  HIS302     -0.2268
     72  CD2      231.9750   45.7120   46.8750 C.ar  302  HIS302      0.1154
     73  CE1      233.1350   47.1760   48.0240 C.ar  302  HIS302      0.1986
     74  NE2      232.8290   45.8940   47.9360 N.ar  302  HIS302     -0.2212
     75  N        229.0130   53.0700   46.1570 N.3   314  ASP314     -0.1239
     76  CA       229.3580   52.2270   47.2930 C.3   314  ASP314      0.1674
     77  C        228.5950   52.7250   48.5010 C.2   314  ASP314      0.2266
     78  O        228.4150   53.9300   48.6670 O.2   314  ASP314     -0.2867
     79  CB       230.8590   52.2380   47.5710 C.3   314  ASP314      0.1410
     80  CG       231.6110   51.2150   46.7460 C.2   314  ASP314      0.3668
     81  OD1      231.2430   51.0090   45.5690 O.co2 314  ASP314     -0.2456
     82  OD2      232.5670   50.6140   47.2790 O.co2 314  ASP314     -0.2456
     83  N        233.4760   52.5080   53.5150 N.3   349  TYR349     -0.1241
     84  CA       232.7380   51.2900   53.2020 C.3   349  TYR349      0.1605
     85  C        232.3180   50.5450   54.4700 C.2   349  TYR349      0.2264
     86  O        232.7210   50.9010   55.5750 O.2   349  TYR349     -0.2867
     87  CB       233.5670   50.3690   52.3030 C.3   349  TYR349      0.0534
     88  CG       232.7400   49.2690   51.6840 C.ar  349  TYR349     -0.0201
     89  CD1      231.7690   49.5570   50.7360 C.ar  349  TYR349     -0.0009
     90  CD2      232.8940   47.9490   52.0840 C.ar  349  TYR349     -0.0009
     91  CE1      230.9930   48.5590   50.1820 C.ar  349  TYR349      0.0417
     92  CE2      232.1220   46.9440   51.5380 C.ar  349  TYR349      0.0417
     93  CZ       231.1720   47.2530   50.5880 C.ar  349  TYR349      0.1957
     94  OH       230.4010   46.2530   50.0370 O.3   349  TYR349     -0.2866
     95  N        234.2400   52.4680   58.0210 N.3   362  PHE362     -0.1241
     96  CA       235.6800   52.6810   58.0240 C.3   362  PHE362      0.1605
     97  C        236.0590   53.5140   56.8080 C.2   362  PHE362      0.2264
     98  O        235.4130   53.4390   55.7630 O.2   362  PHE362     -0.2867
     99  CB       236.4500   51.3550   58.0440 C.3   362  PHE362      0.0534
    100  CG       236.4460   50.6140   56.7400 C.ar  362  PHE362     -0.0203
    101  CD1      237.4150   50.8680   55.7860 C.ar  362  PHE362     -0.0042
    102  CD2      235.5010   49.6360   56.4830 C.ar  362  PHE362     -0.0042
    103  CE1      237.4290   50.1810   54.5920 C.ar  362  PHE362     -0.0003
    104  CE2      235.5120   48.9430   55.2870 C.ar  362  PHE362     -0.0003
    105  CZ       236.4780   49.2160   54.3410 C.ar  362  PHE362     -0.0000
    106  N        238.2110   54.1950   53.7280 N.3   364  ASP364     -0.1239
    107  CA       239.0450   53.4570   52.7860 C.3   364  ASP364      0.1674
    108  C        239.9620   54.4300   52.0450 C.2   364  ASP364      0.2266
    109  O        241.0940   54.6390   52.4670 O.2   364  ASP364     -0.2867
    110  CB       238.1850   52.6470   51.8060 C.3   364  ASP364      0.1410
    111  CG       239.0110   51.7130   50.9190 C.2   364  ASP364      0.3668
    112  OD1      240.0740   52.1260   50.4070 O.co2 364  ASP364     -0.2456
    113  OD2      238.5970   50.5480   50.7410 O.co2 364  ASP364     -0.2456
@<TRIPOS>BOND
     1    68    67    2
     2    67    66    1
     3    47    48    1
     4    69    66    1
     5    69    70    1
     6    52    53    1
     7    52    51    1
     8    66    65    1
     9    81    80   ar
    10    55    53   am
    11    53    54    2
    12    75    76    1
    13    48    51    1
    14    48    49    1
    15    70    72   ar
    16    70    71   ar
    17    80    82   ar
    18    80    79    1
    19    72    74   ar
    20    50    49    2
    21    71    73   ar
    22    76    79    1
    23    76    77    1
    24    74    73   ar
    25    77    78    2
    26    46    44    1
    27    64    62   ar
    28    45    44    1
    29    94    93    1
    30    62    61    1
    31    62    63   ar
    32    44    43    2
    33    91    93   ar
    34    91    89   ar
    35    61    60    1
    36   112   111   ar
    37    93    92   ar
    38    89    88   ar
    39   113   111   ar
    40    56    57    1
    41    19    21   ar
    42    19    17   ar
    43   111   110    1
    44    21    20   ar
    45    43    42    1
    46    35    34   ar
    47    35    33   ar
    48    92    90   ar
    49    88    90   ar
    50    88    87    1
    51    60    57    1
    52    17    16    1
    53    17    18   ar
    54   110   107    1
    55    20    18   ar
    56    34    32   ar
    57    57    58    1
    58   108   109    2
    59   108   107    1
    60    16    13    1
    61    10     9    1
    62    33    31   ar
    63    87    84    1
    64    42    41    1
    65    11     9    1
    66     1     2    1
    67   107   106    1
    68    41    40    1
    69     9     8    2
    70    12    13    1
    71    12     3   am
    72    84    83    1
    73    84    85    1
    74    58    59    2
    75    32    29   ar
    76    36    37    1
    77    13    14    1
    78    14    15    2
    79    31    29   ar
    80    31    30   ar
    81     2     3    1
    82     2     5    1
    83     6     5    1
    84     6     7    1
    85    40    37    1
    86     8     7    1
    87    29    27   ar
    88     3     4    2
    89   105   103   ar
    90   105   104   ar
    91    85    86    2
    92    37    38    1
    93   103   101   ar
    94    30    28   ar
    95    39    38    2
    96   104   102   ar
    97    27    28   ar
    98    27    26    1
    99    98    97    2
   100   101   100   ar
   101   102   100   ar
   102    26    23    1
   103   100    99    1
   104    97    96    1
   105    95    96    1
   106    96    99    1
   107    23    22    1
   108    23    24    1
   109    24    25    2
