@<TRIPOS>MOLECULE
tmp/4d49F00.pdb
 94 87 0 0 0
SMALL
GASTEIGER

@<TRIPOS>ATOM
      1  N        -33.1720    2.1300   12.6370 N.3    15  GLN15      -0.1245
      2  CA       -32.7890    3.5580   12.6590 C.3    15  GLN15       0.1566
      3  C        -33.8470    4.5380   13.3120 C.2    15  GLN15       0.2260
      4  O        -33.4870    5.4330   14.0610 O.2    15  GLN15      -0.2867
      5  CB       -32.1860    4.0160   11.3420 C.3    15  GLN15       0.0367
      6  CG       -33.0470    4.1510   10.0920 C.3    15  GLN15       0.0905
      7  CD       -32.1730    4.5940    8.9160 C.2    15  GLN15       0.2608
      8  OE1      -30.9790    4.2730    8.8650 O.2    15  GLN15      -0.2717
      9  NE2      -32.7530    5.3510    7.9820 N.am   15  GLN15      -0.0878
     10  N        -32.3720    7.9860   21.2460 N.3    22  ARG22      -0.1245
     11  CA       -31.4440    9.1090   21.4380 C.3    22  ARG22       0.1563
     12  C        -32.1960   10.3440   21.9270 C.2    22  ARG22       0.2260
     13  O        -31.6920   11.1100   22.7560 O.2    22  ARG22      -0.2867
     14  CB       -30.6690    9.4040   20.1470 C.3    22  ARG22       0.0307
     15  CG       -29.3340    8.6860   20.0200 C.3    22  ARG22       0.0489
     16  CD       -28.4770    9.2970   18.8960 C.3    22  ARG22       0.2205
     17  NE       -29.1600    9.4740   17.6080 N.pl3  22  ARG22      -0.0865
     18  CZ       -29.2130    8.5600   16.6390 C.cat  22  ARG22       0.5346
     19  NH1      -28.6280    7.3800   16.7920 N.pl3  22  ARG22       0.1354
     20  NH2      -29.8540    8.8270   15.5100 N.pl3  22  ARG22       0.1354
     21  N        -32.9250    9.7080   25.6090 N.3    25  SER25      -0.1217
     22  CA       -31.7340    9.9970   26.4440 C.3    25  SER25       0.1889
     23  C        -31.4990   11.4760   26.6470 C.2    25  SER25       0.2288
     24  O        -31.1750   11.9160   27.7560 O.2    25  SER25      -0.2866
     25  CB       -30.4700    9.4390   25.8020 C.3    25  SER25       0.2089
     26  OG       -30.2870    8.0830   26.1030 O.3    25  SER25      -0.2183
     27  N        -25.5210   -1.5550   20.7640 N.3    57  GLU57      -0.1196
     28  CA       -25.6940   -0.1930   20.2830 C.3    57  GLU57       0.1783
     29  C        -26.9820    0.3890   20.9010 C.2    57  GLU57       0.2306
     30  O        -27.0320    1.5330   21.3260 O.2    57  GLU57      -0.2863
     31  CB       -25.7970   -0.2100   18.7430 C.2    57  GLU57       0.0071
     32  CG       -25.6600    1.1880   18.0540 C.2    57  GLU57       0.0834
     33  CD       -25.9310    1.3070   16.5640 C.2    57  GLU57       0.3877
     34  OE1      -26.0010    0.3040   15.8230 O.co2  57  GLU57      -0.2406
     35  OE2      -26.0640    2.4810   16.1030 O.co2  57  GLU57      -0.2406
     36  N        -26.4560    0.1730   25.0140 N.3    60  LYS60      -0.1231
     37  CA       -25.6400    1.2010   25.6540 C.3    60  LYS60       0.1693
     38  C        -26.4230    2.5000   25.8340 C.2    60  LYS60       0.2591
     39  O        -26.3380    3.1840   26.8890 O.2    60  LYS60      -0.2718
     40  CB       -24.4110    1.5220   24.8020 C.3    60  LYS60       0.0285
     41  CG       -23.4450    2.4170   25.5440 C.3    60  LYS60       0.0035
     42  CD       -22.5020    3.1690   24.6340 C.3    60  LYS60       0.0206
     43  CE       -21.7470    4.2230   25.4280 C.3    60  LYS60       0.1093
     44  NZ       -20.5700    4.7210   24.6850 N.3    60  LYS60      -0.1314
     45  N        -27.1670    2.8310   24.7840 N.am   61  GLU61      -0.1979
     46  CA       -27.9790    4.0330   24.7810 C.3    61  GLU61       0.1602
     47  C        -29.0920    3.9280   25.8100 C.2    61  GLU61       0.2287
     48  O        -29.4000    4.9040   26.5130 O.2    61  GLU61      -0.2864
     49  CB       -28.5420    4.2720   23.3870 C.3    61  GLU61       0.0415
     50  CG       -29.1440    5.6400   23.2260 C.3    61  GLU61       0.1163
     51  CD       -28.0990    6.7730   23.3410 C.2    61  GLU61       0.3649
     52  OE1      -26.9060    6.5280   23.2880 O.co2  61  GLU61      -0.2457
     53  OE2      -28.4520    7.9140   23.4870 O.co2  61  GLU61      -0.2457
     54  N        -27.5310    4.2610   29.3570 N.3    64  TRP64      -0.1241
     55  CA       -27.1910    5.6530   29.5910 C.3    64  TRP64       0.1605
     56  C        -28.4420    6.4390   30.0550 C.2    64  TRP64       0.2264
     57  O        -28.4010    7.1410   31.0730 O.2    64  TRP64      -0.2867
     58  CB       -26.5880    6.2540   28.3270 C.3    64  TRP64       0.0550
     59  CG       -25.8710    7.5080   28.5070 C.ar   64  TRP64       0.0003
     60  CD1      -24.5550    7.6650   28.7530 C.ar   64  TRP64       0.0946
     61  CD2      -26.4200    8.8140   28.4220 C.ar   64  TRP64       0.0152
     62  NE1      -24.2520    8.9920   28.8500 N.ar   64  TRP64      -0.2442
     63  CE2      -25.3820    9.7200   28.6710 C.ar   64  TRP64       0.0810
     64  CE3      -27.6990    9.3040   28.1940 C.ar   64  TRP64       0.0012
     65  CZ2      -25.5710   11.0920   28.6830 C.ar   64  TRP64       0.0191
     66  CZ3      -27.8930   10.6790   28.2050 C.ar   64  TRP64       0.0001
     67  CH2      -26.8300   11.5580   28.4320 C.ar   64  TRP64       0.0015
     68  N        -17.4820   -1.1610   27.9430 N.3    99  GLU99      -0.1245
     69  CA       -18.1600    0.0670   27.5550 C.3    99  GLU99       0.1567
     70  C        -19.5820    0.1160   28.1120 C.2    99  GLU99       0.2260
     71  O        -19.9650    1.1100   28.7070 O.2    99  GLU99      -0.2867
     72  CB       -18.1650    0.1450   26.0490 C.3    99  GLU99       0.0388
     73  CG       -18.9240    1.3070   25.4290 C.3    99  GLU99       0.1160
     74  CD       -18.7120    1.4040   23.9140 C.2    99  GLU99       0.3649
     75  OE1      -18.0970    0.4660   23.3240 O.co2  99  GLU99      -0.2457
     76  OE2      -19.1340    2.4140   23.2670 O.co2  99  GLU99      -0.2457
     77  N        -19.7130    0.0390   32.1860 N.3   102  LYS102     -0.1245
     78  CA       -19.4560    1.2950   32.8890 C.3   102  LYS102      0.1561
     79  C        -20.7250    2.0420   33.1380 C.2   102  LYS102      0.2260
     80  O        -20.8860    2.6900   34.1800 O.2   102  LYS102     -0.2867
     81  CB       -18.5630    2.2340   32.0620 C.3   102  LYS102      0.0271
     82  CG       -18.2640    3.5340   32.7870 C.3   102  LYS102      0.0035
     83  CD       -17.4640    4.5120   31.9400 C.3   102  LYS102      0.0206
     84  CE       -17.1200    5.7700   32.7000 C.3   102  LYS102      0.1093
     85  NZ       -16.1240    6.6600   32.0160 N.3   102  LYS102     -0.1314
     86  N        -10.8920    2.8340   35.0050 N.3   141  GLU141     -0.1245
     87  CA       -12.1020    3.5970   34.7050 C.3   141  GLU141      0.1567
     88  C        -13.3680    2.9320   35.2430 C.2   141  GLU141      0.2260
     89  O        -14.1660    3.5860   35.9020 O.2   141  GLU141     -0.2867
     90  CB       -12.2220    3.7780   33.1880 C.3   141  GLU141      0.0388
     91  CG       -13.4580    4.5170   32.7040 C.3   141  GLU141      0.1160
     92  CD       -13.4140    4.7990   31.2090 C.2   141  GLU141      0.3649
     93  OE1      -12.6020    4.1490   30.5230 O.co2 141  GLU141     -0.2457
     94  OE2      -14.1320    5.7000   30.7240 O.co2 141  GLU141     -0.2457
@<TRIPOS>BOND
     1     9     7   am
     2     8     7    2
     3     7     6    1
     4     6     5    1
     5     5     2    1
     6     1     2    1
     7     2     3    1
     8     3     4    2
     9    20    18    1
    10    34    33   ar
    11    35    33   ar
    12    33    32    1
    13    18    19    1
    14    18    17    2
    15    17    16    1
    16    32    31    2
    17    31    28    1
    18    16    15    1
    19    15    14    1
    20    14    11    1
    21    28    27    1
    22    28    29    1
    23    29    30    2
    24    10    11    1
    25    11    12    1
    26    12    13    2
    27    50    51    1
    28    50    49    1
    29    76    74   ar
    30    52    51   ar
    31    75    74   ar
    32    51    53   ar
    33    49    46    1
    34    74    73    1
    35    42    43    1
    36    42    41    1
    37    44    43    1
    38    46    45    1
    39    46    47    1
    40    45    38   am
    41    40    41    1
    42    40    37    1
    43    36    37    1
    44    73    72    1
    45    21    22    1
    46    37    38    1
    47    25    26    1
    48    25    22    1
    49    47    48    2
    50    38    39    2
    51    72    69    1
    52    22    23    1
    53    23    24    2
    54    69    68    1
    55    69    70    1
    56    70    71    2
    57    64    66   ar
    58    64    61   ar
    59    66    67   ar
    60    58    59    1
    61    58    55    1
    62    61    59   ar
    63    61    63   ar
    64    67    65   ar
    65    59    60   ar
    66    63    65   ar
    67    63    62   ar
    68    60    62   ar
    69    54    55    1
    70    55    56    1
    71    56    57    2
    72    93    92   ar
    73    94    92   ar
    74    92    91    1
    75    83    84    1
    76    83    82    1
    77    85    84    1
    78    81    82    1
    79    81    78    1
    80    77    78    1
    81    91    90    1
    82    78    79    1
    83    79    80    2
    84    90    87    1
    85    87    86    1
    86    87    88    1
    87    88    89    2
