@<TRIPOS>MOLECULE
tmp/4d49A00.pdb
 180 173 0 0 0
SMALL
GASTEIGER

@<TRIPOS>ATOM
      1  N         19.3210   -2.4250   55.3060 N.3    28  ALA28      -0.1231
      2  CA        19.9730   -2.4950   53.9820 C.3    28  ALA28       0.1694
      3  C         19.6580   -3.8100   53.2820 C.2    28  ALA28       0.2593
      4  O         19.7570   -3.9260   52.0410 O.2    28  ALA28      -0.2718
      5  CB        21.4900   -2.2970   54.1200 C.3    28  ALA28       0.0304
      6  N         19.3130   -4.8050   54.1020 N.am   29  SER29      -0.1938
      7  CA        18.8730   -6.1130   53.6660 C.3    29  SER29       0.2055
      8  C         17.3670   -6.1370   53.4610 C.2    29  SER29       0.2644
      9  O         16.7970   -7.1710   53.0450 O.2    29  SER29      -0.2714
     10  CB        19.2830   -7.1730   54.7280 C.3    29  SER29       0.2130
     11  OG        18.5450   -8.3720   54.5480 O.3    29  SER29      -0.2179
     12  N         16.7180   -4.9840   53.6370 N.am   30  GLY30      -0.1939
     13  CA        15.3260   -4.8460   53.2630 C.3    30  GLY30       0.2014
     14  C         15.6320   -4.5290   51.8240 C.2    30  GLY30       0.2639
     15  O         16.8130   -4.2820   51.5020 O.2    30  GLY30      -0.2714
     16  N         14.6320   -4.6480   50.9640 N.am   31  GLY31      -0.1954
     17  CA        14.6780   -4.2730   49.5310 C.3    31  GLY31       0.1869
     18  C         14.9730   -2.8210   49.2010 C.2    31  GLY31       0.2309
     19  O         15.4290   -2.0500   50.0660 O.2    31  GLY31      -0.2863
     20  N         29.0780   -6.3580   54.7390 N.3    64  TRP64      -0.1241
     21  CA        27.8090   -7.0420   54.5640 C.3    64  TRP64       0.1605
     22  C         26.7350   -6.0290   54.1130 C.2    64  TRP64       0.2264
     23  O         25.9850   -6.2820   53.1840 O.2    64  TRP64      -0.2867
     24  CB        27.4050   -7.7620   55.8620 C.3    64  TRP64       0.0550
     25  CG        26.3090   -8.7430   55.6700 C.ar   64  TRP64       0.0003
     26  CD1       26.4520  -10.0310   55.2790 C.ar   64  TRP64       0.0946
     27  CD2       24.9010   -8.5270   55.8160 C.ar   64  TRP64       0.0152
     28  NE1       25.2290  -10.6360   55.1610 N.ar   64  TRP64      -0.2442
     29  CE2       24.2540   -9.7390   55.4880 C.ar   64  TRP64       0.0810
     30  CE3       24.1280   -7.4370   56.1700 C.ar   64  TRP64       0.0012
     31  CZ2       22.8530   -9.8960   55.5340 C.ar   64  TRP64       0.0191
     32  CZ3       22.7470   -7.5870   56.2190 C.ar   64  TRP64       0.0001
     33  CH2       22.1210   -8.7960   55.8830 C.ar   64  TRP64       0.0015
     34  N         27.3230   -4.8940   50.6740 N.3    67  ALA67      -0.1231
     35  CA        26.9740   -5.9530   49.7100 C.3    67  ALA67       0.1694
     36  C         25.4850   -5.8660   49.4230 C.2    67  ALA67       0.2592
     37  O         25.0670   -5.9350   48.2950 O.2    67  ALA67      -0.2718
     38  CB        27.3150   -7.3090   50.2510 C.3    67  ALA67       0.0304
     39  N         24.6880   -5.6010   50.4440 N.am   68  ASN68      -0.1974
     40  CA        23.2470   -5.5350   50.2670 C.3    68  ASN68       0.1688
     41  C         22.7330   -4.3040   49.5650 C.2    68  ASN68       0.2292
     42  O         21.8780   -4.3740   48.7080 O.2    68  ASN68      -0.2864
     43  CB        22.5990   -5.7590   51.6120 C.3    68  ASN68       0.1181
     44  CG        22.5620   -7.2400   51.9290 C.2    68  ASN68       0.2629
     45  OD1       23.3340   -7.7770   52.7300 O.2    68  ASN68      -0.2716
     46  ND2       21.7990   -7.9090   51.1790 N.am   68  ASN68      -0.0877
     47  N         24.4220   -2.7450   47.3250 N.3    70  ALA70      -0.1231
     48  CA        24.7690   -2.9570   45.9140 C.3    70  ALA70       0.1694
     49  C         23.8970   -4.0260   45.2630 C.2    70  ALA70       0.2593
     50  O         23.9920   -4.2090   44.0410 O.2    70  ALA70      -0.2718
     51  CB        26.2260   -3.3440   45.7230 C.3    70  ALA70       0.0304
     52  N         23.0260   -4.6870   46.0370 N.am   71  SER71      -0.1938
     53  CA        21.9860   -5.4940   45.4410 C.3    71  SER71       0.2055
     54  C         20.7920   -4.6470   44.9490 C.2    71  SER71       0.2644
     55  O         19.8430   -5.1940   44.3350 O.2    71  SER71      -0.2714
     56  CB        21.5340   -6.6320   46.3300 C.3    71  SER71       0.2130
     57  OG        20.8060   -6.1930   47.4740 O.3    71  SER71      -0.2179
     58  N         20.8710   -3.3380   45.1340 N.am   72  GLY72      -0.1939
     59  CA        19.8070   -2.4420   44.7150 C.3    72  GLY72       0.2014
     60  C         19.9580   -2.0360   43.2810 C.2    72  GLY72       0.2639
     61  O         20.6780   -2.6790   42.5380 O.2    72  GLY72      -0.2714
     62  N         19.2650   -0.9830   42.8490 N.am   73  ASN73      -0.1958
     63  CA        19.3140   -0.6570   41.4280 C.3    73  ASN73       0.1819
     64  C         20.6360   -0.0400   41.0560 C.2    73  ASN73       0.2621
     65  O         21.4970    0.1450   41.9210 O.2    73  ASN73      -0.2715
     66  CB        18.1070    0.1820   40.9760 C.3    73  ASN73       0.1195
     67  CG        18.0310    1.4910   41.6570 C.2    73  ASN73       0.2630
     68  OD1       18.9420    2.2990   41.5660 O.2    73  ASN73      -0.2716
     69  ND2       16.9340    1.7300   42.3320 N.am   73  ASN73      -0.0877
     70  N         20.8110    0.2660   39.7650 N.am   74  ASN74      -0.1972
     71  CA        22.0880    0.8310   39.2790 C.3    74  ASN74       0.1688
     72  C         22.3400    2.2630   39.7580 C.2    74  ASN74       0.2292
     73  O         23.4980    2.6970   39.8480 O.2    74  ASN74      -0.2864
     74  CB        22.1710    0.8020   37.7510 C.3    74  ASN74       0.1181
     75  CG        22.4670   -0.5730   37.1970 C.2    74  ASN74       0.2629
     76  OD1       22.7770   -1.5140   37.9160 O.2    74  ASN74      -0.2716
     77  ND2       22.4230   -0.6730   35.8910 N.am   74  ASN74      -0.0877
     78  N         23.7230    1.5610   43.2010 N.3    77  ILE77      -0.1245
     79  CA        25.1350    1.2010   43.0360 C.3    77  ILE77       0.1561
     80  C         25.9960    2.4450   42.7710 C.2    77  ILE77       0.2260
     81  O         27.1310    2.5870   43.2980 O.2    77  ILE77      -0.2867
     82  CB        25.3300    0.1740   41.8690 C.3    77  ILE77       0.0252
     83  CG1       24.7400   -1.1930   42.2370 C.3    77  ILE77       0.0019
     84  CG2       26.8120   -0.0100   41.5490 C.3    77  ILE77       0.0019
     85  CD1       24.2660   -2.0640   41.0820 C.3    77  ILE77       0.0001
     86  N         35.2020  -12.6890   51.7760 N.3   102  LYS102     -0.1231
     87  CA        34.0270  -13.2790   51.1350 C.3   102  LYS102      0.1693
     88  C         32.9560  -12.2440   50.9350 C.2   102  LYS102      0.2591
     89  O         32.2140  -12.2920   49.9450 O.2   102  LYS102     -0.2718
     90  CB        33.4170  -14.4060   51.9880 C.3   102  LYS102      0.0285
     91  CG        32.2120  -15.0650   51.3380 C.3   102  LYS102      0.0035
     92  CD        31.5430  -16.0710   52.2460 C.3   102  LYS102      0.0206
     93  CE        30.3820  -16.7570   51.5350 C.3   102  LYS102      0.1093
     94  NZ        29.8440  -17.9550   52.2430 N.3   102  LYS102     -0.1314
     95  N         32.8510  -11.3580   51.9130 N.am  103  GLU103     -0.1979
     96  CA        31.8950  -10.2710   51.8980 C.3   103  GLU103      0.1602
     97  C         32.2700   -9.1580   50.9430 C.2   103  GLU103      0.2287
     98  O         31.3950   -8.5520   50.2960 O.2   103  GLU103     -0.2864
     99  CB        31.8150   -9.6470   53.2810 C.3   103  GLU103      0.0415
    100  CG        31.2840  -10.5660   54.3450 C.3   103  GLU103      0.1163
    101  CD        29.9300  -11.1250   53.9590 C.2   103  GLU103      0.3649
    102  OE1       29.2080  -10.4470   53.1780 O.co2 103  GLU103     -0.2457
    103  OE2       29.6200  -12.2480   54.4100 O.co2 103  GLU103     -0.2457
    104  N         31.5560  -10.3720   47.5410 N.3   106  TRP106     -0.1241
    105  CA        30.1350  -10.2960   47.2700 C.3   106  TRP106      0.1605
    106  C         29.7120   -8.8840   46.9010 C.2   106  TRP106      0.2264
    107  O         29.0140   -8.6750   45.9330 O.2   106  TRP106     -0.2867
    108  CB        29.3370  -10.8040   48.4820 C.3   106  TRP106      0.0550
    109  CG        27.9580  -11.2930   48.1490 C.ar  106  TRP106      0.0003
    110  CD1       26.9020  -10.5310   47.7300 C.ar  106  TRP106      0.0946
    111  CD2       27.4410  -12.6250   48.3190 C.ar  106  TRP106      0.0152
    112  NE1       25.7770  -11.3170   47.5830 N.ar  106  TRP106     -0.2442
    113  CE2       26.0800  -12.6020   47.9290 C.ar  106  TRP106      0.0810
    114  CE3       28.0030  -13.8370   48.7260 C.ar  106  TRP106      0.0012
    115  CZ2       25.2670  -13.7570   47.9290 C.ar  106  TRP106      0.0191
    116  CZ3       27.2040  -14.9870   48.7470 C.ar  106  TRP106      0.0001
    117  CH2       25.8470  -14.9400   48.3400 C.ar  106  TRP106      0.0015
    118  N         28.3130   -7.7310   43.0540 N.3   110  ASN110     -0.1240
    119  CA        27.0780   -6.9330   42.8530 C.3   110  ASN110      0.1653
    120  C         27.3010   -5.5910   42.1580 C.2   110  ASN110      0.2266
    121  O         26.5320   -5.1950   41.2820 O.2   110  ASN110     -0.2867
    122  CB        26.3690   -6.7120   44.1680 C.3   110  ASN110      0.1155
    123  CG        25.4590   -7.8420   44.5320 C.2   110  ASN110      0.2627
    124  OD1       25.1280   -8.6840   43.7030 O.2   110  ASN110     -0.2716
    125  ND2       24.9920   -7.8450   45.7800 N.am  110  ASN110     -0.0877
    126  N         27.6020   -6.1810   38.6690 N.3   113  SER113     -0.1217
    127  CA        26.3380   -6.5300   38.0840 C.3   113  SER113      0.1889
    128  C         25.6270   -5.2500   37.6430 C.2   113  SER113      0.2288
    129  O         24.4780   -5.2970   37.1820 O.2   113  SER113     -0.2866
    130  CB        25.4730   -7.2850   39.0820 C.3   113  SER113      0.2089
    131  OG        24.8630   -6.4070   40.0300 O.3   113  SER113     -0.2183
    132  N         34.1560  -19.6030   44.9510 N.3   144  LYS144     -0.1231
    133  CA        32.8650  -19.6060   44.3050 C.3   144  LYS144      0.1693
    134  C         32.3580  -18.1750   44.0980 C.2   144  LYS144      0.2591
    135  O         31.8360  -17.8690   43.0430 O.2   144  LYS144     -0.2718
    136  CB        31.8590  -20.4240   45.1220 C.3   144  LYS144      0.0285
    137  CG        30.4540  -20.4990   44.5310 C.3   144  LYS144      0.0035
    138  CD        29.6080  -21.4560   45.3770 C.3   144  LYS144      0.0206
    139  CE        28.1360  -21.0640   45.4460 C.3   144  LYS144      0.1093
    140  NZ        27.3250  -21.4820   44.2640 N.3   144  LYS144     -0.1314
    141  N         32.5270  -17.3010   45.0850 N.am  145  GLU145     -0.1979
    142  CA        32.0430  -15.9280   44.9230 C.3   145  GLU145      0.1602
    143  C         32.9330  -15.1140   43.9940 C.2   145  GLU145      0.2287
    144  O         32.4380  -14.2880   43.2150 O.2   145  GLU145     -0.2864
    145  CB        31.8240  -15.2180   46.2620 C.3   145  GLU145      0.0415
    146  CG        31.1010  -16.0620   47.3290 C.3   145  GLU145      0.1163
    147  CD        29.8300  -16.7380   46.8490 C.2   145  GLU145      0.3649
    148  OE1       29.2190  -16.3360   45.8310 O.co2 145  GLU145     -0.2457
    149  OE2       29.4360  -17.7110   47.5140 O.co2 145  GLU145     -0.2457
    150  N         32.1190  -15.7500   40.5110 N.3   148  TRP148     -0.1241
    151  CA        30.9090  -15.0410   40.1110 C.3   148  TRP148      0.1605
    152  C         31.2390  -13.5560   39.8150 C.2   148  TRP148      0.2264
    153  O         30.7230  -12.9530   38.8270 O.2   148  TRP148     -0.2867
    154  CB        29.8160  -15.2510   41.1480 C.3   148  TRP148      0.0550
    155  CG        28.7640  -14.1920   41.1770 C.ar  148  TRP148      0.0003
    156  CD1       28.0160  -13.7430   40.1330 C.ar  148  TRP148      0.0946
    157  CD2       28.3270  -13.4710   42.3130 C.ar  148  TRP148      0.0152
    158  NE1       27.1630  -12.7660   40.5410 N.ar  148  TRP148     -0.2442
    159  CE2       27.3110  -12.5830   41.8820 C.ar  148  TRP148      0.0810
    160  CE3       28.6710  -13.4940   43.6630 C.ar  148  TRP148      0.0012
    161  CZ2       26.6350  -11.7030   42.7650 C.ar  148  TRP148      0.0191
    162  CZ3       28.0200  -12.6260   44.5320 C.ar  148  TRP148      0.0001
    163  CH2       27.0150  -11.7190   44.0640 C.ar  148  TRP148      0.0015
    164  N         30.7450  -11.5650   36.1390 N.3   152  ASN152     -0.1240
    165  CA        30.0110  -10.3100   35.9240 C.3   152  ASN152      0.1653
    166  C         30.8670   -9.3180   35.1540 C.2   152  ASN152      0.2266
    167  O         30.4160   -8.6270   34.2020 O.2   152  ASN152     -0.2867
    168  CB        29.5530   -9.7190   37.2700 C.3   152  ASN152      0.1155
    169  CG        28.2440  -10.3300   37.7500 C.2   152  ASN152      0.2627
    170  OD1       27.6480  -11.1650   37.0760 O.2   152  ASN152     -0.2716
    171  ND2       27.7860   -9.9150   38.9300 N.am  152  ASN152     -0.0877
    172  N         29.9870  -22.2330   38.2620 N.3   187  GLU187     -0.1245
    173  CA        30.2530  -20.8290   38.2340 C.3   187  GLU187      0.1567
    174  C         31.3130  -20.4970   37.1700 C.2   187  GLU187      0.2260
    175  O         31.2100  -19.4850   36.4750 O.2   187  GLU187     -0.2867
    176  CB        30.6730  -20.3100   39.5900 C.3   187  GLU187      0.0388
    177  CG        29.5910  -20.3740   40.6730 C.3   187  GLU187      0.1160
    178  CD        28.3830  -19.4850   40.4040 C.2   187  GLU187      0.3649
    179  OE1       28.4610  -18.5580   39.5650 O.co2 187  GLU187     -0.2457
    180  OE2       27.3560  -19.6960   41.0610 O.co2 187  GLU187     -0.2457
@<TRIPOS>BOND
     1   167   166    2
     2   166   165    1
     3    77    75   am
     4   165   164    1
     5   165   168    1
     6   175   174    2
     7   170   169    2
     8   174   173    1
     9   129   128    2
    10    75    74    1
    11    75    76    2
    12   168   169    1
    13   128   127    1
    14   169   171   am
    15    74    71    1
    16   127   126    1
    17   127   130    1
    18   173   172    1
    19   173   176    1
    20   153   152    2
    21   130   131    1
    22    71    72    1
    23    71    70    1
    24   179   178   ar
    25   176   177    1
    26    72    73    2
    27    70    64   am
    28   152   151    1
    29   151   150    1
    30   151   154    1
    31   156   158   ar
    32   156   155   ar
    33   178   177    1
    34   178   180   ar
    35   158   159   ar
    36    66    63    1
    37    66    67    1
    38    64    63    1
    39    64    65    2
    40    85    83    1
    41   154   155    1
    42   155   157   ar
    43   121   120    2
    44    63    62    1
    45    84    82    1
    46    68    67    2
    47    67    69   am
    48    82    83    1
    49    82    79    1
    50   159   157   ar
    51   159   161   ar
    52   120   119    1
    53   157   160   ar
    54    61    60    2
    55   161   163   ar
    56    80    79    1
    57    80    81    2
    58    62    60   am
    59   119   118    1
    60   119   122    1
    61    79    78    1
    62   135   134    2
    63   144   143    2
    64    60    59    1
    65   160   162   ar
    66   124   123    2
    67   143   142    1
    68    50    49    2
    69   163   162   ar
    70   134   133    1
    71   134   141   am
    72   122   123    1
    73   140   139    1
    74   133   132    1
    75   133   136    1
    76    55    54    2
    77   137   136    1
    78   137   138    1
    79   123   125   am
    80    59    58    1
    81   142   141    1
    82   142   145    1
    83    54    58   am
    84    54    53    1
    85    49    48    1
    86    49    52   am
    87   138   139    1
    88    53    52    1
    89    53    56    1
    90    51    48    1
    91   148   147   ar
    92    48    47    1
    93   107   106    2
    94   145   146    1
    95    56    57    1
    96   147   146    1
    97   147   149   ar
    98   106   105    1
    99   105   104    1
   100   105   108    1
   101   112   110   ar
   102   112   113   ar
   103   110   109   ar
   104   115   113   ar
   105   115   117   ar
   106   113   111   ar
   107   109   111   ar
   108   109   108    1
   109    37    36    2
   110   111   114   ar
   111   117   116   ar
   112    42    41    2
   113   114   116   ar
   114    18    17    1
   115    18    19    2
   116    36    35    1
   117    36    39   am
   118    17    16    1
   119    41    40    1
   120    35    38    1
   121    35    34    1
   122    89    88    2
   123    40    39    1
   124    40    43    1
   125    98    97    2
   126    88    87    1
   127    88    95   am
   128    97    96    1
   129    16    14   am
   130    87    86    1
   131    87    90    1
   132    46    44   am
   133    91    90    1
   134    91    92    1
   135    15    14    2
   136    93    94    1
   137    93    92    1
   138    43    44    1
   139    14    13    1
   140    96    95    1
   141    96    99    1
   142    44    45    2
   143     4     3    2
   144     9     8    2
   145   102   101   ar
   146    23    22    2
   147    13    12    1
   148    99   100    1
   149     3     2    1
   150     3     6   am
   151     8    12   am
   152     8     7    1
   153     7     6    1
   154     7    10    1
   155   101   100    1
   156   101   103   ar
   157     2     5    1
   158     2     1    1
   159    22    21    1
   160    11    10    1
   161    21    20    1
   162    21    24    1
   163    28    26   ar
   164    28    29   ar
   165    26    25   ar
   166    29    31   ar
   167    29    27   ar
   168    31    33   ar
   169    25    27   ar
   170    25    24    1
   171    27    30   ar
   172    33    32   ar
   173    30    32   ar
