@<TRIPOS>MOLECULE
tmp/4d4bA00.pdb
 131 126 0 0 0
SMALL
GASTEIGER

@<TRIPOS>ATOM
      1  N          1.1990  -15.3510   16.7940 N.3    35  TRP35      -0.1241
      2  CA         0.1770  -15.6200   15.7870 C.3    35  TRP35       0.1605
      3  C          0.0750  -17.0940   15.4770 C.2    35  TRP35       0.2264
      4  O         -1.0260  -17.6300   15.2890 O.2    35  TRP35      -0.2867
      5  CB         0.4110  -14.7770   14.5300 C.3    35  TRP35       0.0550
      6  CG         1.3100  -15.3450   13.4700 C.ar   35  TRP35       0.0003
      7  CD1        2.6770  -15.1790   13.3540 C.ar   35  TRP35       0.0946
      8  CD2        0.9190  -16.1920   12.3740 C.ar   35  TRP35       0.0152
      9  NE1        3.1240  -15.8470   12.2440 N.ar   35  TRP35      -0.2442
     10  CE2        2.0760  -16.4570   11.6090 C.ar   35  TRP35       0.0810
     11  CE3       -0.3140  -16.6900   11.9230 C.ar   35  TRP35       0.0012
     12  CZ2        2.0430  -17.2370   10.4560 C.ar   35  TRP35       0.0191
     13  CZ3       -0.3460  -17.4450   10.7690 C.ar   35  TRP35       0.0001
     14  CH2        0.8200  -17.7160   10.0450 C.ar   35  TRP35       0.0015
     15  N          0.1520   -5.6310   14.9560 N.3    84  PHE84      -0.1241
     16  CA        -0.2070   -6.4840   13.8230 C.3    84  PHE84       0.1605
     17  C         -1.7040   -6.8030   13.8770 C.2    84  PHE84       0.2264
     18  O         -2.1800   -7.5440   14.7500 O.2    84  PHE84      -0.2867
     19  CB         0.5810   -7.7750   13.8760 C.3    84  PHE84       0.0534
     20  CG         2.0670   -7.6010   13.6180 C.ar   84  PHE84      -0.0203
     21  CD1        2.5620   -7.6140   12.3310 C.ar   84  PHE84      -0.0042
     22  CD2        2.9880   -7.4850   14.6730 C.ar   84  PHE84      -0.0042
     23  CE1        3.9190   -7.4870   12.0740 C.ar   84  PHE84      -0.0003
     24  CE2        4.3510   -7.3380   14.4270 C.ar   84  PHE84      -0.0003
     25  CZ         4.8110   -7.3300   13.1260 C.ar   84  PHE84      -0.0000
     26  N         -3.3260   -8.6260   11.7550 N.3    86  ASP86      -0.1239
     27  CA        -3.4510  -10.0410   11.4990 C.3    86  ASP86       0.1674
     28  C         -3.2850  -10.8600   12.7810 C.2    86  ASP86       0.2266
     29  O         -4.1080  -11.7380   13.0610 O.2    86  ASP86      -0.2867
     30  CB        -2.5340  -10.5030   10.3370 C.3    86  ASP86       0.1410
     31  CG        -1.0620  -10.1370   10.4870 C.2    86  ASP86       0.3668
     32  OD1       -0.7200   -9.3400   11.3780 O.co2  86  ASP86      -0.2456
     33  OD2       -0.2820  -10.6170    9.6230 O.co2  86  ASP86      -0.2456
     34  N         -2.8130   -4.0010    7.2020 N.3   134  TRP134     -0.1241
     35  CA        -2.0220   -5.0170    7.8850 C.3   134  TRP134      0.1605
     36  C         -1.7040   -4.6590    9.3360 C.2   134  TRP134      0.2264
     37  O         -1.8430   -5.5040   10.2320 O.2   134  TRP134     -0.2867
     38  CB        -0.7300   -5.2360    7.0950 C.3   134  TRP134      0.0550
     39  CG         0.1550   -6.3180    7.5930 C.ar  134  TRP134      0.0003
     40  CD1       -0.2180   -7.5550    8.0350 C.ar  134  TRP134      0.0946
     41  CD2        1.5750   -6.2660    7.7000 C.ar  134  TRP134      0.0152
     42  NE1        0.8850   -8.2670    8.4020 N.ar  134  TRP134     -0.2442
     43  CE2        2.0020   -7.5040    8.2050 C.ar  134  TRP134      0.0810
     44  CE3        2.5390   -5.2890    7.4030 C.ar  134  TRP134      0.0012
     45  CZ2        3.3500   -7.7810    8.4580 C.ar  134  TRP134      0.0191
     46  CZ3        3.8710   -5.5710    7.6470 C.ar  134  TRP134      0.0001
     47  CH2        4.2630   -6.7970    8.1620 C.ar  134  TRP134      0.0015
     48  N         -3.3790   -6.5900    3.2870 N.3   143  ASN143     -0.1240
     49  CA        -2.8020   -7.8950    3.0050 C.3   143  ASN143      0.1653
     50  C         -3.8650   -9.0040    3.0270 C.2   143  ASN143      0.2266
     51  O         -4.8300   -8.9470    3.8100 O.2   143  ASN143     -0.2867
     52  CB        -1.7170   -8.2470    4.0460 C.3   143  ASN143      0.1155
     53  CG        -0.4940   -7.3680    3.9980 C.2   143  ASN143      0.2627
     54  OD1        0.6730   -7.8680    4.1760 O.2   143  ASN143     -0.2716
     55  ND2       -0.6870   -6.1160    3.8290 N.am  143  ASN143     -0.0877
     56  N         -3.4290  -11.7940    4.3980 N.3   145  CYS145     -0.1235
     57  CA        -3.2820  -12.4610    5.6970 C.3   145  CYS145      0.1677
     58  C         -4.0470  -11.7850    6.8200 C.2   145  CYS145      0.2270
     59  O         -4.1460  -12.3820    7.8760 O.2   145  CYS145     -0.2867
     60  CB        -1.8000  -12.6020    6.0900 C.3   145  CYS145      0.0956
     61  SG        -0.9330  -11.0380    6.2860 S.3   145  CYS145     -0.0801
     62  N         -0.4600  -11.5730   -2.2940 N.3   190  ASP190     -0.1225
     63  CA        -0.0460  -11.4010   -0.9200 C.3   190  ASP190      0.1805
     64  C         -0.6170  -10.1180   -0.3330 C.2   190  ASP190      0.2597
     65  O         -1.1070  -10.1030    0.8050 O.2   190  ASP190     -0.2718
     66  CB         1.4650  -11.3990   -0.8200 C.3   190  ASP190      0.1424
     67  CG         1.9270  -11.5240    0.6180 C.2   190  ASP190      0.3668
     68  OD1        1.8740  -12.6770    1.1230 O.co2 190  ASP190     -0.2456
     69  OD2        2.2630  -10.4890    1.2360 O.co2 190  ASP190     -0.2456
     70  N         -0.5220   -8.9990   -1.0620 N.am  191  ARG191     -0.1979
     71  CA        -0.8240   -7.7010   -0.4730 C.3   191  ARG191      0.1597
     72  C         -0.8710   -6.6490   -1.5520 C.2   191  ARG191      0.2287
     73  O         -0.4490   -6.9000   -2.6860 O.2   191  ARG191     -0.2864
     74  CB         0.2440   -7.3540    0.5680 C.3   191  ARG191      0.0334
     75  CG         1.6520   -7.2110    0.0220 C.3   191  ARG191      0.0492
     76  CD         2.6820   -7.1050    1.1340 C.3   191  ARG191      0.2205
     77  NE         4.0240   -6.8860    0.6140 N.pl3 191  ARG191     -0.0865
     78  CZ         4.8190   -7.8220    0.1040 C.cat 191  ARG191      0.5346
     79  NH1        4.4700   -9.0930    0.0940 N.pl3 191  ARG191      0.1354
     80  NH2        5.9940   -7.4820   -0.3940 N.pl3 191  ARG191      0.1354
     81  N          0.7190  -17.8660   -1.8460 N.3   203  THR203     -0.1218
     82  CA         1.2230  -18.7740   -0.8300 C.3   203  THR203      0.1862
     83  C          0.1050  -19.6480   -0.2980 C.2   203  THR203      0.2287
     84  O         -1.0870  -19.3420   -0.4070 O.2   203  THR203     -0.2866
     85  CB         1.8320  -18.0580    0.3880 C.3   203  THR203      0.1770
     86  OG1        0.8480  -17.1830    0.9370 O.3   203  THR203     -0.2211
     87  CG2        3.1210  -17.2900    0.0110 C.3   203  THR203      0.0375
     88  N         -1.0260  -20.3170    2.7780 N.3   205  TYR205     -0.1227
     89  CA        -1.9700  -19.8930    3.7970 C.3   205  TYR205      0.1736
     90  C         -2.9700  -18.8890    3.2720 C.2   205  TYR205      0.2595
     91  O         -4.0990  -18.8630    3.7750 O.2   205  TYR205     -0.2718
     92  CB        -1.2840  -19.3960    5.0650 C.3   205  TYR205      0.0548
     93  CG        -0.6940  -17.9880    5.1090 C.ar  205  TYR205     -0.0200
     94  CD1        0.1000  -17.4630    4.0870 C.ar  205  TYR205     -0.0009
     95  CD2       -0.8540  -17.2060    6.2460 C.ar  205  TYR205     -0.0009
     96  CE1        0.6860  -16.2110    4.1940 C.ar  205  TYR205      0.0417
     97  CE2       -0.2500  -15.9670    6.3630 C.ar  205  TYR205      0.0417
     98  CZ         0.5120  -15.4670    5.3350 C.ar  205  TYR205      0.1957
     99  OH         1.0950  -14.2180    5.4790 O.3   205  TYR205     -0.2866
    100  N         -2.6170  -18.0660    2.3030 N.am  206  ASN206     -0.1974
    101  CA        -3.5680  -17.1380    1.7180 C.3   206  ASN206      0.1688
    102  C         -4.5240  -17.8020    0.7430 C.2   206  ASN206      0.2292
    103  O         -5.6990  -17.4300    0.6930 O.2   206  ASN206     -0.2864
    104  CB        -2.8270  -15.9560    1.0720 C.3   206  ASN206      0.1181
    105  CG        -2.2590  -14.9860    2.0970 C.2   206  ASN206      0.2629
    106  OD1       -2.8250  -14.7900    3.1680 O.2   206  ASN206     -0.2716
    107  ND2       -1.1640  -14.3280    1.7460 N.am  206  ASN206     -0.0877
    108  N         11.3860  -18.6390    4.9890 N.3   254  ASN254     -0.1240
    109  CA        10.5890  -17.7350    5.8040 C.3   254  ASN254      0.1653
    110  C          9.8340  -18.4970    6.8940 C.2   254  ASN254      0.2266
    111  O          9.1040  -19.4320    6.6050 O.2   254  ASN254     -0.2867
    112  CB         9.6200  -16.9860    4.9130 C.3   254  ASN254      0.1155
    113  CG         8.7800  -16.0140    5.6730 C.2   254  ASN254      0.2627
    114  OD1        7.8650  -16.4050    6.4000 O.2   254  ASN254     -0.2716
    115  ND2        9.0330  -14.7450    5.4690 N.am  254  ASN254     -0.0877
    116  N          7.3410  -17.6920    8.8740 N.3   256  ASP256     -0.1225
    117  CA         5.8880  -17.5780    8.8720 C.3   256  ASP256      0.1805
    118  C          5.2770  -18.4680    7.8030 C.2   256  ASP256      0.2597
    119  O          4.2250  -19.0800    8.0480 O.2   256  ASP256     -0.2718
    120  CB         5.4940  -16.1120    8.6960 C.3   256  ASP256      0.1424
    121  CG         5.9980  -15.2570    9.8520 C.2   256  ASP256      0.3668
    122  OD1        5.7570  -15.6970   11.0080 O.co2 256  ASP256     -0.2456
    123  OD2        6.6670  -14.2220    9.5970 O.co2 256  ASP256     -0.2456
    124  N          5.9270  -18.5670    6.6440 N.am  257  LEU257     -0.1979
    125  CA         5.3830  -19.3480    5.5360 C.3   257  LEU257      0.1596
    126  C          5.6310  -20.8400    5.7040 C.2   257  LEU257      0.2287
    127  O          4.8860  -21.6520    5.1570 O.2   257  LEU257     -0.2864
    128  CB         5.9580  -18.9130    4.1960 C.3   257  LEU257      0.0297
    129  CG         5.6760  -17.4740    3.7890 C.3   257  LEU257      0.0022
    130  CD1        6.2950  -17.2430    2.4370 C.3   257  LEU257      0.0001
    131  CD2        4.1740  -17.1820    3.7840 C.3   257  LEU257      0.0001
@<TRIPOS>BOND
     1    73    72    2
     2    62    63    1
     3    81    82    1
     4    72    71    1
     5    70    71    1
     6    70    64   am
     7    63    66    1
     8    63    64    1
     9    82    83    1
    10    82    85    1
    11    66    67    1
    12    71    74    1
    13    84    83    2
    14    80    78    1
    15    64    65    2
    16    87    85    1
    17    75    74    1
    18    75    76    1
    19    79    78    1
    20    78    77    2
    21    85    86    1
    22    77    76    1
    23    67    68   ar
    24    67    69   ar
    25   103   102    2
    26   102   101    1
    27   104   101    1
    28   104   105    1
    29   101   100    1
    30   107   105   am
    31   105   106    2
    32   100    90   am
    33   130   129    1
    34    88    89    1
    35    49    50    1
    36    49    48    1
    37    49    52    1
    38    50    51    2
    39    90    91    2
    40    90    89    1
    41   131   129    1
    42   129   128    1
    43    89    92    1
    44    55    53   am
    45    53    52    1
    46    53    54    2
    47    94    96   ar
    48    94    93   ar
    49    96    98   ar
    50   128   125    1
    51    56    57    1
    52   112   113    1
    53   112   109    1
    54   108   109    1
    55    92    93    1
    56    93    95   ar
    57   127   126    2
    58    98    99    1
    59    98    97   ar
    60   115   113   am
    61   125   126    1
    62   125   124    1
    63   113   114    2
    64    57    60    1
    65    57    58    1
    66   109   110    1
    67    60    61    1
    68    95    97   ar
    69   111   110    2
    70   124   118   am
    71    58    59    2
    72    38    39    1
    73    38    35    1
    74    34    35    1
    75    44    46   ar
    76    44    41   ar
    77    39    41   ar
    78    39    40   ar
    79    46    47   ar
    80    41    43   ar
    81   118   119    2
    82   118   117    1
    83    35    36    1
    84    40    42   ar
    85    47    45   ar
    86    43    42   ar
    87    43    45   ar
    88   120   117    1
    89   120   121    1
    90   117   116    1
    91    36    37    2
    92   123   121   ar
    93    33    31   ar
    94   121   122   ar
    95    14    12   ar
    96    14    13   ar
    97    30    31    1
    98    30    27    1
    99    12    10   ar
   100    31    32   ar
   101    13    11   ar
   102    27    26    1
   103    27    28    1
   104    10     9   ar
   105    10     8   ar
   106    11     8   ar
   107    23    21   ar
   108    23    25   ar
   109     9     7   ar
   110    21    20   ar
   111     8     6   ar
   112    28    29    2
   113    25    24   ar
   114     7     6   ar
   115     6     5    1
   116    20    19    1
   117    20    22   ar
   118    16    19    1
   119    16    17    1
   120    16    15    1
   121    17    18    2
   122    24    22   ar
   123     5     2    1
   124     4     3    2
   125     3     2    1
   126     2     1    1
