@<TRIPOS>MOLECULE
tmp/4d4cB00.pdb
 106 100 0 0 0
SMALL
GASTEIGER

@<TRIPOS>ATOM
      1  N        -13.9570  -21.3320  -38.8970 N.3    92  ASP92      -0.1239
      2  CA       -12.5900  -21.1660  -38.4320 C.3    92  ASP92       0.1674
      3  C        -11.5280  -21.5480  -39.4740 C.2    92  ASP92       0.2266
      4  O        -10.5980  -20.7780  -39.7140 O.2    92  ASP92      -0.2867
      5  CB       -12.3510  -21.8310  -37.0630 C.3    92  ASP92       0.1410
      6  CG       -12.6710  -23.3130  -37.0170 C.2    92  ASP92       0.3668
      7  OD1      -13.2960  -23.8510  -37.9580 O.co2  92  ASP92      -0.2456
      8  OD2      -12.3690  -23.9000  -35.9500 O.co2  92  ASP92      -0.2456
      9  N        -19.5010  -21.1080  -35.3850 N.3   140  TRP140     -0.1241
     10  CA       -18.3460  -21.9460  -35.6560 C.3   140  TRP140      0.1605
     11  C        -18.3790  -22.5300  -37.0680 C.2   140  TRP140      0.2264
     12  O        -17.3590  -22.5270  -37.7710 O.2   140  TRP140     -0.2867
     13  CB       -18.2800  -23.0760  -34.6380 C.3   140  TRP140      0.0550
     14  CG       -17.0730  -23.9450  -34.7140 C.ar  140  TRP140      0.0003
     15  CD1      -15.7910  -23.5580  -34.9340 C.ar  140  TRP140      0.0946
     16  CD2      -17.0430  -25.3660  -34.5580 C.ar  140  TRP140      0.0152
     17  NE1      -14.9700  -24.6400  -34.9200 N.ar  140  TRP140     -0.2442
     18  CE2      -15.7050  -25.7700  -34.6940 C.ar  140  TRP140      0.0810
     19  CE3      -18.0270  -26.3390  -34.2970 C.ar  140  TRP140      0.0012
     20  CZ2      -15.3130  -27.1150  -34.6030 C.ar  140  TRP140      0.0191
     21  CZ3      -17.6440  -27.6690  -34.2190 C.ar  140  TRP140      0.0001
     22  CH2      -16.2980  -28.0470  -34.3610 C.ar  140  TRP140      0.0015
     23  N        -17.6410  -19.8780  -31.1880 N.3   149  ASN149     -0.1240
     24  CA       -16.3820  -20.3220  -30.5900 C.3   149  ASN149      0.1653
     25  C        -15.2820  -19.2310  -30.5960 C.2   149  ASN149      0.2266
     26  O        -15.1880  -18.4090  -31.5120 O.2   149  ASN149     -0.2867
     27  CB       -15.8050  -21.5730  -31.2940 C.3   149  ASN149      0.1155
     28  CG       -16.7000  -22.8210  -31.2280 C.2   149  ASN149      0.2627
     29  OD1      -16.2090  -23.9540  -31.1120 O.2   149  ASN149     -0.2716
     30  ND2      -17.9920  -22.6360  -31.3380 N.am  149  ASN149     -0.0877
     31  N        -12.2550  -19.8440  -31.2550 N.3   151  CYS151     -0.1235
     32  CA       -11.3340  -20.1630  -32.3540 C.3   151  CYS151      0.1677
     33  C        -11.7690  -19.6500  -33.7200 C.2   151  CYS151      0.2270
     34  O        -10.9810  -19.7240  -34.6700 O.2   151  CYS151     -0.2867
     35  CB       -11.0850  -21.6730  -32.4630 C.3   151  CYS151      0.0956
     36  SG       -12.5560  -22.6500  -32.7600 S.3   151  CYS151     -0.0801
     37  N        -13.7880  -21.5590  -24.3370 N.3   196  ASP196     -0.1225
     38  CA       -13.7220  -22.2010  -25.6370 C.3   196  ASP196      0.1805
     39  C        -14.8560  -21.7960  -26.5570 C.2   196  ASP196      0.2597
     40  O        -14.6430  -21.5260  -27.7460 O.2   196  ASP196     -0.2718
     41  CB       -13.7040  -23.7140  -25.4630 C.3   196  ASP196      0.1424
     42  CG       -13.2950  -24.4330  -26.7200 C.2   196  ASP196      0.3668
     43  OD1      -12.0590  -24.5360  -26.9430 O.co2 196  ASP196     -0.2456
     44  OD2      -14.1740  -24.8420  -27.5060 O.co2 196  ASP196     -0.2456
     45  N        -16.0880  -21.8180  -26.0530 N.am  197  ARG197     -0.1979
     46  CA       -17.2760  -21.6630  -26.9030 C.3   197  ARG197      0.1597
     47  C        -18.4980  -21.4650  -26.0420 C.2   197  ARG197      0.2287
     48  O        -18.4550  -21.6440  -24.8290 O.2   197  ARG197     -0.2864
     49  CB       -17.4210  -22.8930  -27.8130 C.3   197  ARG197      0.0334
     50  CG       -17.7220  -24.1870  -27.0740 C.3   197  ARG197      0.0492
     51  CD       -17.6780  -25.4010  -27.9980 C.3   197  ARG197      0.2205
     52  NE       -17.9670  -26.6340  -27.2610 N.pl3 197  ARG197     -0.0865
     53  CZ       -17.0950  -27.2810  -26.4880 C.cat 197  ARG197      0.5346
     54  NH1      -15.8300  -26.8730  -26.3900 N.pl3 197  ARG197      0.1354
     55  NH2      -17.4580  -28.3910  -25.8370 N.pl3 197  ARG197      0.1354
     56  N         -7.5910  -22.6330  -23.3040 N.3   209  THR209     -0.1218
     57  CA        -6.4730  -23.2590  -23.9710 C.3   209  THR209      0.1862
     58  C         -5.5130  -22.2120  -24.5060 C.2   209  THR209      0.2287
     59  O         -5.8400  -21.0390  -24.6600 O.2   209  THR209     -0.2866
     60  CB        -6.9340  -24.0990  -25.1720 C.3   209  THR209      0.1770
     61  OG1       -7.6820  -23.2580  -26.0590 O.3   209  THR209     -0.2211
     62  CG2       -7.7750  -25.3270  -24.7490 C.3   209  THR209      0.0375
     63  N         -4.2250  -21.6590  -27.5740 N.3   211  TYR211     -0.1227
     64  CA        -4.4320  -20.9350  -28.8140 C.3   211  TYR211      0.1736
     65  C         -5.5220  -19.8610  -28.7170 C.2   211  TYR211      0.2595
     66  O         -5.4620  -18.8790  -29.4340 O.2   211  TYR211     -0.2718
     67  CB        -4.6750  -21.8700  -30.0080 C.3   211  TYR211      0.0548
     68  CG        -6.0570  -22.4820  -30.2190 C.ar  211  TYR211     -0.0200
     69  CD1       -6.7660  -23.1110  -29.1920 C.ar  211  TYR211     -0.0009
     70  CD2       -6.5660  -22.6030  -31.4960 C.ar  211  TYR211     -0.0009
     71  CE1       -8.0030  -23.7230  -29.4250 C.ar  211  TYR211      0.0417
     72  CE2       -7.8070  -23.1720  -31.7300 C.ar  211  TYR211      0.0417
     73  CZ        -8.4780  -23.8120  -30.7080 C.ar  211  TYR211      0.1957
     74  OH        -9.7160  -24.4080  -30.9530 O.3   211  TYR211     -0.2866
     75  N         -6.5180  -20.0560  -27.8540 N.am  212  ASN212     -0.1974
     76  CA        -7.5670  -19.0690  -27.6250 C.3   212  ASN212      0.1688
     77  C         -7.0710  -17.9250  -26.7430 C.2   212  ASN212      0.2292
     78  O         -7.3990  -16.7620  -26.9690 O.2   212  ASN212     -0.2864
     79  CB        -8.8570  -19.7080  -27.1060 C.3   212  ASN212      0.1181
     80  CG        -9.5990  -20.4890  -28.1770 C.2   212  ASN212      0.2629
     81  OD1       -9.5960  -20.1210  -29.3640 O.2   212  ASN212     -0.2716
     82  ND2      -10.3190  -21.5280  -27.7380 N.am  212  ASN212     -0.0877
     83  N         -5.1200  -34.3740  -27.7480 N.3   260  ASN260     -0.1240
     84  CA        -5.9320  -33.7660  -28.8140 C.3   260  ASN260      0.1653
     85  C         -5.0400  -33.2030  -29.9100 C.2   260  ASN260      0.2266
     86  O         -4.0920  -32.4590  -29.6150 O.2   260  ASN260     -0.2867
     87  CB        -6.8030  -32.6420  -28.2640 C.3   260  ASN260      0.1155
     88  CG        -7.6890  -32.0190  -29.3240 C.2   260  ASN260      0.2627
     89  OD1       -7.2400  -31.1940  -30.1190 O.2   260  ASN260     -0.2716
     90  ND2       -8.9510  -32.4110  -29.3470 N.am  260  ASN260     -0.0877
     91  N         -5.5870  -31.0600  -32.4500 N.3   262  ASP262     -0.1225
     92  CA        -5.6540  -29.6170  -32.6940 C.3   262  ASP262      0.1805
     93  C         -4.9500  -28.8230  -31.6080 C.2   262  ASP262      0.2597
     94  O         -4.3000  -27.8030  -31.9110 O.2   262  ASP262     -0.2718
     95  CB        -7.0990  -29.1570  -32.8040 C.3   262  ASP262      0.1424
     96  CG        -7.7580  -29.5940  -34.1040 C.2   262  ASP262      0.3668
     97  OD1       -7.0630  -29.7810  -35.1230 O.co2 262  ASP262     -0.2456
     98  OD2       -8.9960  -29.7210  -34.1050 O.co2 262  ASP262     -0.2456
     99  N         -5.0670  -29.2650  -30.3580 N.am  263  LEU263     -0.1979
    100  CA        -4.5150  -28.4890  -29.2430 C.3   263  LEU263      0.1596
    101  C         -3.0270  -28.7260  -29.0740 C.2   263  LEU263      0.2287
    102  O         -2.3150  -27.8900  -28.5430 O.2   263  LEU263     -0.2864
    103  CB        -5.2220  -28.8210  -27.9310 C.3   263  LEU263      0.0297
    104  CG        -6.7240  -28.5320  -27.8390 C.3   263  LEU263      0.0022
    105  CD1       -7.2160  -28.8920  -26.4460 C.3   263  LEU263      0.0001
    106  CD2       -7.0280  -27.0540  -28.1450 C.3   263  LEU263      0.0001
@<TRIPOS>BOND
     1     4     3    2
     2     3     2    1
     3     1     2    1
     4     2     5    1
     5     7     6   ar
     6    12    11    2
     7    11    10    1
     8     5     6    1
     9     6     8   ar
    10    10     9    1
    11    10    13    1
    12    97    96   ar
    13    15    17   ar
    14    15    14   ar
    15    17    18   ar
    16    14    13    1
    17    14    16   ar
    18    18    20   ar
    19    18    16   ar
    20    34    33    2
    21    20    22   ar
    22    16    19   ar
    23    22    21   ar
    24    19    21   ar
    25    98    96   ar
    26    96    95    1
    27    33    32    1
    28    95    92    1
    29    36    35    1
    30    92    91    1
    31    92    93    1
    32    35    32    1
    33    32    31    1
    34    94    93    2
    35    72    70   ar
    36    72    73   ar
    37    93    99   am
    38    26    25    2
    39    70    68   ar
    40    30    28   am
    41    27    28    1
    42    27    24    1
    43    28    29    2
    44    23    24    1
    45    74    73    1
    46    73    71   ar
    47    25    24    1
    48    99   100    1
    49    68    67    1
    50    68    69   ar
    51    89    88    2
    52    67    64    1
    53    85    86    2
    54    85    84    1
    55    66    65    2
    56    71    69   ar
    57    81    80    2
    58    90    88   am
    59    88    87    1
    60   100   101    1
    61   100   103    1
    62   101   102    2
    63    64    65    1
    64    64    63    1
    65    84    87    1
    66    84    83    1
    67    65    75   am
    68    80    82   am
    69    80    79    1
    70   106   104    1
    71    51    52    1
    72    51    50    1
    73   103   104    1
    74    75    76    1
    75   104   105    1
    76    49    50    1
    77    49    46    1
    78    40    39    2
    79    76    79    1
    80    76    77    1
    81    44    42   ar
    82    52    53    2
    83    78    77    2
    84    43    42   ar
    85    46    45    1
    86    46    47    1
    87    42    41    1
    88    39    45   am
    89    39    38    1
    90    53    54    1
    91    53    55    1
    92    61    60    1
    93    47    48    2
    94    38    41    1
    95    38    37    1
    96    60    62    1
    97    60    57    1
    98    59    58    2
    99    58    57    1
   100    57    56    1
