@<TRIPOS>MOLECULE
tmp/4d4dA00.pdb
 119 117 0 0 0
SMALL
GASTEIGER

@<TRIPOS>ATOM
      1  N          1.3190  -15.5010   16.8100 N.3    35  TRP35      -0.1241
      2  CA         0.2770  -15.7410   15.8070 C.3    35  TRP35       0.1605
      3  C          0.1800  -17.2260   15.4720 C.2    35  TRP35       0.2264
      4  O         -0.9160  -17.7810   15.3020 O.2    35  TRP35      -0.2867
      5  CB         0.5120  -14.9070   14.5580 C.3    35  TRP35       0.0550
      6  CG         1.4630  -15.4790   13.5260 C.ar   35  TRP35       0.0003
      7  CD1        2.8080  -15.2660   13.4370 C.ar   35  TRP35       0.0946
      8  CD2        1.1080  -16.2810   12.3910 C.ar   35  TRP35       0.0152
      9  NE1        3.3020  -15.8880   12.3260 N.ar   35  TRP35      -0.2442
     10  CE2        2.2860  -16.5260   11.6690 C.ar   35  TRP35       0.0810
     11  CE3       -0.0970  -16.8020   11.9090 C.ar   35  TRP35       0.0012
     12  CZ2        2.2960  -17.2790   10.4940 C.ar   35  TRP35       0.0191
     13  CZ3       -0.0890  -17.5360   10.7420 C.ar   35  TRP35       0.0001
     14  CH2        1.1000  -17.7770   10.0530 C.ar   35  TRP35       0.0015
     15  N          0.3270   -5.7400   14.7260 N.3    84  PHE84      -0.1241
     16  CA        -0.0550   -6.6060   13.6090 C.3    84  PHE84       0.1605
     17  C         -1.5560   -6.9150   13.6690 C.2    84  PHE84       0.2264
     18  O         -2.0180   -7.6360   14.5570 O.2    84  PHE84      -0.2867
     19  CB         0.7290   -7.9140   13.6730 C.3    84  PHE84       0.0534
     20  CG         2.1870   -7.7980   13.3500 C.ar   84  PHE84      -0.0203
     21  CD1        2.6350   -7.8550   12.0400 C.ar   84  PHE84      -0.0042
     22  CD2        3.1250   -7.6900   14.3670 C.ar   84  PHE84      -0.0042
     23  CE1        3.9790   -7.7700   11.7420 C.ar   84  PHE84      -0.0003
     24  CE2        4.4680   -7.6190   14.0890 C.ar   84  PHE84      -0.0003
     25  CZ         4.8970   -7.6570   12.7710 C.ar   84  PHE84      -0.0000
     26  N         -3.1910   -8.7170   11.5970 N.3    86  ASP86      -0.1225
     27  CA        -3.3350  -10.1500   11.3330 C.3    86  ASP86       0.1805
     28  C         -3.1480  -10.9960   12.6110 C.2    86  ASP86       0.2597
     29  O         -3.9910  -11.8610   12.8920 O.2    86  ASP86      -0.2718
     30  CB        -2.4720  -10.6430   10.1520 C.3    86  ASP86       0.1424
     31  CG        -0.9840  -10.2760   10.2490 C.2    86  ASP86       0.3668
     32  OD1       -0.5670   -9.5240   11.1260 O.co2  86  ASP86      -0.2456
     33  OD2       -0.2150  -10.7590    9.3640 O.co2  86  ASP86      -0.2456
     34  N         -2.1060  -10.7080   13.4080 N.am   87  ASP87      -0.1974
     35  CA        -1.9070  -11.4450   14.6790 C.3    87  ASP87       0.1709
     36  C         -3.1920  -11.4020   15.5150 C.2    87  ASP87       0.2293
     37  O         -3.6300  -12.4170   16.0610 O.2    87  ASP87      -0.2864
     38  CB        -0.7810  -10.8620   15.5160 C.3    87  ASP87       0.1436
     39  CG         0.6150  -11.1470   14.9630 C.2    87  ASP87       0.3671
     40  OD1        0.7770  -11.4230   13.7600 O.co2  87  ASP87      -0.2456
     41  OD2        1.5810  -11.0360   15.7840 O.co2  87  ASP87      -0.2456
     42  N         -6.0080  -13.5810   13.8690 N.3    90  TRP90      -0.1241
     43  CA        -5.8540  -15.0260   14.0190 C.3    90  TRP90       0.1605
     44  C         -6.3750  -15.4670   15.3930 C.2    90  TRP90       0.2264
     45  O         -7.0410  -16.5030   15.5140 O.2    90  TRP90      -0.2867
     46  CB        -4.4000  -15.4590   13.8240 C.3    90  TRP90       0.0550
     47  CG        -3.7910  -15.2860   12.4380 C.ar   90  TRP90       0.0003
     48  CD1       -2.7650  -14.4630   12.1150 C.ar   90  TRP90       0.0946
     49  CD2       -4.1200  -16.0050   11.2330 C.ar   90  TRP90       0.0152
     50  NE1       -2.4360  -14.5970   10.7950 N.ar   90  TRP90      -0.2442
     51  CE2       -3.2320  -15.5550   10.2280 C.ar   90  TRP90       0.0810
     52  CE3       -5.0590  -16.9980   10.9170 C.ar   90  TRP90       0.0012
     53  CZ2       -3.2610  -16.0520    8.9280 C.ar   90  TRP90       0.0191
     54  CZ3       -5.0830  -17.4990    9.6150 C.ar   90  TRP90       0.0001
     55  CH2       -4.1950  -17.0150    8.6360 C.ar   90  TRP90       0.0015
     56  N         -2.7260   -4.0950    7.0020 N.3   134  TRP134     -0.1241
     57  CA        -1.9260   -5.1270    7.6490 C.3   134  TRP134      0.1605
     58  C         -1.6040   -4.7860    9.1170 C.2   134  TRP134      0.2264
     59  O         -1.7420   -5.6380    9.9940 O.2   134  TRP134     -0.2867
     60  CB        -0.6140   -5.2940    6.8770 C.3   134  TRP134      0.0550
     61  CG         0.2540   -6.4150    7.3200 C.ar  134  TRP134      0.0003
     62  CD1       -0.1330   -7.6580    7.7230 C.ar  134  TRP134      0.0946
     63  CD2        1.6850   -6.3940    7.3810 C.ar  134  TRP134      0.0152
     64  NE1        0.9730   -8.4160    8.0430 N.ar  134  TRP134     -0.2442
     65  CE2        2.1040   -7.6560    7.8610 C.ar  134  TRP134      0.0810
     66  CE3        2.6560   -5.4180    7.1180 C.ar  134  TRP134      0.0012
     67  CZ2        3.4390   -7.9670    8.0600 C.ar  134  TRP134      0.0191
     68  CZ3        3.9680   -5.7350    7.3290 C.ar  134  TRP134      0.0001
     69  CH2        4.3530   -6.9970    7.7880 C.ar  134  TRP134      0.0015
     70  N         -3.3090   -6.7330    3.1090 N.3   143  ASN143     -0.1240
     71  CA        -2.7410   -8.0550    2.8500 C.3   143  ASN143      0.1653
     72  C         -3.8010   -9.1600    2.8770 C.2   143  ASN143      0.2266
     73  O         -4.7800   -9.0850    3.6510 O.2   143  ASN143     -0.2867
     74  CB        -1.6360   -8.4110    3.8860 C.3   143  ASN143      0.1155
     75  CG        -0.3920   -7.5310    3.8010 C.2   143  ASN143      0.2627
     76  OD1        0.7760   -8.0210    3.9770 O.2   143  ASN143     -0.2716
     77  ND2       -0.5980   -6.2670    3.5920 N.am  143  ASN143     -0.0877
     78  N         -3.3780  -11.9630    4.2190 N.3   145  CYS145     -0.1235
     79  CA        -3.2550  -12.6310    5.5090 C.3   145  CYS145      0.1677
     80  C         -3.9600  -11.9350    6.6710 C.2   145  CYS145      0.2270
     81  O         -4.0160  -12.5120    7.7630 O.2   145  CYS145     -0.2867
     82  CB        -1.7710  -12.8310    5.8810 C.3   145  CYS145      0.0956
     83  SG        -0.8210  -11.3140    6.0730 S.3   145  CYS145     -0.0801
     84  N         -0.9390  -20.5200    2.6950 N.3   205  TYR205     -0.1241
     85  CA        -1.8890  -20.0770    3.7290 C.3   205  TYR205      0.1605
     86  C         -2.9130  -19.0720    3.2170 C.2   205  TYR205      0.2264
     87  O         -4.0310  -19.0250    3.7470 O.2   205  TYR205     -0.2867
     88  CB        -1.2090  -19.5980    5.0160 C.3   205  TYR205      0.0534
     89  CG        -0.6210  -18.1880    5.0650 C.ar  205  TYR205     -0.0201
     90  CD1        0.1170  -17.6310    4.0030 C.ar  205  TYR205     -0.0009
     91  CD2       -0.7350  -17.4390    6.2290 C.ar  205  TYR205     -0.0009
     92  CE1        0.6970  -16.3670    4.1110 C.ar  205  TYR205      0.0417
     93  CE2       -0.1400  -16.1880    6.3520 C.ar  205  TYR205      0.0417
     94  CZ         0.5700  -15.6490    5.2980 C.ar  205  TYR205      0.1957
     95  OH         1.1580  -14.4130    5.4500 O.3   205  TYR205     -0.2866
     96  N         11.5150  -18.8280    4.9450 N.3   254  ASN254     -0.1240
     97  CA        10.7130  -17.9210    5.7420 C.3   254  ASN254      0.1653
     98  C          9.9540  -18.6620    6.8450 C.2   254  ASN254      0.2266
     99  O          9.2060  -19.6020    6.5720 O.2   254  ASN254     -0.2867
    100  CB         9.7530  -17.1640    4.8500 C.3   254  ASN254      0.1155
    101  CG         8.9050  -16.1810    5.6270 C.2   254  ASN254      0.2627
    102  OD1        7.9590  -16.5540    6.3030 O.2   254  ASN254     -0.2716
    103  ND2        9.2500  -14.9230    5.5490 N.am  254  ASN254     -0.0877
    104  N          7.4700  -17.8270    8.8190 N.3   256  ASP256     -0.1225
    105  CA         6.0140  -17.7250    8.8090 C.3   256  ASP256      0.1805
    106  C          5.3790  -18.6320    7.7630 C.2   256  ASP256      0.2597
    107  O          4.3350  -19.2520    8.0330 O.2   256  ASP256     -0.2718
    108  CB         5.6040  -16.2580    8.6280 C.3   256  ASP256      0.1424
    109  CG         6.0540  -15.3770    9.8010 C.2   256  ASP256      0.3668
    110  OD1        5.8790  -15.8060   10.9720 O.co2 256  ASP256     -0.2456
    111  OD2        6.5840  -14.2700    9.5400 O.co2 256  ASP256     -0.2456
    112  N          6.0230  -18.7530    6.6030 N.am  257  LEU257     -0.1979
    113  CA         5.4930  -19.5730    5.5090 C.3   257  LEU257      0.1596
    114  C          5.7650  -21.0650    5.6780 C.2   257  LEU257      0.2287
    115  O          5.0310  -21.8890    5.1180 O.2   257  LEU257     -0.2864
    116  CB         6.0490  -19.1170    4.1550 C.3   257  LEU257      0.0297
    117  CG         5.6860  -17.6960    3.7350 C.3   257  LEU257      0.0022
    118  CD1        6.3480  -17.3970    2.4040 C.3   257  LEU257      0.0001
    119  CD2        4.1730  -17.5170    3.6600 C.3   257  LEU257      0.0001
@<TRIPOS>BOND
     1   118   117    1
     2    84    85    1
     3    71    72    1
     4    71    70    1
     5    71    74    1
     6    72    73    2
     7    86    85    1
     8    86    87    2
     9    77    75   am
    10   119   117    1
    11    85    88    1
    12   117   116    1
    13    75    74    1
    14    75    76    2
    15    90    92   ar
    16    90    89   ar
    17    92    94   ar
    18   116   113    1
    19    78    79    1
    20   100   101    1
    21   100    97    1
    22    96    97    1
    23    88    89    1
    24    89    91   ar
    25   115   114    2
    26    94    95    1
    27    94    93   ar
    28   113   114    1
    29   113   112    1
    30    79    82    1
    31    79    80    1
    32   103   101   am
    33   101   102    2
    34    97    98    1
    35    82    83    1
    36    91    93   ar
    37    99    98    2
    38   112   106   am
    39    80    81    2
    40    60    61    1
    41    60    57    1
    42    56    57    1
    43    66    68   ar
    44    66    63   ar
    45    61    63   ar
    46    61    62   ar
    47    68    69   ar
    48    63    65   ar
    49    57    58    1
    50    62    64   ar
    51   106   107    2
    52   106   105    1
    53    69    67   ar
    54    65    64   ar
    55    65    67   ar
    56   108   105    1
    57   108   109    1
    58    55    53   ar
    59    55    54   ar
    60   105   104    1
    61    53    51   ar
    62    58    59    2
    63    33    31   ar
    64   111   109   ar
    65    54    52   ar
    66   109   110   ar
    67    14    12   ar
    68    14    13   ar
    69    30    31    1
    70    30    27    1
    71    51    50   ar
    72    51    49   ar
    73    31    32   ar
    74    12    10   ar
    75    13    11   ar
    76    50    48   ar
    77    52    49   ar
    78    49    47   ar
    79    27    26    1
    80    27    28    1
    81    10     9   ar
    82    10     8   ar
    83    23    21   ar
    84    23    25   ar
    85    11     8   ar
    86    21    20   ar
    87    48    47   ar
    88     9     7   ar
    89     8     6   ar
    90    47    46    1
    91    28    29    2
    92    28    34   am
    93    25    24   ar
    94    20    19    1
    95    20    22   ar
    96    34    35    1
    97     7     6   ar
    98     6     5    1
    99    16    17    1
   100    16    19    1
   101    16    15    1
   102    17    18    2
   103    40    39   ar
   104    46    43    1
   105    42    43    1
   106    43    44    1
   107    24    22   ar
   108     5     2    1
   109    35    36    1
   110    35    38    1
   111    39    38    1
   112    39    41   ar
   113     4     3    2
   114    44    45    2
   115     3     2    1
   116    36    37    2
   117     2     1    1
