@<TRIPOS>MOLECULE
tmp/4d4dA01.pdb
 106 100 0 0 0
SMALL
GASTEIGER

@<TRIPOS>ATOM
      1  N         -3.1910   -8.7170   11.5970 N.3    86  ASP86      -0.1239
      2  CA        -3.3350  -10.1500   11.3330 C.3    86  ASP86       0.1674
      3  C         -3.1480  -10.9960   12.6110 C.2    86  ASP86       0.2266
      4  O         -3.9910  -11.8610   12.8920 O.2    86  ASP86      -0.2867
      5  CB        -2.4720  -10.6430   10.1520 C.3    86  ASP86       0.1410
      6  CG        -0.9840  -10.2760   10.2490 C.2    86  ASP86       0.3668
      7  OD1       -0.5670   -9.5240   11.1260 O.co2  86  ASP86      -0.2456
      8  OD2       -0.2150  -10.7590    9.3640 O.co2  86  ASP86      -0.2456
      9  N         -2.7260   -4.0950    7.0020 N.3   134  TRP134     -0.1241
     10  CA        -1.9260   -5.1270    7.6490 C.3   134  TRP134      0.1605
     11  C         -1.6040   -4.7860    9.1170 C.2   134  TRP134      0.2264
     12  O         -1.7420   -5.6380    9.9940 O.2   134  TRP134     -0.2867
     13  CB        -0.6140   -5.2940    6.8770 C.3   134  TRP134      0.0550
     14  CG         0.2540   -6.4150    7.3200 C.ar  134  TRP134      0.0003
     15  CD1       -0.1330   -7.6580    7.7230 C.ar  134  TRP134      0.0946
     16  CD2        1.6850   -6.3940    7.3810 C.ar  134  TRP134      0.0152
     17  NE1        0.9730   -8.4160    8.0430 N.ar  134  TRP134     -0.2442
     18  CE2        2.1040   -7.6560    7.8610 C.ar  134  TRP134      0.0810
     19  CE3        2.6560   -5.4180    7.1180 C.ar  134  TRP134      0.0012
     20  CZ2        3.4390   -7.9670    8.0600 C.ar  134  TRP134      0.0191
     21  CZ3        3.9680   -5.7350    7.3290 C.ar  134  TRP134      0.0001
     22  CH2        4.3530   -6.9970    7.7880 C.ar  134  TRP134      0.0015
     23  N         -3.3090   -6.7330    3.1090 N.3   143  ASN143     -0.1240
     24  CA        -2.7410   -8.0550    2.8500 C.3   143  ASN143      0.1653
     25  C         -3.8010   -9.1600    2.8770 C.2   143  ASN143      0.2266
     26  O         -4.7800   -9.0850    3.6510 O.2   143  ASN143     -0.2867
     27  CB        -1.6360   -8.4110    3.8860 C.3   143  ASN143      0.1155
     28  CG        -0.3920   -7.5310    3.8010 C.2   143  ASN143      0.2627
     29  OD1        0.7760   -8.0210    3.9770 O.2   143  ASN143     -0.2716
     30  ND2       -0.5980   -6.2670    3.5920 N.am  143  ASN143     -0.0877
     31  N         -3.3780  -11.9630    4.2190 N.3   145  CYS145     -0.1235
     32  CA        -3.2550  -12.6310    5.5090 C.3   145  CYS145      0.1677
     33  C         -3.9600  -11.9350    6.6710 C.2   145  CYS145      0.2270
     34  O         -4.0160  -12.5120    7.7630 O.2   145  CYS145     -0.2867
     35  CB        -1.7710  -12.8310    5.8810 C.3   145  CYS145      0.0956
     36  SG        -0.8210  -11.3140    6.0730 S.3   145  CYS145     -0.0801
     37  N         -0.4190  -11.7890   -2.4830 N.3   190  ASP190     -0.1225
     38  CA        -0.0110  -11.5660   -1.0990 C.3   190  ASP190      0.1805
     39  C         -0.5830  -10.2790   -0.5030 C.2   190  ASP190      0.2597
     40  O         -1.0590  -10.2600    0.6490 O.2   190  ASP190     -0.2718
     41  CB         1.5130  -11.5520   -0.9840 C.3   190  ASP190      0.1424
     42  CG         1.9770  -11.6930    0.4470 C.2   190  ASP190      0.3668
     43  OD1        2.0200  -12.8370    0.9380 O.co2 190  ASP190     -0.2456
     44  OD2        2.2680  -10.6460    1.0820 O.co2 190  ASP190     -0.2456
     45  N         -0.4890   -9.1850   -1.2600 N.am  191  ARG191     -0.1979
     46  CA        -0.8090   -7.8780   -0.6920 C.3   191  ARG191      0.1597
     47  C         -0.8820   -6.8360   -1.7920 C.2   191  ARG191      0.2287
     48  O         -0.4970   -7.0950   -2.9300 O.2   191  ARG191     -0.2864
     49  CB         0.2330   -7.4690    0.3630 C.3   191  ARG191      0.0334
     50  CG         1.6420   -7.3070   -0.1950 C.3   191  ARG191      0.0492
     51  CD         2.6620   -7.1360    0.9200 C.3   191  ARG191      0.2205
     52  NE         4.0130   -6.9060    0.4110 N.pl3 191  ARG191     -0.0865
     53  CZ         4.8410   -7.8740    0.0000 C.cat 191  ARG191      0.5346
     54  NH1        4.4970   -9.1590    0.0630 N.pl3 191  ARG191      0.1354
     55  NH2        6.0500   -7.5680   -0.4580 N.pl3 191  ARG191      0.1354
     56  N          0.8490  -18.0370   -1.9120 N.3   203  THR203     -0.1218
     57  CA         1.3340  -18.9290   -0.8640 C.3   203  THR203      0.1862
     58  C          0.2080  -19.8190   -0.3390 C.2   203  THR203      0.2287
     59  O         -0.9850  -19.5130   -0.4630 O.2   203  THR203     -0.2866
     60  CB         1.9210  -18.1560    0.3380 C.3   203  THR203      0.1770
     61  OG1        0.9160  -17.2740    0.8530 O.3   203  THR203     -0.2211
     62  CG2        3.1800  -17.3640   -0.0590 C.3   203  THR203      0.0375
     63  N         -0.9390  -20.5200    2.6950 N.3   205  TYR205     -0.1227
     64  CA        -1.8890  -20.0770    3.7290 C.3   205  TYR205      0.1736
     65  C         -2.9130  -19.0720    3.2170 C.2   205  TYR205      0.2595
     66  O         -4.0310  -19.0250    3.7470 O.2   205  TYR205     -0.2718
     67  CB        -1.2090  -19.5980    5.0160 C.3   205  TYR205      0.0548
     68  CG        -0.6210  -18.1880    5.0650 C.ar  205  TYR205     -0.0200
     69  CD1        0.1170  -17.6310    4.0030 C.ar  205  TYR205     -0.0009
     70  CD2       -0.7350  -17.4390    6.2290 C.ar  205  TYR205     -0.0009
     71  CE1        0.6970  -16.3670    4.1110 C.ar  205  TYR205      0.0417
     72  CE2       -0.1400  -16.1880    6.3520 C.ar  205  TYR205      0.0417
     73  CZ         0.5700  -15.6490    5.2980 C.ar  205  TYR205      0.1957
     74  OH         1.1580  -14.4130    5.4500 O.3   205  TYR205     -0.2866
     75  N         -2.5400  -18.2630    2.2150 N.am  206  ASN206     -0.1974
     76  CA        -3.4910  -17.3220    1.6190 C.3   206  ASN206      0.1688
     77  C         -4.4680  -18.0160    0.6470 C.2   206  ASN206      0.2292
     78  O         -5.6370  -17.6600    0.5920 O.2   206  ASN206     -0.2864
     79  CB        -2.7470  -16.1640    0.9580 C.3   206  ASN206      0.1181
     80  CG        -2.1690  -15.1740    1.9660 C.2   206  ASN206      0.2629
     81  OD1       -2.7220  -14.9830    3.0520 O.2   206  ASN206     -0.2716
     82  ND2       -1.0830  -14.4860    1.5860 N.am  206  ASN206     -0.0877
     83  N         11.5150  -18.8280    4.9450 N.3   254  ASN254     -0.1240
     84  CA        10.7130  -17.9210    5.7420 C.3   254  ASN254      0.1653
     85  C          9.9540  -18.6620    6.8450 C.2   254  ASN254      0.2266
     86  O          9.2060  -19.6020    6.5720 O.2   254  ASN254     -0.2867
     87  CB         9.7530  -17.1640    4.8500 C.3   254  ASN254      0.1155
     88  CG         8.9050  -16.1810    5.6270 C.2   254  ASN254      0.2627
     89  OD1        7.9590  -16.5540    6.3030 O.2   254  ASN254     -0.2716
     90  ND2        9.2500  -14.9230    5.5490 N.am  254  ASN254     -0.0877
     91  N          7.4700  -17.8270    8.8190 N.3   256  ASP256     -0.1225
     92  CA         6.0140  -17.7250    8.8090 C.3   256  ASP256      0.1805
     93  C          5.3790  -18.6320    7.7630 C.2   256  ASP256      0.2597
     94  O          4.3350  -19.2520    8.0330 O.2   256  ASP256     -0.2718
     95  CB         5.6040  -16.2580    8.6280 C.3   256  ASP256      0.1424
     96  CG         6.0540  -15.3770    9.8010 C.2   256  ASP256      0.3668
     97  OD1        5.8790  -15.8060   10.9720 O.co2 256  ASP256     -0.2456
     98  OD2        6.5840  -14.2700    9.5400 O.co2 256  ASP256     -0.2456
     99  N          6.0230  -18.7530    6.6030 N.am  257  LEU257     -0.1979
    100  CA         5.4930  -19.5730    5.5090 C.3   257  LEU257      0.1596
    101  C          5.7650  -21.0650    5.6780 C.2   257  LEU257      0.2287
    102  O          5.0310  -21.8890    5.1180 O.2   257  LEU257     -0.2864
    103  CB         6.0490  -19.1170    4.1550 C.3   257  LEU257      0.0297
    104  CG         5.6860  -17.6960    3.7350 C.3   257  LEU257      0.0022
    105  CD1        6.3480  -17.3970    2.4040 C.3   257  LEU257      0.0001
    106  CD2        4.1730  -17.5170    3.6600 C.3   257  LEU257      0.0001
@<TRIPOS>BOND
     1    48    47    2
     2    37    38    1
     3    56    57    1
     4    47    46    1
     5    45    46    1
     6    45    39   am
     7    38    41    1
     8    38    39    1
     9    41    42    1
    10    57    58    1
    11    57    60    1
    12    46    49    1
    13    39    40    2
    14    59    58    2
    15    55    53    1
    16    50    49    1
    17    50    51    1
    18    62    60    1
    19    53    54    1
    20    53    52    2
    21    60    61    1
    22    52    51    1
    23    42    43   ar
    24    42    44   ar
    25    78    77    2
    26    77    76    1
    27    79    76    1
    28    79    80    1
    29    82    80   am
    30    76    75    1
    31    80    81    2
    32    75    65   am
    33   105   104    1
    34    63    64    1
    35    24    25    1
    36    24    23    1
    37    24    27    1
    38    25    26    2
    39    65    64    1
    40    65    66    2
    41    30    28   am
    42   106   104    1
    43    64    67    1
    44   104   103    1
    45    28    27    1
    46    28    29    2
    47    69    71   ar
    48    69    68   ar
    49    71    73   ar
    50   103   100    1
    51    31    32    1
    52    87    88    1
    53    87    84    1
    54    83    84    1
    55    67    68    1
    56    68    70   ar
    57   102   101    2
    58    73    74    1
    59    73    72   ar
    60    32    35    1
    61    32    33    1
    62   100   101    1
    63   100    99    1
    64    90    88   am
    65    88    89    2
    66    84    85    1
    67    35    36    1
    68    70    72   ar
    69    86    85    2
    70    99    93   am
    71    33    34    2
    72    13    14    1
    73    13    10    1
    74     9    10    1
    75    19    21   ar
    76    19    16   ar
    77    14    16   ar
    78    14    15   ar
    79    21    22   ar
    80    16    18   ar
    81    10    11    1
    82    15    17   ar
    83    93    94    2
    84    93    92    1
    85    22    20   ar
    86    18    17   ar
    87    18    20   ar
    88    95    92    1
    89    95    96    1
    90    92    91    1
    91    11    12    2
    92     8     6   ar
    93    98    96   ar
    94    96    97   ar
    95     5     6    1
    96     5     2    1
    97     6     7   ar
    98     2     1    1
    99     2     3    1
   100     3     4    2
