@<TRIPOS>MOLECULE
tmp/4d4mA01.pdb
 151 142 0 0 0
SMALL
GASTEIGER

@<TRIPOS>ATOM
      1  N        -45.5440  -43.5110   -4.9760 N.3    39  ALA39      -0.1231
      2  CA       -44.7000  -44.0790   -6.0300 C.3    39  ALA39       0.1694
      3  C        -45.0150  -43.4860   -7.4170 C.2    39  ALA39       0.2592
      4  O        -44.9740  -44.1900   -8.4320 O.2    39  ALA39      -0.2718
      5  CB       -44.7570  -45.6100   -6.0310 C.3    39  ALA39       0.0304
      6  N        -45.3140  -42.1690   -7.4470 N.am   40  ARG40      -0.1966
      7  CA       -45.5920  -41.4340   -8.6810 C.3    40  ARG40       0.1729
      8  C        -44.5020  -40.4170   -9.0070 C.2    40  ARG40       0.2616
      9  O        -44.6700  -39.6150   -9.9150 O.2    40  ARG40      -0.2715
     10  CB       -46.9990  -40.7990   -8.6650 C.3    40  ARG40       0.0348
     11  CG       -48.0450  -41.6150   -9.4190 C.3    40  ARG40       0.0492
     12  CD       -48.4090  -42.8950   -8.6790 C.3    40  ARG40       0.2205
     13  NE       -49.3530  -43.7170   -9.4290 N.pl3  40  ARG40      -0.0865
     14  CZ       -49.7430  -44.9300   -9.0540 C.cat  40  ARG40       0.5346
     15  NH1      -49.2870  -45.4670   -7.9320 N.pl3  40  ARG40       0.1354
     16  NH2      -50.6010  -45.6120   -9.7990 N.pl3  40  ARG40       0.1354
     17  N        -43.3800  -40.4860   -8.3010 N.am   41  GLY41      -0.1955
     18  CA       -42.2570  -39.5850   -8.5450 C.3    41  GLY41       0.1869
     19  C        -42.4120  -38.1670   -8.0240 C.2    41  GLY41       0.2309
     20  O        -41.6760  -37.2710   -8.4580 O.2    41  GLY41      -0.2863
     21  N        -39.2200  -37.2010   -6.2890 N.3    44  TYR44      -0.1227
     22  CA       -38.2410  -37.0520   -7.3510 C.3    44  TYR44       0.1736
     23  C        -38.3930  -35.6460   -7.9710 C.2    44  TYR44       0.2595
     24  O        -37.4130  -34.9150   -8.0480 O.2    44  TYR44      -0.2718
     25  CB       -38.4050  -38.1670   -8.4000 C.3    44  TYR44       0.0548
     26  CG       -37.3880  -38.0670   -9.5070 C.ar   44  TYR44      -0.0200
     27  CD1      -37.6230  -37.2700  -10.6230 C.ar   44  TYR44      -0.0009
     28  CD2      -36.1560  -38.7130   -9.4090 C.ar   44  TYR44      -0.0009
     29  CE1      -36.6690  -37.1390  -11.6270 C.ar   44  TYR44       0.0417
     30  CE2      -35.1910  -38.5800  -10.4030 C.ar   44  TYR44       0.0417
     31  CZ       -35.4500  -37.7890  -11.5050 C.ar   44  TYR44       0.1957
     32  OH       -34.4860  -37.6730  -12.4690 O.3    44  TYR44      -0.2866
     33  N        -39.6340  -35.2560   -8.3350 N.am   45  ILE45      -0.1980
     34  CA       -39.9350  -33.9360   -8.8800 C.3    45  ILE45       0.1595
     35  C        -39.5640  -32.8300   -7.8800 C.2    45  ILE45       0.2287
     36  O        -38.8490  -31.8950   -8.2520 O.2    45  ILE45      -0.2864
     37  CB       -41.3990  -33.8240   -9.3680 C.3    45  ILE45       0.0276
     38  CG1      -41.6800  -34.7990  -10.5520 C.3    45  ILE45       0.0022
     39  CG2      -41.7270  -32.3730   -9.7420 C.3    45  ILE45       0.0022
     40  CD1      -43.1920  -35.1910  -10.7080 C.3    45  ILE45       0.0001
     41  N        -48.6480  -35.7100  -10.6140 N.3   147  SER147     -0.1217
     42  CA       -47.9940  -36.7420  -11.3940 C.3   147  SER147      0.1889
     43  C        -48.9540  -37.9270  -11.4920 C.2   147  SER147      0.2288
     44  O        -49.3580  -38.5100  -10.4740 O.2   147  SER147     -0.2866
     45  CB       -46.6570  -37.1330  -10.7830 C.3   147  SER147      0.2089
     46  OG       -46.0430  -38.1150  -11.5950 O.3   147  SER147     -0.2183
     47  N        -49.5120  -41.5680  -13.3680 N.3   149  CYS149     -0.1235
     48  CA       -48.8840  -42.7060  -14.0330 C.3   149  CYS149      0.1677
     49  C        -49.3810  -43.9530  -13.4130 C.2   149  CYS149      0.2270
     50  O        -49.0360  -44.2150  -12.2600 O.2   149  CYS149     -0.2867
     51  CB       -47.3600  -42.6530  -13.9810 C.3   149  CYS149      0.0956
     52  SG       -46.5630  -43.9860  -14.9160 S.3   149  CYS149     -0.0801
     53  N        -43.5110  -48.8890  -14.1070 N.3   154  VAL154     -0.1245
     54  CA       -43.0160  -47.6220  -13.5550 C.3   154  VAL154      0.1561
     55  C        -43.1760  -47.6010  -12.0270 C.2   154  VAL154      0.2260
     56  O        -42.2260  -47.2540  -11.3270 O.2   154  VAL154     -0.2867
     57  CB       -43.6540  -46.3810  -14.2400 C.3   154  VAL154      0.0252
     58  CG1      -43.2260  -45.0860  -13.5490 C.3   154  VAL154      0.0019
     59  CG2      -43.3040  -46.3190  -15.7290 C.3   154  VAL154      0.0019
     60  N        -40.0890  -47.6480   -9.2660 N.3   158  ASN158     -0.1240
     61  CA       -39.9870  -46.6050   -8.2440 C.3   158  ASN158      0.1653
     62  C        -39.8530  -47.2370   -6.8400 C.2   158  ASN158      0.2266
     63  O        -39.0350  -46.7680   -6.0460 O.2   158  ASN158     -0.2867
     64  CB       -41.2090  -45.6800   -8.3280 C.3   158  ASN158      0.1155
     65  CG       -41.3130  -44.5700   -7.3150 C.2   158  ASN158      0.2627
     66  OD1      -41.4030  -44.7830   -6.1180 O.2   158  ASN158     -0.2716
     67  ND2      -41.7190  -43.4280   -7.7820 N.am  158  ASN158     -0.0877
     68  N        -36.2730  -48.8260   -6.7770 N.3   161  GLU161     -0.1231
     69  CA       -35.2140  -47.8160   -6.8270 C.3   161  GLU161      0.1699
     70  C        -35.0850  -46.9870   -5.5630 C.2   161  GLU161      0.2592
     71  O        -33.9610  -46.7220   -5.1340 O.2   161  GLU161     -0.2718
     72  CB       -35.4110  -46.8640   -8.0140 C.3   161  GLU161      0.0402
     73  CG       -34.3900  -46.9960   -9.1230 C.3   161  GLU161      0.1161
     74  CD       -34.1660  -45.6930   -9.8660 C.2   161  GLU161      0.3649
     75  OE1      -34.9720  -45.3800  -10.7720 O.co2 161  GLU161     -0.2457
     76  OE2      -33.1960  -44.9740   -9.5310 O.co2 161  GLU161     -0.2457
     77  N        -36.2110  -46.5250   -4.9790 N.am  162  VAL162     -0.1980
     78  CA       -36.0990  -45.6120   -3.8610 C.3   162  VAL162      0.1595
     79  C        -37.0460  -45.8850   -2.6580 C.2   162  VAL162      0.2287
     80  O        -36.7990  -45.3450   -1.5770 O.2   162  VAL162     -0.2864
     81  CB       -36.2690  -44.1970   -4.4700 C.3   162  VAL162      0.0276
     82  CG1      -37.7340  -43.7630   -4.5850 C.3   162  VAL162      0.0022
     83  CG2      -35.3990  -43.1890   -3.7590 C.3   162  VAL162      0.0022
     84  N        -48.5110  -33.8290  -15.0320 N.3   209  VAL209     -0.1245
     85  CA       -47.4090  -34.5530  -15.6760 C.3   209  VAL209      0.1561
     86  C        -47.9820  -35.9620  -15.8470 C.2   209  VAL209      0.2260
     87  O        -48.2820  -36.6410  -14.8610 O.2   209  VAL209     -0.2867
     88  CB       -46.1020  -34.5610  -14.8290 C.3   209  VAL209      0.0252
     89  CG1      -44.9930  -35.3120  -15.5520 C.3   209  VAL209      0.0019
     90  CG2      -45.6390  -33.1530  -14.4940 C.3   209  VAL209      0.0019
     91  N        -44.7690  -40.0710  -16.9680 N.3   212  VAL212     -0.1231
     92  CA       -43.3540  -39.7110  -16.8020 C.3   212  VAL212      0.1692
     93  C        -42.9390  -38.5940  -17.8220 C.2   212  VAL212      0.2592
     94  O        -41.8430  -38.6130  -18.3770 O.2   212  VAL212     -0.2718
     95  CB       -42.3880  -40.9730  -16.7940 C.3   212  VAL212      0.0266
     96  CG1      -41.0790  -40.6720  -16.0890 C.3   212  VAL212      0.0020
     97  CG2      -43.0460  -42.2080  -16.1570 C.3   212  VAL212      0.0020
     98  N        -43.8160  -37.6150  -18.0330 N.am  213  GLY213     -0.1957
     99  CA       -43.5180  -36.4910  -18.9120 C.3   213  GLY213      0.1869
    100  C        -43.7480  -36.6990  -20.3930 C.2   213  GLY213      0.2309
    101  O        -43.1970  -35.9610  -21.2090 O.2   213  GLY213     -0.2863
    102  N        -39.7940  -29.0500  -16.3500 N.3   233  LEU233     -0.1245
    103  CA       -40.4870  -30.3440  -16.2950 C.3   233  LEU233      0.1561
    104  C        -40.6510  -30.9570  -17.6540 C.2   233  LEU233      0.2260
    105  O        -40.5760  -32.1610  -17.8050 O.2   233  LEU233     -0.2867
    106  CB       -41.8520  -30.1950  -15.6010 C.3   233  LEU233      0.0270
    107  CG       -41.8020  -29.8770  -14.1060 C.3   233  LEU233      0.0019
    108  CD1      -43.1980  -29.6120  -13.5630 C.3   233  LEU233      0.0001
    109  CD2      -41.0770  -30.9860  -13.3260 C.3   233  LEU233      0.0001
    110  N        -36.7070  -32.3470  -18.6810 N.3   236  ILE236     -0.1231
    111  CA       -36.0890  -33.4240  -17.9140 C.3   236  ILE236      0.1692
    112  C        -36.6590  -34.7880  -18.3440 C.2   236  ILE236      0.2592
    113  O        -37.7580  -34.8440  -18.8850 O.2   236  ILE236     -0.2718
    114  CB       -36.1980  -33.1670  -16.3810 C.3   236  ILE236      0.0266
    115  CG1      -37.6680  -33.2770  -15.8770 C.3   236  ILE236      0.0019
    116  CG2      -35.5300  -31.8270  -15.9870 C.3   236  ILE236      0.0020
    117  CD1      -37.8400  -33.3600  -14.2750 C.3   236  ILE236      0.0001
    118  N        -35.9050  -35.8800  -18.1100 N.am  237  HIS237     -0.1962
    119  CA       -36.2870  -37.2690  -18.4270 C.3   237  HIS237      0.1787
    120  C        -35.6080  -38.2180  -17.4340 C.2   237  HIS237      0.2620
    121  O        -34.7020  -37.7950  -16.7130 O.2   237  HIS237     -0.2715
    122  CB       -35.9050  -37.6410  -19.8730 C.3   237  HIS237      0.0785
    123  CG       -34.4200  -37.6570  -20.1290 C.ar  237  HIS237      0.0821
    124  ND1      -33.6410  -38.7690  -19.8230 N.ar  237  HIS237     -0.2267
    125  CD2      -33.6280  -36.7080  -20.6730 C.ar  237  HIS237      0.1154
    126  CE1      -32.4110  -38.4550  -20.1840 C.ar  237  HIS237      0.1986
    127  NE2      -32.3550  -37.2250  -20.6980 N.ar  237  HIS237     -0.2212
    128  N        -36.0280  -39.4930  -17.3980 N.am  238  VAL238     -0.1977
    129  CA       -35.4420  -40.4960  -16.4900 C.3   238  VAL238      0.1596
    130  C        -34.7080  -41.6020  -17.2610 C.2   238  VAL238      0.2287
    131  O        -34.3980  -42.6320  -16.6780 O.2   238  VAL238     -0.2864
    132  CB       -36.4370  -41.0720  -15.4470 C.3   238  VAL238      0.0276
    133  CG1      -36.9050  -39.9960  -14.4930 C.3   238  VAL238      0.0022
    134  CG2      -37.6190  -41.7690  -16.1160 C.3   238  VAL238      0.0022
    135  N        -31.3710  -42.6200   -8.2400 N.3   418  ALA418     -0.1231
    136  CA       -32.3240  -42.3210   -7.1450 C.3   418  ALA418      0.1694
    137  C        -32.7390  -40.8440   -7.1280 C.2   418  ALA418      0.2592
    138  O        -33.4390  -40.4190   -8.0480 O.2   418  ALA418     -0.2718
    139  CB       -31.7760  -42.7750   -5.7840 C.3   418  ALA418      0.0304
    140  N        -32.2720  -40.0510   -6.1380 N.am  419  TYR419     -0.1976
    141  CA       -32.5900  -38.6250   -6.0360 C.3   419  TYR419      0.1639
    142  C        -31.3790  -37.6870   -6.2410 C.2   419  TYR419      0.2290
    143  O        -31.3890  -36.5560   -5.7440 O.2   419  TYR419     -0.2864
    144  CB       -33.3020  -38.3060   -4.7090 C.3   419  TYR419      0.0560
    145  CG       -34.6340  -38.9930   -4.4950 C.ar  419  TYR419     -0.0198
    146  CD1      -35.6140  -38.9890   -5.4840 C.ar  419  TYR419     -0.0009
    147  CD2      -34.9520  -39.5670   -3.2690 C.ar  419  TYR419     -0.0009
    148  CE1      -36.8370  -39.6260   -5.2890 C.ar  419  TYR419      0.0417
    149  CE2      -36.2010  -40.1390   -3.0390 C.ar  419  TYR419      0.0417
    150  CZ       -37.1280  -40.1950   -4.0670 C.ar  419  TYR419      0.1957
    151  OH       -38.3520  -40.7800   -3.9230 O.3   419  TYR419     -0.2866
@<TRIPOS>BOND
     1   101   100    2
     2   127   125   ar
     3   127   126   ar
     4   125   123   ar
     5   100    99    1
     6   126   124   ar
     7   123   122    1
     8   123   124   ar
     9   122   119    1
    10    99    98    1
    11   113   112    2
    12   110   111    1
    13   119   118    1
    14   119   120    1
    15    94    93    2
    16   112   118   am
    17   112   111    1
    18    98    93   am
    19   111   114    1
    20    93    92    1
    21   105   104    2
    22   104   103    1
    23   120   128   am
    24   120   121    2
    25   128   129    1
    26   130   131    2
    27   130   129    1
    28    91    92    1
    29    92    95    1
    30    95    97    1
    31    95    96    1
    32   129   132    1
    33   114   116    1
    34   114   115    1
    35   102   103    1
    36   103   106    1
    37   134   132    1
    38   115   117    1
    39    86    85    1
    40    86    87    2
    41    59    57    1
    42    85    84    1
    43    85    88    1
    44   106   107    1
    45    89    88    1
    46   132   133    1
    47    52    51    1
    48    88    90    1
    49    57    54    1
    50    57    58    1
    51    53    54    1
    52   107   108    1
    53   107   109    1
    54    48    51    1
    55    48    49    1
    56    48    47    1
    57    54    55    1
    58    49    50    2
    59    32    31    1
    60    55    56    2
    61    29    31   ar
    62    29    27   ar
    63    46    45    1
    64    31    30   ar
    65    43    42    1
    66    43    44    2
    67    42    45    1
    68    42    41    1
    69    75    74   ar
    70    40    38    1
    71    27    26   ar
    72    38    37    1
    73    30    28   ar
    74     9     8    2
    75    74    76   ar
    76    74    73    1
    77    16    14    1
    78    39    37    1
    79    26    28   ar
    80    26    25    1
    81    13    14    2
    82    13    12    1
    83    11    12    1
    84    11    10    1
    85    37    34    1
    86    60    61    1
    87    73    72    1
    88    14    15    1
    89     8     7    1
    90     8    17   am
    91    34    33    1
    92    34    35    1
    93     7    10    1
    94     7     6    1
    95    18    17    1
    96    18    19    1
    97    20    19    2
    98     4     3    2
    99    25    22    1
   100    33    23   am
   101    64    61    1
   102    64    65    1
   103    36    35    2
   104    61    62    1
   105   135   136    1
   106   138   137    2
   107    24    23    2
   108    72    69    1
   109    23    22    1
   110    67    65   am
   111     6     3   am
   112     3     2    1
   113    22    21    1
   114    65    66    2
   115   136   137    1
   116   136   139    1
   117   137   140   am
   118    62    63    2
   119    69    68    1
   120    69    70    1
   121   142   141    1
   122   142   143    2
   123   140   141    1
   124   141   144    1
   125     5     2    1
   126     2     1    1
   127    70    71    2
   128    70    77   am
   129   146   148   ar
   130   146   145   ar
   131   148   150   ar
   132    77    78    1
   133   144   145    1
   134    82    81    1
   135   145   147   ar
   136    81    78    1
   137    81    83    1
   138   150   151    1
   139   150   149   ar
   140    78    79    1
   141   147   149   ar
   142    79    80    2
