@<TRIPOS>MOLECULE
tmp/4d4uA01.pdb
 134 129 0 0 0
SMALL
GASTEIGER

@<TRIPOS>ATOM
      1  N          6.9280  -25.7610   13.7900 N.3    70  HIS70      -0.1241
      2  CA         7.4230  -24.4680   14.2230 C.3    70  HIS70       0.1621
      3  C          6.8510  -24.1670   15.5840 C.2    70  HIS70       0.2264
      4  O          5.6320  -24.1450   15.7510 O.2    70  HIS70      -0.2867
      5  CB         6.9490  -23.3830   13.2780 C.3    70  HIS70       0.0745
      6  CG         7.3780  -23.5710   11.8620 C.ar   70  HIS70       0.0817
      7  ND1        8.6770  -23.3650   11.4460 N.ar   70  HIS70      -0.2268
      8  CD2        6.6730  -23.8990   10.7530 C.ar   70  HIS70       0.1154
      9  CE1        8.7580  -23.5820   10.1450 C.ar   70  HIS70       0.1986
     10  NE2        7.5570  -23.9070    9.7010 N.ar   70  HIS70      -0.2212
     11  N          7.3350  -21.4410   19.0120 N.3    72  ARG72      -0.1245
     12  CA         7.9080  -20.2100   19.5730 C.3    72  ARG72       0.1563
     13  C          7.5290  -20.0950   21.0460 C.2    72  ARG72       0.2260
     14  O          6.3580  -20.2740   21.3920 O.2    72  ARG72      -0.2867
     15  CB         7.3980  -18.9990   18.7860 C.3    72  ARG72       0.0307
     16  CG         7.7040  -19.0460   17.2900 C.3    72  ARG72       0.0489
     17  CD         9.2080  -19.0290   17.0390 C.3    72  ARG72       0.2205
     18  NE         9.5650  -18.9550   15.6180 N.pl3  72  ARG72      -0.0865
     19  CZ         9.8270  -19.9830   14.8060 C.cat  72  ARG72       0.5346
     20  NH1        9.7730  -21.2510   15.2200 N.pl3  72  ARG72       0.1354
     21  NH2       10.1510  -19.7290   13.5360 N.pl3  72  ARG72       0.1354
     22  N         12.4200  -14.4580   22.5450 N.3    84  GLU84      -0.1245
     23  CA        11.7640  -15.5450   21.8460 C.3    84  GLU84       0.1567
     24  C         12.7400  -16.6950   21.7000 C.2    84  GLU84       0.2260
     25  O         13.8710  -16.4840   21.2200 O.2    84  GLU84      -0.2867
     26  CB        11.3320  -15.0280   20.4840 C.3    84  GLU84       0.0388
     27  CG        10.7350  -16.0450   19.5350 C.3    84  GLU84       0.1160
     28  CD        10.5120  -15.4470   18.1780 C.2    84  GLU84       0.3649
     29  OE1       11.5040  -14.9340   17.6170 O.co2  84  GLU84      -0.2457
     30  OE2        9.3650  -15.4700   17.6890 O.co2  84  GLU84      -0.2457
     31  N         12.4130  -24.7460   14.6800 N.3    88  ASP88      -0.1225
     32  CA        11.9230  -25.0920   13.3420 C.3    88  ASP88       0.1805
     33  C         12.4010  -26.4920   13.0490 C.2    88  ASP88       0.2598
     34  O         13.5730  -26.7990   13.2350 O.2    88  ASP88      -0.2718
     35  CB        12.4760  -24.1630   12.2530 C.3    88  ASP88       0.1424
     36  CG        12.0460  -22.7050   12.4270 C.2    88  ASP88       0.3668
     37  OD1       10.8560  -22.4690   12.7410 O.co2  88  ASP88      -0.2456
     38  OD2       12.9040  -21.8060   12.2370 O.co2  88  ASP88      -0.2456
     39  N         11.4850  -27.3420   12.5960 N.am   89  SER89      -0.1938
     40  CA        11.8220  -28.6970   12.2210 C.3    89  SER89       0.2055
     41  C         12.9760  -28.6310   11.2240 C.2    89  SER89       0.2644
     42  O         12.8960  -27.8840   10.2470 O.2    89  SER89      -0.2714
     43  CB        10.6050  -29.3840   11.6080 C.3    89  SER89       0.2130
     44  OG        10.9650  -30.6420   11.0860 O.3    89  SER89      -0.2179
     45  N         14.0620  -29.3590   11.5030 N.am   90  GLY90      -0.1939
     46  CA        15.2400  -29.3580   10.6330 C.3    90  GLY90       0.2014
     47  C         16.2960  -28.3130   10.9640 C.2    90  GLY90       0.2639
     48  O         17.3760  -28.3320   10.3930 O.2    90  GLY90      -0.2714
     49  N         15.9940  -27.3800   11.8630 N.am   91  THR91      -0.1950
     50  CA        16.9980  -26.4370   12.3440 C.3    91  THR91       0.1897
     51  C         17.3080  -26.6740   13.8100 C.2    91  THR91       0.2313
     52  O         18.4640  -26.5360   14.2210 O.2    91  THR91      -0.2863
     53  CB        16.5430  -24.9740   12.1930 C.3    91  THR91       0.1794
     54  OG1       16.3290  -24.6800   10.8070 O.3    91  THR91      -0.2208
     55  CG2       17.5970  -24.0190   12.7380 C.3    91  THR91       0.0378
     56  N         16.8910  -22.1830   18.4730 N.3    94  TYR94      -0.1241
     57  CA        17.7720  -21.0310   18.3930 C.3    94  TYR94       0.1605
     58  C         17.0890  -19.8290   19.0410 C.2    94  TYR94       0.2264
     59  O         15.8710  -19.8270   19.2650 O.2    94  TYR94      -0.2867
     60  CB        18.1460  -20.7140   16.9360 C.3    94  TYR94       0.0534
     61  CG        16.9490  -20.4460   16.0330 C.ar   94  TYR94      -0.0201
     62  CD1       16.2970  -21.4940   15.3820 C.ar   94  TYR94      -0.0009
     63  CD2       16.4680  -19.1410   15.8280 C.ar   94  TYR94      -0.0009
     64  CE1       15.2070  -21.2620   14.5610 C.ar   94  TYR94       0.0417
     65  CE2       15.3850  -18.9010   15.0130 C.ar   94  TYR94       0.0417
     66  CZ        14.7490  -19.9660   14.3750 C.ar   94  TYR94       0.1957
     67  OH        13.6630  -19.7390   13.5570 O.3    94  TYR94      -0.2866
     68  N         15.4710  -16.4930   18.7600 N.3    96  GLY96      -0.1210
     69  CA        14.7450  -15.8330   17.6860 C.3    96  GLY96       0.1956
     70  C         14.9230  -14.3180   17.6430 C.2    96  GLY96       0.2612
     71  O         15.4430  -13.7120   18.5820 O.2    96  GLY96      -0.2717
     72  N         14.4670  -13.7180   16.5480 N.am   97  GLY97      -0.1956
     73  CA        14.6780  -12.3070   16.2620 C.3    97  GLY97       0.1869
     74  C         14.0540  -11.3420   17.2450 C.2    97  GLY97       0.2309
     75  O         14.4680  -10.2030   17.3280 O.2    97  GLY97      -0.2863
     76  N          0.0710  -17.8740   16.5050 N.3   115  PHE115     -0.1241
     77  CA         0.2740  -17.8790   15.0460 C.3   115  PHE115      0.1605
     78  C         -1.1160  -17.6350   14.4740 C.2   115  PHE115      0.2264
     79  O         -2.1090  -18.1680   14.9960 O.2   115  PHE115     -0.2867
     80  CB         0.7920  -19.2370   14.5600 C.3   115  PHE115      0.0534
     81  CG         2.2920  -19.3860   14.6020 C.ar  115  PHE115     -0.0203
     82  CD1        3.0950  -18.7310   13.6730 C.ar  115  PHE115     -0.0042
     83  CD2        2.9000  -20.2080   15.5390 C.ar  115  PHE115     -0.0042
     84  CE1        4.4720  -18.8680   13.6940 C.ar  115  PHE115     -0.0003
     85  CE2        4.2720  -20.3700   15.5570 C.ar  115  PHE115     -0.0003
     86  CZ         5.0640  -19.6990   14.6340 C.ar  115  PHE115     -0.0000
     87  N          3.9640  -17.8760    8.1180 N.3   122  LEU122     -0.1245
     88  CA         4.3080  -17.7420    9.5390 C.3   122  LEU122      0.1561
     89  C          4.0300  -16.3170    9.9980 C.2   122  LEU122      0.2260
     90  O          4.8450  -15.4230    9.8060 O.2   122  LEU122     -0.2867
     91  CB         5.7510  -18.1520    9.8160 C.3   122  LEU122      0.0270
     92  CG         5.9100  -19.6670    9.9880 C.3   122  LEU122      0.0019
     93  CD1        5.6160  -20.4170    8.6980 C.3   122  LEU122      0.0001
     94  CD2        7.3100  -19.9930   10.4930 C.3   122  LEU122      0.0001
     95  N          2.8390  -13.9820   13.2230 N.3   124  LEU124     -0.1245
     96  CA         2.8030  -13.9810   14.6780 C.3   124  LEU124      0.1561
     97  C          2.2270  -12.7070   15.2480 C.2   124  LEU124      0.2260
     98  O          2.5410  -11.6180   14.7900 O.2   124  LEU124     -0.2867
     99  CB         4.2090  -14.1540   15.2340 C.3   124  LEU124      0.0270
    100  CG         4.8150  -15.5530   15.0950 C.3   124  LEU124      0.0019
    101  CD1        6.3330  -15.4490   15.1870 C.3   124  LEU124      0.0001
    102  CD2        4.2520  -16.4800   16.1540 C.3   124  LEU124      0.0001
    103  N          4.9120  -10.1560   13.7080 N.3   140  TRP140     -0.1241
    104  CA         5.8550  -10.6490   12.7220 C.3   140  TRP140      0.1605
    105  C          5.0910  -11.1240   11.4660 C.2   140  TRP140      0.2264
    106  O          4.2300  -11.9830   11.5410 O.2   140  TRP140     -0.2867
    107  CB         6.6890  -11.8010   13.2860 C.3   140  TRP140      0.0550
    108  CG         7.5390  -12.4370   12.2390 C.ar  140  TRP140      0.0003
    109  CD1        7.1600  -13.3830   11.3370 C.ar  140  TRP140      0.0946
    110  CD2        8.8930  -12.1350   11.9570 C.ar  140  TRP140      0.0152
    111  NE1        8.2010  -13.7000   10.5230 N.ar  140  TRP140     -0.2442
    112  CE2        9.2860  -12.9530   10.8880 C.ar  140  TRP140      0.0810
    113  CE3        9.8220  -11.2690   12.5240 C.ar  140  TRP140      0.0012
    114  CZ2       10.5680  -12.9280   10.3630 C.ar  140  TRP140      0.0191
    115  CZ3       11.1070  -11.2420   12.0070 C.ar  140  TRP140      0.0001
    116  CH2       11.4680  -12.0620   10.9350 C.ar  140  TRP140      0.0015
    117  N          6.9640  -11.7980    8.3410 N.3   142  GLY142     -0.1225
    118  CA         8.0550  -12.1270    7.4280 C.3   142  GLY142      0.1811
    119  C          9.0870  -11.0150    7.3520 C.2   142  GLY142      0.2280
    120  O         10.2430  -11.2450    6.9900 O.2   142  GLY142     -0.2866
    121  N         10.1140   -7.5370   13.1300 N.3   145  TRP145     -0.1241
    122  CA         9.2190   -7.3650   14.2640 C.3   145  TRP145      0.1605
    123  C          8.8020   -5.9130   14.3320 C.2   145  TRP145      0.2264
    124  O          9.6420   -5.0320   14.1850 O.2   145  TRP145     -0.2867
    125  CB         9.8900   -7.8090   15.5690 C.3   145  TRP145      0.0550
    126  CG         9.8420   -9.2880   15.7690 C.ar  145  TRP145      0.0003
    127  CD1       10.8370  -10.1790   15.5260 C.ar  145  TRP145      0.0946
    128  CD2        8.7140  -10.0510   16.2290 C.ar  145  TRP145      0.0152
    129  NE1       10.3910  -11.4690   15.7920 N.ar  145  TRP145     -0.2442
    130  CE2        9.0930  -11.4040   16.2360 C.ar  145  TRP145      0.0810
    131  CE3        7.4210   -9.7170   16.6240 C.ar  145  TRP145      0.0012
    132  CZ2        8.2280  -12.4160   16.6280 C.ar  145  TRP145      0.0191
    133  CZ3        6.5640  -10.7190   17.0210 C.ar  145  TRP145      0.0001
    134  CH2        6.9670  -12.0510   17.0170 C.ar  145  TRP145      0.0015
@<TRIPOS>BOND
     1   120   119    2
     2   119   118    1
     3   118   117    1
     4    87    88    1
     5    93    92    1
     6    88    91    1
     7    88    89    1
     8    10     9   ar
     9    10     8   ar
    10    90    89    2
    11    91    92    1
    12    92    94    1
    13     9     7   ar
    14    42    41    2
    15   114   112   ar
    16   114   116   ar
    17    48    47    2
    18   111   112   ar
    19   111   109   ar
    20    46    47    1
    21    46    45    1
    22     8     6   ar
    23    54    53    1
    24   112   110   ar
    25   116   115   ar
    26    47    49   am
    27    44    43    1
    28    41    45   am
    29    41    40    1
    30   109   108   ar
    31     7     6   ar
    32   105   106    2
    33   105   104    1
    34    43    40    1
    35     6     5    1
    36    49    50    1
    37   110   108   ar
    38   110   113   ar
    39   115   113   ar
    40    53    50    1
    41    53    55    1
    42    40    39    1
    43    38    36   ar
    44   108   107    1
    45    35    36    1
    46    35    32    1
    47    50    51    1
    48    36    37   ar
    49    39    33   am
    50   104   107    1
    51   104   103    1
    52    33    34    2
    53    33    32    1
    54   121   122    1
    55    95    96    1
    56     5     2    1
    57    32    31    1
    58    21    19    1
    59    67    66    1
    60    82    84   ar
    61    82    81   ar
    62    84    86   ar
    63     1     2    1
    64    51    52    2
    65   124   123    2
    66     2     3    1
    67   122   123    1
    68   122   125    1
    69    66    64   ar
    70    66    65   ar
    71    78    79    2
    72    78    77    1
    73    80    81    1
    74    80    77    1
    75    64    62   ar
    76    81    83   ar
    77    86    85   ar
    78    96    99    1
    79    96    97    1
    80    98    97    2
    81    19    20    1
    82    19    18    2
    83    65    63   ar
    84    77    76    1
    85   100   101    1
    86   100    99    1
    87   100   102    1
    88    62    61   ar
    89   127   126   ar
    90   127   129   ar
    91    83    85   ar
    92   125   126    1
    93     3     4    2
    94    18    17    1
    95   126   128   ar
    96   129   130   ar
    97    63    61   ar
    98    61    60    1
    99   128   130   ar
   100   128   131   ar
   101   130   132   ar
   102    73    72    1
   103    73    74    1
   104    72    70   am
   105   131   133   ar
   106   132   134   ar
   107    60    57    1
   108   134   133   ar
   109    17    16    1
   110    74    75    2
   111    16    15    1
   112    29    28   ar
   113    70    69    1
   114    70    71    2
   115    69    68    1
   116    30    28   ar
   117    28    27    1
   118    57    56    1
   119    57    58    1
   120    15    12    1
   121    11    12    1
   122    58    59    2
   123    27    26    1
   124    12    13    1
   125    26    23    1
   126    13    14    2
   127    25    24    2
   128    24    23    1
   129    23    22    1
