@<TRIPOS>MOLECULE
tmp/4d4uA02.pdb
 118 110 0 0 0
SMALL
GASTEIGER

@<TRIPOS>ATOM
      1  N         -1.2230  -16.8060   13.4460 N.3   116  LEU116     -0.1245
      2  CA        -2.5290  -16.5590   12.8800 C.3   116  LEU116      0.1561
      3  C         -3.0030  -17.8320   12.1810 C.2   116  LEU116      0.2260
      4  O         -2.2550  -18.4710   11.4740 O.2   116  LEU116     -0.2867
      5  CB        -2.5040  -15.3560   11.9220 C.3   116  LEU116      0.0270
      6  CG        -2.2070  -14.0110   12.6020 C.3   116  LEU116      0.0019
      7  CD1       -2.2570  -12.8780   11.5940 C.3   116  LEU116      0.0001
      8  CD2       -3.1950  -13.7360   13.7230 C.3   116  LEU116      0.0001
      9  N          2.8370  -16.1140   10.5620 N.3   123  GLN123     -0.1245
     10  CA         2.4050  -14.7960   11.0130 C.3   123  GLN123      0.1566
     11  C          2.1360  -14.8370   12.4890 C.2   123  GLN123      0.2260
     12  O          1.3140  -15.6170   12.9410 O.2   123  GLN123     -0.2867
     13  CB         1.1500  -14.3730   10.3070 C.3   123  GLN123      0.0367
     14  CG         1.3930  -14.0740    8.8480 C.3   123  GLN123      0.0905
     15  CD         0.1060  -14.0410    8.0700 C.2   123  GLN123      0.2608
     16  OE1       -0.9660  -14.2850    8.6070 O.2   123  GLN123     -0.2717
     17  NE2        0.2090  -13.7570    6.7930 N.am  123  GLN123     -0.0878
     18  N          1.4050  -12.8770   16.2760 N.3   125  ARG125     -0.1245
     19  CA         0.9460  -11.7830   17.1090 C.3   125  ARG125      0.1563
     20  C          1.2200  -12.1140   18.5670 C.2   125  ARG125      0.2260
     21  O          0.7800  -13.1560   19.0800 O.2   125  ARG125     -0.2867
     22  CB        -0.5510  -11.5110   16.8910 C.3   125  ARG125      0.0307
     23  CG        -0.9160  -11.2220   15.4300 C.3   125  ARG125      0.0489
     24  CD        -0.3300   -9.9160   14.9210 C.3   125  ARG125      0.2205
     25  NE        -0.7770   -9.5750   13.5590 N.pl3 125  ARG125     -0.0865
     26  CZ        -0.1820   -9.9490   12.4190 C.cat 125  ARG125      0.5346
     27  NH1        0.9110  -10.7080   12.4080 N.pl3 125  ARG125      0.1354
     28  NH2       -0.6800   -9.5410   11.2550 N.pl3 125  ARG125      0.1354
     29  N          0.0800   -5.0400   21.1390 N.3   137  GLU137     -0.1245
     30  CA         0.3070   -6.0950   20.1650 C.3   137  GLU137      0.1567
     31  C          1.6250   -5.8620   19.4450 C.2   137  GLU137      0.2260
     32  O          1.9130   -4.7340   19.0420 O.2   137  GLU137     -0.2867
     33  CB        -0.8190   -6.1030   19.1370 C.3   137  GLU137      0.0388
     34  CG        -0.7450   -7.1990   18.0730 C.3   137  GLU137      0.1160
     35  CD        -1.8940   -7.0810   17.0980 C.2   137  GLU137      0.3649
     36  OE1       -1.9310   -6.0430   16.4050 O.co2 137  GLU137     -0.2457
     37  OE2       -2.7730   -7.9880   17.0560 O.co2 137  GLU137     -0.2457
     38  N          3.9390   -7.6790   16.1060 N.3   139  MET139     -0.1245
     39  CA         3.6740   -8.4620   14.8890 C.3   139  MET139      0.1570
     40  C          4.9470   -8.9110   14.1820 C.2   139  MET139      0.2261
     41  O          5.9080   -8.1320   14.0390 O.2   139  MET139     -0.2867
     42  CB         2.9230   -7.6480   13.8340 C.3   139  MET139      0.0387
     43  CG         1.6040   -7.0040   14.2290 C.3   139  MET139      0.0595
     44  SD         0.7870   -6.1430   12.8440 S.3   139  MET139     -0.1393
     45  CE         2.1000   -5.0910   12.2440 C.3   139  MET139      0.0692
     46  N          5.4280  -10.5660   10.3160 N.3   141  ASN141     -0.1240
     47  CA         4.7950  -10.9470    9.0630 C.3   141  ASN141      0.1653
     48  C          5.8330  -11.2130    7.9650 C.2   141  ASN141      0.2266
     49  O          5.6090  -10.8910    6.8100 O.2   141  ASN141     -0.2867
     50  CB         3.8250   -9.8410    8.6410 C.3   141  ASN141      0.1155
     51  CG         2.6160   -9.7550    9.5440 C.2   141  ASN141      0.2627
     52  OD1        1.9160  -10.7440    9.7560 O.2   141  ASN141     -0.2716
     53  ND2        2.3480   -8.5690   10.0670 N.am  141  ASN141     -0.0877
     54  N          7.5050   -5.6630   14.5060 N.3   146  LYS146     -0.1245
     55  CA         7.0220   -4.3050   14.7510 C.3   146  LYS146      0.1561
     56  C          5.8070   -4.2740   15.6180 C.2   146  LYS146      0.2260
     57  O          5.1290   -5.2760   15.7860 O.2   146  LYS146     -0.2867
     58  CB         6.7380   -3.5090   13.4550 C.3   146  LYS146      0.0271
     59  CG         6.5500   -4.2940   12.1740 C.3   146  LYS146      0.0035
     60  CD         6.9390   -3.4310   10.9740 C.3   146  LYS146      0.0206
     61  CE         7.2790   -4.2550    9.7320 C.3   146  LYS146      0.1093
     62  NZ         8.4560   -3.6870    9.0010 N.3   146  LYS146     -0.1314
     63  N          2.0580   -3.6330   16.5850 N.3   148  GLY148     -0.1210
     64  CA         0.7620   -3.6590   15.9240 C.3   148  GLY148      0.1956
     65  C         -0.1460   -2.6960   16.6490 C.2   148  GLY148      0.2612
     66  O          0.2860   -1.6180   17.0490 O.2   148  GLY148     -0.2717
     67  N         -1.3920   -3.1040   16.8480 N.am  149  THR149     -0.1952
     68  CA        -2.4020   -2.2820   17.4970 C.3   149  THR149      0.1897
     69  C         -2.2240   -2.2440   19.0320 C.2   149  THR149      0.2313
     70  O         -1.9290   -3.2850   19.6450 O.2   149  THR149     -0.2863
     71  CB        -3.7970   -2.8650   17.2280 C.3   149  THR149      0.1794
     72  OG1       -4.0440   -2.9560   15.8220 O.3   149  THR149     -0.2208
     73  CG2       -4.8680   -2.0190   17.8520 C.3   149  THR149      0.0378
     74  N         -7.9800  -14.3350    9.1370 N.3   173  PRO173     -0.2116
     75  CA        -7.9930  -14.8210   10.5090 C.3   173  PRO173      0.1372
     76  C         -8.7160  -13.9250   11.4920 C.2   173  PRO173      0.2244
     77  O         -8.7890  -12.7140   11.2990 O.2   173  PRO173     -0.2868
     78  CB        -6.5150  -14.8950   10.8530 C.3   173  PRO173      0.0268
     79  CG        -5.9050  -13.8160   10.0560 C.3   173  PRO173      0.0207
     80  CD        -6.6560  -13.8220    8.7490 C.3   173  PRO173      0.0892
     81  N         -9.0120  -13.1030   15.8750 N.3   175  ILE175     -0.1245
     82  CA        -8.2600  -13.1530   17.1170 C.3   175  ILE175      0.1561
     83  C         -9.1840  -12.7900   18.2550 C.2   175  ILE175      0.2260
     84  O        -10.0390  -11.9070   18.1230 O.2   175  ILE175     -0.2867
     85  CB        -7.0620  -12.1650   17.1620 C.3   175  ILE175      0.0252
     86  CG1       -6.1210  -12.3420   15.9760 C.3   175  ILE175      0.0019
     87  CG2       -6.2310  -12.3860   18.4330 C.3   175  ILE175      0.0019
     88  CD1       -5.1540  -11.1780   15.8160 C.3   175  ILE175      0.0001
     89  N        -10.8740   -9.2950   17.3960 N.3   191  TYR191     -0.1241
     90  CA       -10.5370   -8.8990   16.0390 C.3   191  TYR191      0.1605
     91  C        -11.1640   -9.8240   14.9830 C.2   191  TYR191      0.2264
     92  O        -10.9080  -11.0210   14.9930 O.2   191  TYR191     -0.2867
     93  CB        -9.0210   -8.8910   15.8340 C.3   191  TYR191      0.0534
     94  CG        -8.6590   -8.5350   14.4130 C.ar  191  TYR191     -0.0201
     95  CD1       -8.6060   -9.5110   13.4240 C.ar  191  TYR191     -0.0009
     96  CD2       -8.4440   -7.2120   14.0430 C.ar  191  TYR191     -0.0009
     97  CE1       -8.2990   -9.1830   12.1090 C.ar  191  TYR191      0.0417
     98  CE2       -8.1410   -6.8730   12.7300 C.ar  191  TYR191      0.0417
     99  CZ        -8.0830   -7.8630   11.7720 C.ar  191  TYR191      0.1957
    100  OH        -7.7870   -7.5450   10.4700 O.3   191  TYR191     -0.2866
    101  N        -12.1750   -4.9220   12.1860 N.3   196  GLY196     -0.1210
    102  CA       -10.9310   -4.6670   12.9200 C.3   196  GLY196      0.1956
    103  C        -11.0650   -5.1240   14.3700 C.2   196  GLY196      0.2611
    104  O        -11.7160   -6.1520   14.6650 O.2   196  GLY196     -0.2717
    105  N        -10.4900   -4.3500   15.2880 N.am  197  TRP197     -0.1976
    106  CA       -10.7090   -4.6000   16.7150 C.3   197  TRP197      0.1640
    107  C        -12.0190   -3.9890   17.1650 C.2   197  TRP197      0.2290
    108  O        -12.1690   -2.7850   17.1770 O.2   197  TRP197     -0.2864
    109  CB        -9.5570   -4.0480   17.5360 C.3   197  TRP197      0.0576
    110  CG        -8.3180   -4.8660   17.3710 C.ar  197  TRP197      0.0006
    111  CD1       -7.2660   -4.6090   16.5400 C.ar  197  TRP197      0.0946
    112  CD2       -8.0090   -6.0870   18.0520 C.ar  197  TRP197      0.0152
    113  NE1       -6.3200   -5.5920   16.6650 N.ar  197  TRP197     -0.2442
    114  CE2       -6.7490   -6.5140   17.5870 C.ar  197  TRP197      0.0810
    115  CE3       -8.6780   -6.8640   19.0120 C.ar  197  TRP197      0.0012
    116  CZ2       -6.1320   -7.6870   18.0540 C.ar  197  TRP197      0.0191
    117  CZ3       -8.0640   -8.0460   19.4700 C.ar  197  TRP197      0.0001
    118  CH2       -6.8010   -8.4380   18.9850 C.ar  197  TRP197      0.0015
@<TRIPOS>BOND
     1    17    15   am
     2    49    48    2
     3    48    47    1
     4    15    16    2
     5    15    14    1
     6    50    47    1
     7    50    51    1
     8    80    74    1
     9    80    79    1
    10    14    13    1
    11    62    61    1
    12    47    46    1
    13    74    75    1
    14    51    52    2
    15    51    53   am
    16    61    60    1
    17    79    78    1
    18    13    10    1
    19   100    99    1
    20    75    78    1
    21    75    76    1
    22     9    10    1
    23    60    59    1
    24    10    11    1
    25    28    26    1
    26    77    76    2
    27     4     3    2
    28     7     6    1
    29    99    97   ar
    30    99    98   ar
    31     5     6    1
    32     5     2    1
    33    97    95   ar
    34    59    58    1
    35     3     2    1
    36   101   102    1
    37    45    44    1
    38    27    26    1
    39    26    25    2
    40    11    12    2
    41     6     8    1
    42    98    96   ar
    43    44    43    1
    44     2     1    1
    45   102   103    1
    46    95    94   ar
    47    58    55    1
    48    25    24    1
    49    42    43    1
    50    42    39    1
    51    41    40    2
    52    96    94   ar
    53    40    39    1
    54   103   104    2
    55   103   105   am
    56    94    93    1
    57    54    55    1
    58    55    56    1
    59    39    38    1
    60    24    23    1
    61    91    92    2
    62    91    90    1
    63   105   106    1
    64    23    22    1
    65    56    57    2
    66    88    86    1
    67    72    71    1
    68    93    90    1
    69    81    82    1
    70    64    63    1
    71    64    65    1
    72    86    85    1
    73    90    89    1
    74    18    19    1
    75    36    35   ar
    76   111   113   ar
    77   111   110   ar
    78    65    67   am
    79    65    66    2
    80   113   114   ar
    81   106   107    1
    82   106   109    1
    83    67    68    1
    84    22    19    1
    85    37    35   ar
    86    35    34    1
    87    19    20    1
    88    82    85    1
    89    82    83    1
    90    85    87    1
    91   107   108    2
    92    71    68    1
    93    71    73    1
    94   110   109    1
    95   110   112   ar
    96    68    69    1
    97   114   112   ar
    98   114   116   ar
    99   112   115   ar
   100   116   118   ar
   101    34    33    1
   102    84    83    2
   103    20    21    2
   104   118   117   ar
   105   115   117   ar
   106    69    70    2
   107    32    31    2
   108    33    30    1
   109    31    30    1
   110    30    29    1
