@<TRIPOS>MOLECULE
tmp/4d4uA00.pdb
 103 96 0 0 0
SMALL
GASTEIGER

@<TRIPOS>ATOM
      1  N          0.4160  -35.0120   20.1960 N.3    22  HIS22      -0.1241
      2  CA         1.8620  -34.8590   20.3950 C.3    22  HIS22       0.1621
      3  C          2.0530  -33.5370   21.1550 C.2    22  HIS22       0.2264
      4  O          1.8280  -32.4750   20.5810 O.2    22  HIS22      -0.2867
      5  CB         2.5870  -34.8440   19.0550 C.3    22  HIS22       0.0745
      6  CG         2.2240  -36.0010   18.1780 C.ar   22  HIS22       0.0817
      7  ND1        3.0000  -37.1350   18.0750 N.ar   22  HIS22      -0.2268
      8  CD2        1.1380  -36.2190   17.3930 C.ar   22  HIS22       0.1154
      9  CE1        2.4140  -37.9950   17.2610 C.ar   22  HIS22       0.1986
     10  NE2        1.2900  -37.4580   16.8240 N.ar   22  HIS22      -0.2212
     11  N          3.9740  -30.6410   23.9130 N.3    24  ARG24      -0.1245
     12  CA         5.1450  -30.0730   24.5740 C.3    24  ARG24       0.1563
     13  C          4.7360  -29.1200   25.6830 C.2    24  ARG24       0.2260
     14  O          3.8320  -28.3020   25.4880 O.2    24  ARG24      -0.2867
     15  CB         6.0350  -29.3320   23.5900 C.3    24  ARG24       0.0307
     16  CG         6.4450  -30.1510   22.3840 C.3    24  ARG24       0.0489
     17  CD         7.4340  -31.2610   22.7250 C.3    24  ARG24       0.2205
     18  NE         7.8980  -31.9480   21.5150 N.pl3  24  ARG24      -0.0865
     19  CZ         7.3250  -33.0230   20.9670 C.cat  24  ARG24       0.5346
     20  NH1        6.2310  -33.5850   21.4980 N.pl3  24  ARG24       0.1354
     21  NH2        7.8400  -33.5380   19.8610 N.pl3  24  ARG24       0.1354
     22  N         11.7090  -27.9280   28.6000 N.3    36  GLU36      -0.1245
     23  CA        10.6610  -28.5780   27.8060 C.3    36  GLU36       0.1567
     24  C         10.4600  -30.0180   28.2590 C.2    36  GLU36       0.2260
     25  O         11.4050  -30.8410   28.2170 O.2    36  GLU36      -0.2867
     26  CB        11.0260  -28.5810   26.3090 C.3    36  GLU36       0.0388
     27  CG         9.9540  -29.1850   25.4010 C.3    36  GLU36       0.1160
     28  CD        10.4450  -29.3890   23.9800 C.2    36  GLU36       0.3649
     29  OE1       11.3730  -30.2140   23.8110 O.co2  36  GLU36      -0.2457
     30  OE2        9.9170  -28.7260   23.0490 O.co2  36  GLU36      -0.2457
     31  N          7.8100  -33.3090   27.3570 N.3    38  LEU38      -0.1245
     32  CA         7.1000  -33.7400   26.1500 C.3    38  LEU38       0.1561
     33  C          6.2970  -34.9990   26.3550 C.2    38  LEU38       0.2260
     34  O          6.5300  -35.7640   27.3020 O.2    38  LEU38      -0.2867
     35  CB         8.0500  -33.9040   24.9460 C.3    38  LEU38       0.0270
     36  CG         9.1380  -34.9840   24.8530 C.3    38  LEU38       0.0019
     37  CD1        8.6340  -36.3510   24.3970 C.3    38  LEU38       0.0001
     38  CD2       10.1970  -34.5140   23.8560 C.3    38  LEU38       0.0001
     39  N          5.1460  -38.0050   23.7580 N.3    40  GLU40      -0.1245
     40  CA         5.1450  -38.6590   22.4580 C.3    40  GLU40       0.1567
     41  C          4.8530  -40.1310   22.7210 C.2    40  GLU40       0.2260
     42  O          5.7620  -40.9510   22.7310 O.2    40  GLU40      -0.2867
     43  CB         6.5120  -38.5060   21.7780 C.3    40  GLU40       0.0388
     44  CG         6.7710  -37.1360   21.1760 C.3    40  GLU40       0.1160
     45  CD         5.9090  -36.8050   19.9750 C.2    40  GLU40       0.3649
     46  OE1        5.1990  -37.6900   19.4590 O.co2  40  GLU40      -0.2457
     47  OE2        5.9370  -35.6340   19.5340 O.co2  40  GLU40      -0.2457
     48  N         11.4900  -36.0760   29.5280 N.3    45  ASN45      -0.1240
     49  CA        12.3510  -34.8930   29.4960 C.3    45  ASN45       0.1653
     50  C         12.1460  -33.9410   30.6520 C.2    45  ASN45       0.2266
     51  O         11.9630  -34.4080   31.7650 O.2    45  ASN45      -0.2867
     52  CB        12.2890  -34.2640   28.1090 C.3    45  ASN45       0.1155
     53  CG        12.8870  -35.1840   27.0630 C.2    45  ASN45       0.2627
     54  OD1       13.4460  -36.2290   27.4120 O.2    45  ASN45      -0.2716
     55  ND2       12.7820  -34.8170   25.7990 N.am   45  ASN45      -0.0877
     56  N          3.9610  -29.1160   15.2280 N.3    68  LEU68      -0.1245
     57  CA         5.2320  -29.0690   15.9030 C.3    68  LEU68       0.1561
     58  C          6.3500  -28.8170   14.9140 C.2    68  LEU68       0.2260
     59  O          7.5050  -29.0190   15.2040 O.2    68  LEU68      -0.2867
     60  CB         5.4650  -30.3530   16.6810 C.3    68  LEU68       0.0270
     61  CG         4.4950  -30.6260   17.8290 C.3    68  LEU68       0.0019
     62  CD1        4.8450  -31.9510   18.4820 C.3    68  LEU68       0.0001
     63  CD2        4.5730  -29.5180   18.8690 C.3    68  LEU68       0.0001
     64  N          7.7230  -23.9150   16.5460 N.3    71  ILE71      -0.1245
     65  CA         7.3220  -23.5820   17.9090 C.3    71  ILE71       0.1561
     66  C          8.0520  -22.3110   18.3190 C.2    71  ILE71       0.2260
     67  O          9.2450  -22.1290   18.0200 O.2    71  ILE71      -0.2867
     68  CB         7.7160  -24.6810   18.9170 C.3    71  ILE71       0.0252
     69  CG1        7.3110  -26.0850   18.4130 C.3    71  ILE71       0.0019
     70  CG2        7.1190  -24.3460   20.2850 C.3    71  ILE71       0.0019
     71  CD1        7.8890  -27.2430   19.2300 C.3    71  ILE71       0.0001
     72  N         11.9570  -22.9090   17.6180 N.3    87  TYR87      -0.1241
     73  CA        12.2640  -24.2050   17.0390 C.3    87  TYR87       0.1605
     74  C         11.6180  -24.3470   15.6640 C.2    87  TYR87       0.2264
     75  O         10.4170  -24.1180   15.5110 O.2    87  TYR87      -0.2867
     76  CB        11.7620  -25.3280   17.9270 C.3    87  TYR87       0.0534
     77  CG        12.0090  -26.6980   17.3340 C.ar   87  TYR87      -0.0201
     78  CD1       11.1220  -27.2490   16.4210 C.ar   87  TYR87      -0.0009
     79  CD2       13.1440  -27.4320   17.6600 C.ar   87  TYR87      -0.0009
     80  CE1       11.3480  -28.4990   15.8660 C.ar   87  TYR87       0.0417
     81  CE2       13.3700  -28.6800   17.1080 C.ar   87  TYR87       0.0417
     82  CZ        12.4660  -29.2000   16.2130 C.ar   87  TYR87       0.1957
     83  OH        12.6500  -30.4410   15.6500 O.3    87  TYR87      -0.2866
     84  N         11.4850  -27.3420   12.5960 N.3    89  SER89      -0.1217
     85  CA        11.8220  -28.6970   12.2210 C.3    89  SER89       0.1889
     86  C         12.9760  -28.6310   11.2240 C.2    89  SER89       0.2288
     87  O         12.8960  -27.8840   10.2470 O.2    89  SER89      -0.2866
     88  CB        10.6050  -29.3840   11.6080 C.3    89  SER89       0.2089
     89  OG        10.9650  -30.6420   11.0860 O.3    89  SER89      -0.2183
     90  N         16.5140  -25.6910   17.9760 N.3    93  TRP93      -0.1241
     91  CA        16.2970  -24.5120   18.8080 C.3    93  TRP93       0.1605
     92  C         17.3510  -23.4310   18.5600 C.2    93  TRP93       0.2264
     93  O         18.5450  -23.7300   18.4530 O.2    93  TRP93      -0.2867
     94  CB        16.2990  -24.8960   20.2850 C.3    93  TRP93       0.0550
     95  CG        15.0740  -25.6490   20.6680 C.ar   93  TRP93       0.0003
     96  CD1       14.9460  -27.0050   20.7850 C.ar   93  TRP93       0.0946
     97  CD2       13.7870  -25.0970   20.9580 C.ar   93  TRP93       0.0152
     98  NE1       13.6590  -27.3300   21.1410 N.ar   93  TRP93      -0.2442
     99  CE2       12.9270  -26.1760   21.2560 C.ar   93  TRP93       0.0810
    100  CE3       13.2770  -23.7970   21.0070 C.ar   93  TRP93       0.0012
    101  CZ2       11.5910  -25.9900   21.5940 C.ar   93  TRP93       0.0191
    102  CZ3       11.9540  -23.6140   21.3460 C.ar   93  TRP93       0.0001
    103  CH2       11.1210  -24.7010   21.6240 C.ar   93  TRP93       0.0015
@<TRIPOS>BOND
     1    87    86    2
     2    89    88    1
     3    86    85    1
     4    88    85    1
     5    85    84    1
     6    58    59    2
     7    58    57    1
     8    56    57    1
     9    75    74    2
    10    83    82    1
    11    74    73    1
    12    80    82   ar
    13    80    78   ar
    14    57    60    1
    15    82    81   ar
    16    78    77   ar
    17    64    65    1
    18    60    61    1
    19    10     9   ar
    20    10     8   ar
    21    73    72    1
    22    73    76    1
    23    81    79   ar
    24     9     7   ar
    25    77    79   ar
    26    77    76    1
    27     8     6   ar
    28    61    62    1
    29    61    63    1
    30    65    66    1
    31    65    68    1
    32    90    91    1
    33    67    66    2
    34     7     6   ar
    35     6     5    1
    36    69    68    1
    37    69    71    1
    38    93    92    2
    39    92    91    1
    40    91    94    1
    41    68    70    1
    42     5     2    1
    43    46    45   ar
    44    47    45   ar
    45    21    19    1
    46    45    44    1
    47     1     2    1
    48    94    95    1
    49     2     3    1
    50     4     3    2
    51    95    96   ar
    52    95    97   ar
    53    96    98   ar
    54    97   100   ar
    55    97    99   ar
    56    19    20    1
    57    19    18    2
    58   100   102   ar
    59    98    99   ar
    60    44    43    1
    61    99   101   ar
    62   102   103   ar
    63    18    17    1
    64   101   103   ar
    65    43    40    1
    66    16    17    1
    67    16    15    1
    68    40    41    1
    69    40    39    1
    70    41    42    2
    71    30    28   ar
    72    15    12    1
    73    29    28   ar
    74    38    36    1
    75    11    12    1
    76    28    27    1
    77    37    36    1
    78    12    13    1
    79    36    35    1
    80    35    32    1
    81    27    26    1
    82    14    13    2
    83    55    53   am
    84    32    33    1
    85    32    31    1
    86    26    23    1
    87    33    34    2
    88    53    54    2
    89    53    52    1
    90    23    24    1
    91    23    22    1
    92    52    49    1
    93    25    24    2
    94    49    48    1
    95    49    50    1
    96    50    51    2
