@<TRIPOS>MOLECULE
tmp/4d4uB04.pdb
 106 101 0 0 0
SMALL
GASTEIGER

@<TRIPOS>ATOM
      1  N          7.2410    1.9720   68.9130 N.3    21  ASN21      -0.1240
      2  CA         6.4380    2.4110   67.7730 C.3    21  ASN21       0.1653
      3  C          7.2280    3.1680   66.7250 C.2    21  ASN21       0.2266
      4  O          6.6590    3.9080   65.9260 O.2    21  ASN21      -0.2867
      5  CB         5.2750    3.2650   68.2550 C.3    21  ASN21       0.1155
      6  CG         5.7200    4.5810   68.8550 C.2    21  ASN21       0.2627
      7  OD1        6.9100    4.9040   68.9210 O.2    21  ASN21      -0.2716
      8  ND2        4.7570    5.3530   69.2860 N.am   21  ASN21      -0.0877
      9  N          9.1850    2.2030   63.5530 N.3    23  LEU23      -0.1245
     10  CA         9.0630    1.0080   62.7150 C.3    23  LEU23       0.1561
     11  C          9.9250    1.0930   61.4490 C.2    23  LEU23       0.2260
     12  O         10.1200    2.1810   60.9080 O.2    23  LEU23      -0.2867
     13  CB         7.6050    0.8310   62.2870 C.3    23  LEU23       0.0270
     14  CG         6.4960    1.0520   63.3230 C.3    23  LEU23       0.0019
     15  CD1        5.1320    0.8130   62.6970 C.3    23  LEU23       0.0001
     16  CD2        6.6900    0.1340   64.5180 C.3    23  LEU23       0.0001
     17  N          8.4250    4.2460   59.6740 N.3    39  TYR39      -0.1241
     18  CA         7.4150    5.0080   60.3950 C.3    39  TYR39       0.1605
     19  C          8.0920    5.6990   61.5790 C.2    39  TYR39       0.2264
     20  O          8.5520    5.0280   62.5020 O.2    39  TYR39      -0.2867
     21  CB         6.2920    4.1000   60.9040 C.3    39  TYR39       0.0534
     22  CG         5.1650    4.8790   61.5770 C.ar   39  TYR39      -0.0201
     23  CD1        4.1230    5.4130   60.8160 C.ar   39  TYR39      -0.0009
     24  CD2        5.1510    5.1060   62.9620 C.ar   39  TYR39      -0.0009
     25  CE1        3.0870    6.1290   61.4080 C.ar   39  TYR39       0.0417
     26  CE2        4.1120    5.8190   63.5690 C.ar   39  TYR39       0.0417
     27  CZ         3.0910    6.3420   62.7790 C.ar   39  TYR39       0.1957
     28  OH         2.0540    7.0740   63.3190 O.3    39  TYR39      -0.2866
     29  N          4.6210    7.7840   57.9200 N.3    43  TRP43      -0.1241
     30  CA         5.2350    6.8250   57.0030 C.3    43  TRP43       0.1605
     31  C          6.0480    7.5210   55.9330 C.2    43  TRP43       0.2264
     32  O          5.6220    8.5360   55.4090 O.2    43  TRP43      -0.2867
     33  CB         4.1610    5.9710   56.3240 C.3    43  TRP43       0.0550
     34  CG         3.6490    4.8770   57.1670 C.ar   43  TRP43       0.0003
     35  CD1        2.4490    4.8270   57.8130 C.ar   43  TRP43       0.0946
     36  CD2        4.3280    3.6600   57.4840 C.ar   43  TRP43       0.0152
     37  NE1        2.3370    3.6430   58.5110 N.ar   43  TRP43      -0.2442
     38  CE2        3.4790    2.9150   58.3270 C.ar   43  TRP43       0.0810
     39  CE3        5.5750    3.1240   57.1290 C.ar   43  TRP43       0.0012
     40  CZ2        3.8290    1.6600   58.8140 C.ar   43  TRP43       0.0191
     41  CZ3        5.9310    1.8860   57.6140 C.ar   43  TRP43       0.0001
     42  CH2        5.0670    1.1680   58.4630 C.ar   43  TRP43       0.0015
     43  N          5.5210   -4.9750   70.6320 N.3   269  TRP269     -0.1241
     44  CA         6.2000   -4.2950   71.7270 C.3   269  TRP269      0.1605
     45  C          5.2100   -4.1780   72.8690 C.2   269  TRP269      0.2264
     46  O          4.0100   -4.3390   72.6540 O.2   269  TRP269     -0.2867
     47  CB         6.7650   -2.9420   71.2880 C.3   269  TRP269      0.0550
     48  CG         5.7740   -1.8880   70.8640 C.ar  269  TRP269      0.0003
     49  CD1        5.2440   -0.9010   71.6520 C.ar  269  TRP269      0.0946
     50  CD2        5.2580   -1.6590   69.5380 C.ar  269  TRP269      0.0152
     51  NE1        4.4140   -0.0920   70.9070 N.ar  269  TRP269     -0.2442
     52  CE2        4.3980   -0.5400   69.6110 C.ar  269  TRP269      0.0810
     53  CE3        5.4110   -2.3090   68.3100 C.ar  269  TRP269      0.0012
     54  CZ2        3.7140   -0.0540   68.5030 C.ar  269  TRP269      0.0191
     55  CZ3        4.7270   -1.8290   67.2130 C.ar  269  TRP269      0.0001
     56  CH2        3.8970   -0.7070   67.3140 C.ar  269  TRP269      0.0015
     57  N          1.8910   -5.4050   64.9700 N.3   280  ARG280     -0.1245
     58  CA         1.6810   -4.9780   63.5980 C.3   280  ARG280      0.1563
     59  C          2.0440   -6.1170   62.6460 C.2   280  ARG280      0.2260
     60  O          3.0720   -6.7720   62.8200 O.2   280  ARG280     -0.2867
     61  CB         2.5160   -3.7420   63.2560 C.3   280  ARG280      0.0307
     62  CG         2.3060   -2.5540   64.1590 C.3   280  ARG280      0.0489
     63  CD         0.9210   -1.9540   63.9620 C.3   280  ARG280      0.2205
     64  NE         0.7560   -0.7040   64.6990 N.pl3 280  ARG280     -0.0865
     65  CZ         0.4970   -0.6180   65.9990 C.cat 280  ARG280      0.5346
     66  NH1        0.3860   -1.7050   66.7530 N.pl3 280  ARG280      0.1354
     67  NH2        0.3730    0.5770   66.5500 N.pl3 280  ARG280      0.1354
     68  N         -0.9730   -2.9950   56.2090 N.3   294  GLU294     -0.1245
     69  CA        -0.7300   -3.1500   57.6390 C.3   294  GLU294      0.1567
     70  C         -2.0130   -3.5320   58.3970 C.2   294  GLU294      0.2260
     71  O         -3.1040   -3.0410   58.0920 O.2   294  GLU294     -0.2867
     72  CB        -0.1610   -1.8410   58.2160 C.3   294  GLU294      0.0388
     73  CG         0.1480   -1.8590   59.7120 C.3   294  GLU294      0.1160
     74  CD         0.5250   -0.4830   60.2370 C.2   294  GLU294      0.3649
     75  OE1       -0.3030    0.4320   60.1180 O.co2 294  GLU294     -0.2457
     76  OE2        1.6480   -0.3140   60.7570 O.co2 294  GLU294     -0.2457
     77  N         -3.2960   -3.9340   62.6160 N.3   296  VAL296     -0.1245
     78  CA        -2.9510   -3.3980   63.9300 C.3   296  VAL296      0.1561
     79  C         -3.7040   -4.1690   65.0090 C.2   296  VAL296      0.2260
     80  O         -4.8980   -4.4990   64.8420 O.2   296  VAL296     -0.2867
     81  CB        -3.3440   -1.8960   64.0410 C.3   296  VAL296      0.0252
     82  CG1       -3.1120   -1.3380   65.4500 C.3   296  VAL296      0.0019
     83  CG2       -2.5900   -1.0620   63.0280 C.3   296  VAL296      0.0019
     84  N         -4.0810   -3.3830   69.2620 N.3   298  ASN298     -0.1240
     85  CA        -3.6880   -2.6530   70.4670 C.3   298  ASN298      0.1653
     86  C         -4.8110   -2.6660   71.4620 C.2   298  ASN298      0.2266
     87  O         -5.9550   -2.9060   71.0900 O.2   298  ASN298     -0.2867
     88  CB        -3.2470   -1.2270   70.1530 C.3   298  ASN298      0.1155
     89  CG        -4.3800   -0.3540   69.6550 C.2   298  ASN298      0.2627
     90  OD1       -5.5670   -0.7240   69.7000 O.2   298  ASN298     -0.2716
     91  ND2       -4.0160    0.8270   69.1750 N.am  298  ASN298     -0.0877
     92  N         -4.6430   -1.1320   59.3680 N.3   306  GLY306     -0.1210
     93  CA        -3.7920    0.0170   59.6250 C.3   306  GLY306      0.1956
     94  C         -3.5320    0.7330   58.3330 C.2   306  GLY306      0.2611
     95  O         -4.4170    0.8170   57.4840 O.2   306  GLY306     -0.2717
     96  N         -2.3140    1.2410   58.1660 N.am  307  ARG307     -0.1979
     97  CA        -1.9190    1.8710   56.9160 C.3   307  ARG307      0.1597
     98  C         -2.3250    1.0100   55.7220 C.2   307  ARG307      0.2287
     99  O         -1.8830   -0.1300   55.5680 O.2   307  ARG307     -0.2864
    100  CB        -0.4110    2.1180   56.8890 C.3   307  ARG307      0.0334
    101  CG         0.0970    2.7950   55.6410 C.3   307  ARG307      0.0492
    102  CD        -0.5080    4.1890   55.4410 C.3   307  ARG307      0.2205
    103  NE         0.1960    4.8870   54.3680 N.pl3 307  ARG307     -0.0865
    104  CZ         0.7830    6.0840   54.4490 C.cat 307  ARG307      0.5346
    105  NH1        0.7520    6.8240   55.5630 N.pl3 307  ARG307      0.1354
    106  NH2        1.4290    6.5460   53.3910 N.pl3 307  ARG307      0.1354
@<TRIPOS>BOND
     1   106   104    1
     2   103   104    2
     3   103   102    1
     4   104   105    1
     5    32    31    2
     6   102   101    1
     7    99    98    2
     8   101   100    1
     9    98    97    1
    10    31    30    1
    11    68    69    1
    12    33    30    1
    13    33    34    1
    14   100    97    1
    15    97    96    1
    16    30    29    1
    17    39    36   ar
    18    39    41   ar
    19    34    36   ar
    20    34    35   ar
    21    95    94    2
    22    36    38   ar
    23    41    42   ar
    24    69    72    1
    25    69    70    1
    26    35    37   ar
    27    71    70    2
    28    96    94   am
    29    72    73    1
    30    38    37   ar
    31    38    40   ar
    32    94    93    1
    33    42    40   ar
    34    92    93    1
    35    17    18    1
    36    73    74    1
    37    75    74   ar
    38    74    76   ar
    39    18    21    1
    40    18    19    1
    41    23    25   ar
    42    23    22   ar
    43    21    22    1
    44    12    11    2
    45    25    27   ar
    46    11    10    1
    47    22    24   ar
    48    19    20    2
    49    13    10    1
    50    13    14    1
    51    77    78    1
    52    59    60    2
    53    59    58    1
    54    15    14    1
    55    10     9    1
    56    27    28    1
    57    27    26   ar
    58    24    26   ar
    59    83    81    1
    60    61    58    1
    61    61    62    1
    62    14    16    1
    63    58    57    1
    64    78    81    1
    65    78    79    1
    66    63    62    1
    67    63    64    1
    68    81    82    1
    69    64    65    2
    70    80    79    2
    71     4     3    2
    72    65    67    1
    73    65    66    1
    74     3     2    1
    75    55    56   ar
    76    55    53   ar
    77    56    54   ar
    78     2     5    1
    79     2     1    1
    80     5     6    1
    81    53    50   ar
    82    54    52   ar
    83     6     7    2
    84     6     8   am
    85    91    89   am
    86    84    85    1
    87    50    52   ar
    88    50    48   ar
    89    52    51   ar
    90    89    90    2
    91    89    88    1
    92    88    85    1
    93    85    86    1
    94    43    44    1
    95    48    47    1
    96    48    49   ar
    97    51    49   ar
    98    87    86    2
    99    47    44    1
   100    44    45    1
   101    46    45    2
