@<TRIPOS>MOLECULE
tmp/4d4uA04.pdb
 157 150 0 0 0
SMALL
GASTEIGER

@<TRIPOS>ATOM
      1  N         -2.3700  -35.0350   19.6650 N.3    21  ASN21      -0.1240
      2  CA        -1.8670  -35.5490   20.9410 C.3    21  ASN21       0.1653
      3  C         -0.3420  -35.6840   21.0600 C.2    21  ASN21       0.2266
      4  O          0.1350  -36.4080   21.9240 O.2    21  ASN21      -0.2867
      5  CB        -2.5510  -36.8810   21.3050 C.3    21  ASN21       0.1155
      6  CG        -2.3180  -37.9900   20.2810 C.2    21  ASN21       0.2627
      7  OD1       -1.5450  -37.8630   19.3470 O.2    21  ASN21      -0.2716
      8  ND2       -3.0130  -39.0910   20.4680 N.am   21  ASN21      -0.0877
      9  N          2.4400  -33.6020   22.4330 N.3    23  LEU23      -0.1245
     10  CA         2.4160  -32.4250   23.3250 C.3    23  LEU23       0.1561
     11  C          3.8160  -31.9520   23.7410 C.2    23  LEU23       0.2260
     12  O          4.7180  -32.7680   23.9230 O.2    23  LEU23      -0.2867
     13  CB         1.6780  -32.7730   24.6140 C.3    23  LEU23       0.0270
     14  CG         0.4220  -33.6570   24.5680 C.3    23  LEU23       0.0019
     15  CD1       -0.1530  -33.7870   25.9600 C.3    23  LEU23       0.0001
     16  CD2       -0.6410  -33.0960   23.6360 C.3    23  LEU23       0.0001
     17  N          5.3340  -35.1870   25.4630 N.3    39  TYR39      -0.1241
     18  CA         4.5200  -36.3860   25.4350 C.3    39  TYR39       0.1605
     19  C          4.4680  -36.8780   24.0020 C.2    39  TYR39       0.2264
     20  O          3.8620  -36.2260   23.1370 O.2    39  TYR39      -0.2867
     21  CB         3.1120  -36.1320   25.9630 C.3    39  TYR39       0.0534
     22  CG         2.3200  -37.4140   26.0610 C.ar   39  TYR39      -0.0201
     23  CD1        2.4000  -38.2240   27.1960 C.ar   39  TYR39      -0.0009
     24  CD2        1.5280  -37.8510   25.0080 C.ar   39  TYR39      -0.0009
     25  CE1        1.6840  -39.4080   27.2840 C.ar   39  TYR39       0.0417
     26  CE2        0.8100  -39.0370   25.0930 C.ar   39  TYR39       0.0417
     27  CZ         0.8970  -39.8060   26.2290 C.ar   39  TYR39       0.1957
     28  OH         0.2010  -40.9770   26.3020 O.3    39  TYR39      -0.2866
     29  N          5.3880  -39.7440   28.7180 N.3    43  TRP43      -0.1241
     30  CA         5.9670  -38.4850   29.2070 C.3    43  TRP43       0.1605
     31  C          7.4740  -38.5860   29.3600 C.2    43  TRP43       0.2264
     32  O          7.9650  -39.5710   29.8540 O.2    43  TRP43      -0.2867
     33  CB         5.3250  -38.0670   30.5260 C.3    43  TRP43       0.0550
     34  CG         3.9860  -37.3920   30.3660 C.ar   43  TRP43       0.0003
     35  CD1        2.7550  -37.9200   30.6640 C.ar   43  TRP43       0.0946
     36  CD2        3.7410  -36.0640   29.8670 C.ar   43  TRP43       0.0152
     37  NE1        1.7570  -37.0020   30.3740 N.ar   43  TRP43      -0.2442
     38  CE2        2.3360  -35.8580   29.8870 C.ar   43  TRP43       0.0810
     39  CE3        4.5700  -35.0320   29.3920 C.ar   43  TRP43       0.0012
     40  CZ2        1.7490  -34.6550   29.4730 C.ar   43  TRP43       0.0191
     41  CZ3        3.9780  -33.8160   28.9740 C.ar   43  TRP43       0.0001
     42  CH2        2.5880  -33.6490   29.0110 C.ar   43  TRP43       0.0015
     43  N         -7.4680  -30.0150   20.8620 N.3   269  TRP269     -0.1241
     44  CA        -7.5250  -30.4700   19.4810 C.3   269  TRP269      0.1605
     45  C         -8.8660  -31.1450   19.2190 C.2   269  TRP269      0.2264
     46  O         -9.5690  -31.5020   20.1640 O.2   269  TRP269     -0.2867
     47  CB        -6.3360  -31.3700   19.1370 C.3   269  TRP269      0.0550
     48  CG        -6.2200  -32.6720   19.8650 C.ar  269  TRP269      0.0003
     49  CD1       -6.5830  -33.9120   19.3920 C.ar  269  TRP269      0.0946
     50  CD2       -5.6380  -32.9010   21.1650 C.ar  269  TRP269      0.0152
     51  NE1       -6.2630  -34.8880   20.3140 N.ar  269  TRP269     -0.2442
     52  CE2       -5.6880  -34.2980   21.4080 C.ar  269  TRP269      0.0810
     53  CE3       -5.0820  -32.0670   22.1420 C.ar  269  TRP269      0.0012
     54  CZ2       -5.2270  -34.8670   22.5820 C.ar  269  TRP269      0.0191
     55  CZ3       -4.6080  -32.6430   23.3210 C.ar  269  TRP269      0.0001
     56  CH2       -4.6880  -34.0260   23.5270 C.ar  269  TRP269      0.0015
     57  N        -15.7560  -36.7160   17.3300 N.3   275  ASN275     -0.1240
     58  CA       -15.4210  -37.3800   18.6010 C.3   275  ASN275      0.1653
     59  C        -14.5180  -36.5920   19.5760 C.2   275  ASN275      0.2266
     60  O        -13.7530  -37.1750   20.3650 O.2   275  ASN275     -0.2867
     61  CB       -14.8180  -38.7760   18.3540 C.3   275  ASN275      0.1155
     62  CG       -14.9130  -39.6860   19.5900 C.2   275  ASN275      0.2627
     63  OD1      -15.8840  -39.6140   20.3630 O.2   275  ASN275     -0.2716
     64  ND2      -13.9030  -40.5380   19.7890 N.am  275  ASN275     -0.0877
     65  N        -10.5750  -32.6850   22.4970 N.3   278  ASP278     -0.1239
     66  CA        -9.6820  -33.0260   23.5700 C.3   278  ASP278      0.1674
     67  C         -9.0870  -31.7360   24.1670 C.2   278  ASP278      0.2266
     68  O         -8.6250  -30.8720   23.4170 O.2   278  ASP278     -0.2867
     69  CB        -8.5700  -33.9170   23.0490 C.3   278  ASP278      0.1410
     70  CG        -8.8720  -35.3790   23.2340 C.2   278  ASP278      0.3668
     71  OD1       -8.5240  -35.9120   24.3150 O.co2 278  ASP278     -0.2456
     72  OD2       -9.4460  -35.9790   22.2920 O.co2 278  ASP278     -0.2456
     73  N         -6.3890  -30.2740   27.3330 N.3   280  ARG280     -0.1245
     74  CA        -5.4420  -30.4970   28.4360 C.3   280  ARG280      0.1563
     75  C         -5.0580  -29.1960   29.1680 C.2   280  ARG280      0.2260
     76  O         -4.6300  -28.2310   28.5300 O.2   280  ARG280     -0.2867
     77  CB        -4.1630  -31.1530   27.8910 C.3   280  ARG280      0.0307
     78  CG        -4.3950  -32.4160   27.0870 C.3   280  ARG280      0.0489
     79  CD        -4.7980  -33.5550   28.0080 C.3   280  ARG280      0.2205
     80  NE        -4.8080  -34.8520   27.3190 N.pl3 280  ARG280     -0.0865
     81  CZ        -5.8190  -35.3100   26.5870 C.cat 280  ARG280      0.5346
     82  NH1       -6.9470  -34.5930   26.4420 N.pl3 280  ARG280      0.1354
     83  NH2       -5.7130  -36.4930   26.0040 N.pl3 280  ARG280      0.1354
     84  N         -1.5410  -32.3590   35.3210 N.3   294  GLU294     -0.1245
     85  CA        -2.3810  -32.2790   34.1350 C.3   294  GLU294      0.1567
     86  C         -3.8640  -32.5590   34.4600 C.2   294  GLU294      0.2260
     87  O         -4.1880  -33.3020   35.4020 O.2   294  GLU294     -0.2867
     88  CB        -1.8320  -33.2450   33.0900 C.3   294  GLU294      0.0388
     89  CG        -2.5990  -33.3550   31.7770 C.3   294  GLU294      0.1160
     90  CD        -2.1310  -34.5360   30.9420 C.2   294  GLU294      0.3649
     91  OE1       -2.2510  -35.6850   31.3920 O.co2 294  GLU294     -0.2457
     92  OE2       -1.6310  -34.3230   29.8310 O.co2 294  GLU294     -0.2457
     93  N         -7.6110  -33.3520   32.1560 N.3   296  VAL296     -0.1245
     94  CA        -7.9820  -33.9480   30.8660 C.3   296  VAL296      0.1561
     95  C         -9.4850  -33.8090   30.6740 C.2   296  VAL296      0.2260
     96  O        -10.2630  -34.0530   31.5970 O.2   296  VAL296     -0.2867
     97  CB        -7.5880  -35.4560   30.8370 C.3   296  VAL296      0.0252
     98  CG1       -8.1800  -36.1910   29.6330 C.3   296  VAL296      0.0019
     99  CG2       -6.0680  -35.6120   30.8330 C.3   296  VAL296      0.0019
    100  N        -12.0100  -35.2790   27.5920 N.3   298  ASN298     -0.1225
    101  CA       -12.2500  -35.9670   26.3110 C.3   298  ASN298      0.1785
    102  C        -13.6810  -36.5020   26.2850 C.2   298  ASN298      0.2597
    103  O        -14.4010  -36.4520   27.3100 O.2   298  ASN298     -0.2718
    104  CB       -11.2030  -37.0810   26.0290 C.3   298  ASN298      0.1169
    105  CG       -11.1750  -38.1980   27.0720 C.2   298  ASN298      0.2627
    106  OD1      -12.1140  -38.4060   27.8480 O.2   298  ASN298     -0.2716
    107  ND2      -10.0610  -38.9500   27.0820 N.am  298  ASN298     -0.0877
    108  N        -14.0930  -37.0060   25.1260 N.am  299  ARG299     -0.1966
    109  CA       -15.4220  -37.5990   25.0160 C.3   299  ARG299      0.1729
    110  C        -15.5570  -38.8840   25.8250 C.2   299  ARG299      0.2616
    111  O        -16.6080  -39.1430   26.3920 O.2   299  ARG299     -0.2715
    112  CB       -15.7990  -37.8510   23.5550 C.3   299  ARG299      0.0348
    113  CG       -16.0020  -36.5770   22.7620 C.3   299  ARG299      0.0492
    114  CD       -17.2830  -35.8550   23.1770 C.3   299  ARG299      0.2205
    115  NE       -18.4690  -36.3870   22.5240 N.pl3 299  ARG299     -0.0865
    116  CZ       -18.8140  -36.1660   21.2510 C.cat 299  ARG299      0.5346
    117  NH1      -18.0550  -35.4330   20.4290 N.pl3 299  ARG299      0.1354
    118  NH2      -19.9340  -36.7080   20.7860 N.pl3 299  ARG299      0.1354
    119  N        -14.4920  -39.6710   25.8960 N.am  300  ALA300     -0.1963
    120  CA       -14.5510  -40.9460   26.5840 C.3   300  ALA300      0.1728
    121  C        -14.9880  -40.7810   28.0380 C.2   300  ALA300      0.2616
    122  O        -15.8800  -41.4850   28.4720 O.2   300  ALA300     -0.2715
    123  CB       -13.2090  -41.6790   26.4970 C.3   300  ALA300      0.0334
    124  N        -14.3730  -39.8540   28.7840 N.am  301  HIS301     -0.1973
    125  CA       -14.6380  -39.7530   30.2340 C.3   301  HIS301      0.1656
    126  C        -15.0080  -38.3740   30.7690 C.2   301  HIS301      0.2291
    127  O        -15.1810  -38.2060   31.9710 O.2   301  HIS301     -0.2864
    128  CB       -13.4270  -40.2640   31.0280 C.3   301  HIS301      0.0771
    129  CG       -13.0290  -41.6660   30.6860 C.ar  301  HIS301      0.0820
    130  ND1      -13.7650  -42.7620   31.0820 N.ar  301  HIS301     -0.2267
    131  CD2      -11.9780  -42.1490   29.9810 C.ar  301  HIS301      0.1154
    132  CE1      -13.1810  -43.8610   30.6420 C.ar  301  HIS301      0.1986
    133  NE2      -12.0970  -43.5170   29.9650 N.ar  301  HIS301     -0.2212
    134  N        -11.3800  -35.3780   34.0590 N.3   304  GLN304     -0.1245
    135  CA       -10.5350  -36.2730   34.8900 C.3   304  GLN304      0.1566
    136  C         -9.1360  -35.6750   35.0770 C.2   304  GLN304      0.2260
    137  O         -8.6120  -35.0100   34.1820 O.2   304  GLN304     -0.2867
    138  CB       -10.3510  -37.6570   34.2250 C.3   304  GLN304      0.0367
    139  CG       -11.6230  -38.4300   33.8850 C.3   304  GLN304      0.0905
    140  CD       -12.5440  -38.7010   35.0860 C.2   304  GLN304      0.2608
    141  OE1      -12.1060  -38.7320   36.2300 O.2   304  GLN304     -0.2717
    142  NE2      -13.8340  -38.8880   34.8150 N.am  304  GLN304     -0.0878
    143  N         -5.1850  -35.9820   34.8730 N.3   306  GLY306     -0.1210
    144  CA        -4.3380  -36.7190   33.9600 C.3   306  GLY306      0.1956
    145  C         -3.0690  -37.0600   34.6640 C.2   306  GLY306      0.2611
    146  O         -3.0970  -37.4660   35.8170 O.2   306  GLY306     -0.2717
    147  N         -1.9500  -36.8800   33.9740 N.am  307  ARG307     -0.1979
    148  CA        -0.6300  -37.1010   34.5480 C.3   307  ARG307      0.1597
    149  C         -0.5050  -36.3460   35.8750 C.2   307  ARG307      0.2287
    150  O         -0.6730  -35.1350   35.9450 O.2   307  ARG307     -0.2864
    151  CB         0.4330  -36.6480   33.5550 C.3   307  ARG307      0.0334
    152  CG         1.8650  -36.8020   34.0090 C.3   307  ARG307      0.0492
    153  CD         2.2600  -38.2610   34.1370 C.3   307  ARG307      0.2205
    154  NE         3.6850  -38.3380   34.4200 N.pl3 307  ARG307     -0.0865
    155  CZ         4.5020  -39.2860   33.9800 C.cat 307  ARG307      0.5346
    156  NH1        4.0500  -40.2760   33.2190 N.pl3 307  ARG307      0.1354
    157  NH2        5.7840  -39.2190   34.2840 N.pl3 307  ARG307      0.1354
@<TRIPOS>BOND
     1    57    58    1
     2    61    58    1
     3    61    62    1
     4    58    59    1
     5    47    44    1
     6    47    48    1
     7    45    44    1
     8    45    46    2
     9     7     6    2
    10    49    48   ar
    11    49    51   ar
    12    44    43    1
    13    59    60    2
    14    62    64   am
    15    62    63    2
    16     1     2    1
    17    48    50   ar
    18     6     8   am
    19     6     5    1
    20    51    52   ar
    21   117   116    1
    22   118   116    1
    23     2     3    1
    24     2     5    1
    25     3     4    2
    26    50    52   ar
    27    50    53   ar
    28   116   115    2
    29    52    54   ar
    30    53    55   ar
    31    72    70   ar
    32     9    10    1
    33    65    66    1
    34   115   114    1
    35    54    56   ar
    36   113   114    1
    37   113   112    1
    38    69    70    1
    39    69    66    1
    40    20    19    2
    41    70    71   ar
    42    55    56   ar
    43    10    11    1
    44    10    13    1
    45    68    67    2
    46   112   109    1
    47    66    67    1
    48    16    14    1
    49    11    12    2
    50    19    18    1
    51    14    13    1
    52    14    15    1
    53    24    26   ar
    54    24    22   ar
    55   109   108    1
    56   109   110    1
    57    26    27   ar
    58   108   102   am
    59    18    17    1
    60    18    21    1
    61   110   119   am
    62   110   111    2
    63   119   120    1
    64    21    22    1
    65    83    81    1
    66   104   101    1
    67   104   105    1
    68    22    23   ar
    69    27    28    1
    70    27    25   ar
    71   102   101    1
    72   102   103    2
    73   101   100    1
    74    82    81    1
    75   123   120    1
    76   120   121    1
    77    81    80    2
    78   105   107   am
    79   105   106    2
    80    78    77    1
    81    78    79    1
    82    23    25   ar
    83    80    79    1
    84    73    74    1
    85    77    74    1
    86   121   122    2
    87   121   124   am
    88    74    75    1
    89    76    75    2
    90    29    30    1
    91   124   125    1
    92    41    42   ar
    93    41    39   ar
    94    42    40   ar
    95    30    31    1
    96    30    33    1
    97    31    32    2
    98    39    36   ar
    99    40    38   ar
   100    98    97    1
   101    92    90   ar
   102    36    38   ar
   103    36    34   ar
   104    38    37   ar
   105   133   131   ar
   106   133   132   ar
   107   131   129   ar
   108   125   126    1
   109   125   128    1
   110    34    33    1
   111    34    35   ar
   112    37    35   ar
   113   132   130   ar
   114    95    94    1
   115    95    96    2
   116   129   128    1
   117   129   130   ar
   118   126   127    2
   119    99    97    1
   120    97    94    1
   121    94    93    1
   122    90    91   ar
   123    90    89    1
   124    89    88    1
   125    88    85    1
   126   156   155    1
   127   151   152    1
   128   151   148    1
   129   139   138    1
   130   139   140    1
   131   144   145    1
   132   144   143    1
   133   147   148    1
   134   147   145   am
   135   155   157    1
   136   155   154    2
   137   152   153    1
   138   134   135    1
   139    85    86    1
   140    85    84    1
   141   153   154    1
   142   137   136    2
   143   138   135    1
   144    86    87    2
   145   148   149    1
   146   145   146    2
   147   142   140   am
   148   135   136    1
   149   140   141    2
   150   149   150    2
