@<TRIPOS>MOLECULE
tmp/4d4vB00.pdb
 139 129 0 0 0
SMALL
GASTEIGER

@<TRIPOS>ATOM
      1  N         14.4110   16.0090   84.6400 N.3    14  ILE14      -0.1231
      2  CA        13.8340   16.3330   83.3330 C.3    14  ILE14       0.1692
      3  C         12.7900   15.3150   82.8630 C.2    14  ILE14       0.2593
      4  O         12.3680   15.3550   81.7150 O.2    14  ILE14      -0.2718
      5  CB        14.9330   16.5320   82.2630 C.3    14  ILE14       0.0266
      6  CG1       15.7460   15.2460   82.0480 C.3    14  ILE14       0.0019
      7  CG2       15.8500   17.6720   82.6830 C.3    14  ILE14       0.0020
      8  CD1       16.7860   15.3510   80.9490 C.3    14  ILE14       0.0001
      9  N         12.3690   14.4190   83.7520 N.am   15  GLY15      -0.1942
     10  CA        11.3170   13.4510   83.4410 C.3    15  GLY15       0.2014
     11  C         11.0260   12.5660   84.6380 C.2    15  GLY15       0.2638
     12  O         11.9370   11.9340   85.1650 O.2    15  GLY15      -0.2714
     13  N          9.7700   12.5360   85.0810 N.am   16  GLU16      -0.1977
     14  CA         9.3600   11.6890   86.2140 C.3    16  GLU16       0.1602
     15  C          8.8390   10.3220   85.7320 C.2    16  GLU16       0.2287
     16  O          8.5840   10.1290   84.5370 O.2    16  GLU16      -0.2864
     17  CB         8.2940   12.3820   87.0740 C.3    16  GLU16       0.0415
     18  CG         8.7060   13.7320   87.6500 C.3    16  GLU16       0.1163
     19  CD         7.9320   14.0950   88.9080 C.2    16  GLU16       0.3649
     20  OE1        8.0480   13.3640   89.9130 O.co2  16  GLU16      -0.2457
     21  OE2        7.2090   15.1120   88.8980 O.co2  16  GLU16      -0.2457
     22  N         14.2410   10.7910   85.5470 N.3    22  VAL22      -0.1245
     23  CA        15.3520   11.1520   84.6550 C.3    22  VAL22       0.1561
     24  C         15.8540   12.5660   84.9100 C.2    22  VAL22       0.2260
     25  O         15.0650   13.5080   84.9740 O.2    22  VAL22      -0.2867
     26  CB        14.9490   11.0940   83.1680 C.3    22  VAL22       0.0252
     27  CG1       16.1810   11.1890   82.2750 C.3    22  VAL22       0.0019
     28  CG2       14.1720    9.8240   82.8710 C.3    22  VAL22       0.0019
     29  N         22.5950   12.2590   80.5100 N.3    38  ALA38      -0.1245
     30  CA        21.2730   12.0290   81.0640 C.3    38  ALA38       0.1562
     31  C         21.4490   10.9390   82.1090 C.2    38  ALA38       0.2260
     32  O         22.3010   10.0690   81.9530 O.2    38  ALA38      -0.2867
     33  CB        20.3100   11.5790   79.9800 C.3    38  ALA38       0.0290
     34  N         19.1680    8.2220   84.3970 N.3    40  LYS40      -0.1245
     35  CA        17.9240    7.5870   84.8220 C.3    40  LYS40       0.1561
     36  C         18.1410    6.9970   86.2130 C.2    40  LYS40       0.2260
     37  O         19.0890    6.2450   86.4350 O.2    40  LYS40      -0.2867
     38  CB        17.4810    6.4960   83.8370 C.3    40  LYS40       0.0271
     39  CG        17.1900    7.0030   82.4290 C.3    40  LYS40       0.0035
     40  CD        16.1830    6.1070   81.6960 C.3    40  LYS40       0.0206
     41  CE        16.1110    6.4440   80.2140 C.3    40  LYS40       0.1093
     42  NZ        14.9960    5.7720   79.4760 N.3    40  LYS40      -0.1314
     43  N         20.7530    6.0950   71.0670 N.3    70  VAL70      -0.1245
     44  CA        21.3340    6.6950   72.2780 C.3    70  VAL70       0.1561
     45  C         22.4350    5.8210   72.8530 C.2    70  VAL70       0.2260
     46  O         22.2520    4.6100   73.0060 O.2    70  VAL70      -0.2867
     47  CB        20.2870    6.9010   73.3940 C.3    70  VAL70       0.0252
     48  CG1       20.9630    7.2360   74.7180 C.3    70  VAL70       0.0019
     49  CG2       19.3520    8.0340   73.0240 C.3    70  VAL70       0.0019
     50  N         23.5430    7.8770   80.4570 N.3    85  MET85      -0.1230
     51  CA        23.5870    7.8620   78.9880 C.3    85  MET85       0.1702
     52  C         23.8990    9.2200   78.4050 C.2    85  MET85       0.2592
     53  O         23.8600   10.2460   79.0950 O.2    85  MET85      -0.2718
     54  CB        22.2920    7.3380   78.3540 C.3    85  MET85       0.0401
     55  CG        21.0080    7.5840   79.1150 C.3    85  MET85       0.0596
     56  SD        19.8330    6.2430   78.8190 S.3    85  MET85      -0.1393
     57  CE        20.9200    4.8830   79.2510 C.3    85  MET85       0.0692
     58  N         24.2120    9.2000   77.1160 N.am   86  GLU86      -0.1966
     59  CA        24.3820   10.4180   76.3480 C.3    86  GLU86       0.1733
     60  C         23.1360   11.3050   76.4730 C.2    86  GLU86       0.2616
     61  O         22.0040   10.8090   76.5720 O.2    86  GLU86      -0.2715
     62  CB        24.7220   10.0770   74.8860 C.3    86  GLU86       0.0429
     63  CG        23.8350   10.7180   73.8350 C.3    86  GLU86       0.1163
     64  CD        24.0980   10.1730   72.4420 C.2    86  GLU86       0.3649
     65  OE1       24.0220    8.9430   72.2340 O.co2  86  GLU86      -0.2457
     66  OE2       24.3660   10.9850   71.5490 O.co2  86  GLU86      -0.2457
     67  N         23.3600   12.6160   76.4820 N.am   87  LEU87      -0.1963
     68  CA        22.2780   13.5900   76.6110 C.3    87  LEU87       0.1728
     69  C         21.8270   14.1140   75.2520 C.2    87  LEU87       0.2616
     70  O         22.6040   14.7290   74.5250 O.2    87  LEU87      -0.2715
     71  CB        22.7110   14.7660   77.4900 C.3    87  LEU87       0.0311
     72  CG        21.6730   15.8740   77.7050 C.3    87  LEU87       0.0022
     73  CD1       20.4540   15.3650   78.4650 C.3    87  LEU87       0.0001
     74  CD2       22.3100   17.0450   78.4400 C.3    87  LEU87       0.0001
     75  N         20.5610   13.8790   74.9230 N.am   88  CYS88      -0.1954
     76  CA        19.9530   14.4580   73.7270 C.3    88  CYS88       0.1843
     77  C         19.2180   15.7200   74.1660 C.2    88  CYS88       0.2626
     78  O         18.0970   15.6550   74.6670 O.2    88  CYS88      -0.2714
     79  CB        19.0350   13.4430   73.0520 C.3    88  CYS88       0.0997
     80  SG        19.9110   11.8980   72.6820 S.3    88  CYS88      -0.0797
     81  N         19.8760   16.8650   73.9680 N.am   89  THR89      -0.1950
     82  CA        19.4970   18.1240   74.6340 C.3    89  THR89       0.1897
     83  C         18.1680   18.7530   74.2170 C.2    89  THR89       0.2313
     84  O         17.6670   19.6230   74.9240 O.2    89  THR89      -0.2863
     85  CB        20.6020   19.2100   74.5190 C.3    89  THR89       0.1794
     86  OG1       20.8800   19.5010   73.1430 O.3    89  THR89      -0.2208
     87  CG2       21.8770   18.7570   75.2100 C.3    89  THR89       0.0378
     88  N         15.4620   16.9030   73.8860 N.3    91  GLY91      -0.1210
     89  CA        14.4730   16.0970   74.5990 C.3    91  GLY91       0.1956
     90  C         13.6180   15.1900   73.7260 C.2    91  GLY91       0.2611
     91  O         14.0870   14.6540   72.7050 O.2    91  GLY91      -0.2717
     92  N         12.3590   15.0360   74.1330 N.am   92  GLU92      -0.1979
     93  CA        11.4360   14.0500   73.5550 C.3    92  GLU92       0.1602
     94  C         10.9390   14.4810   72.1860 C.2    92  GLU92       0.2287
     95  O         10.6160   15.6480   71.9900 O.2    92  GLU92      -0.2864
     96  CB        10.2300   13.8420   74.4830 C.3    92  GLU92       0.0415
     97  CG        10.5390   13.0240   75.7310 C.3    92  GLU92       0.1163
     98  CD         9.6270   13.3560   76.9110 C.2    92  GLU92       0.3649
     99  OE1        8.4040   13.5250   76.7030 O.co2  92  GLU92      -0.2457
    100  OE2       10.1350   13.4470   78.0550 O.co2  92  GLU92      -0.2457
    101  N          7.1980    8.5680   71.3160 N.3   136  ARG136     -0.1231
    102  CA         7.5270    8.7900   72.7440 C.3   136  ARG136      0.1694
    103  C          8.9070    8.2360   73.1350 C.2   136  ARG136      0.2592
    104  O          9.5010    8.6940   74.1210 O.2   136  ARG136     -0.2718
    105  CB         6.4490    8.1760   73.6720 C.3   136  ARG136      0.0321
    106  CG         6.5630    6.6620   73.8740 C.3   136  ARG136      0.0489
    107  CD         5.5320    6.0510   74.8320 C.3   136  ARG136      0.2205
    108  NE         5.2870    4.6560   74.4370 N.pl3 136  ARG136     -0.0865
    109  CZ         4.3960    4.2660   73.5210 C.cat 136  ARG136      0.5346
    110  NH1        3.6050    5.1350   72.9050 N.pl3 136  ARG136      0.1354
    111  NH2        4.2830    2.9920   73.2140 N.pl3 136  ARG136      0.1354
    112  N          9.3930    7.2490   72.3740 N.am  137  ASN137     -0.1974
    113  CA        10.6950    6.6150   72.6250 C.3   137  ASN137      0.1688
    114  C         11.8580    7.0970   71.7380 C.2   137  ASN137      0.2292
    115  O         12.9120    6.4360   71.6650 O.2   137  ASN137     -0.2864
    116  CB        10.5400    5.0960   72.5210 C.3   137  ASN137      0.1181
    117  CG         9.6390    4.5490   73.6170 C.2   137  ASN137      0.2629
    118  OD1        9.5750    5.1100   74.7050 O.2   137  ASN137     -0.2716
    119  ND2        8.9330    3.4680   73.3300 N.am  137  ASN137     -0.0877
    120  N         14.3890   10.4600   70.8370 N.3   139  LEU139     -0.1245
    121  CA        14.9210   11.7010   71.4010 C.3   139  LEU139      0.1561
    122  C         15.5650   12.5570   70.3200 C.2   139  LEU139      0.2260
    123  O         15.8800   12.0710   69.2430 O.2   139  LEU139     -0.2867
    124  CB        15.9340   11.3980   72.4940 C.3   139  LEU139      0.0270
    125  CG        15.3920   10.6780   73.7300 C.3   139  LEU139      0.0019
    126  CD1       16.5420   10.2210   74.6050 C.3   139  LEU139      0.0001
    127  CD2       14.4310   11.5670   74.5100 C.3   139  LEU139      0.0001
    128  N         15.7660    6.1630   71.7910 N.3   149  GLY149     -0.1210
    129  CA        16.2430    6.4950   73.1430 C.3   149  GLY149      0.1956
    130  C         15.8990    5.6050   74.3350 C.2   149  GLY149      0.2611
    131  O         16.3250    5.8890   75.4830 O.2   149  GLY149     -0.2717
    132  N         15.1420    4.5400   74.0780 N.am  150  ASP150     -0.1973
    133  CA        14.5590    3.7180   75.1440 C.3   150  ASP150      0.1709
    134  C         14.4270    2.3060   74.6410 C.2   150  ASP150      0.2293
    135  O         14.0200    2.1140   73.4990 O.2   150  ASP150     -0.2864
    136  CB        13.1710    4.2380   75.4980 C.3   150  ASP150      0.1436
    137  CG        12.6490    3.6640   76.7990 C.2   150  ASP150      0.3671
    138  OD1       12.1180    2.5350   76.7800 O.co2 150  ASP150     -0.2456
    139  OD2       12.7700    4.3550   77.8390 O.co2 150  ASP150     -0.2456
@<TRIPOS>BOND
     1   123   122    2
     2   122   121    1
     3   120   121    1
     4    43    44    1
     5   101   102    1
     6   121   124    1
     7    66    64   ar
     8   115   114    2
     9   114   113    1
    10   128   129    1
    11    95    94    2
    12    94    93    1
    13    65    64   ar
    14    44    45    1
    15    44    47    1
    16   112   113    1
    17   112   103   am
    18    64    63    1
    19   124   125    1
    20   116   113    1
    21   116   117    1
    22    80    79    1
    23    91    90    2
    24   102   103    1
    25   102   105    1
    26    45    46    2
    27   110   109    1
    28    49    47    1
    29    79    76    1
    30   103   104    2
    31    86    85    1
    32   129   130    1
    33   111   109    1
    34   119   117   am
    35    47    48    1
    36   135   134    2
    37   109   108    2
    38    93    92    1
    39    93    96    1
    40   117   118    2
    41   105   106    1
    42    90    92   am
    43    90    89    1
    44    76    77    1
    45    76    75    1
    46   125   127    1
    47   125   126    1
    48    63    62    1
    49   106   107    1
    50    88    89    1
    51    81    77   am
    52    81    82    1
    53   132   130   am
    54   132   133    1
    55    77    78    2
    56    83    82    1
    57    83    84    2
    58   130   131    2
    59   108   107    1
    60    96    97    1
    61    85    82    1
    62    85    87    1
    63    70    69    2
    64   134   133    1
    65    62    59    1
    66    75    69   am
    67   133   136    1
    68    69    68    1
    69   136   137    1
    70    97    98    1
    71    59    60    1
    72    59    58    1
    73    60    67   am
    74    60    61    2
    75    67    68    1
    76    68    71    1
    77    99    98   ar
    78   138   137   ar
    79   137   139   ar
    80    98   100   ar
    81    58    52   am
    82    71    72    1
    83    72    74    1
    84    72    73    1
    85    54    51    1
    86    54    55    1
    87    52    51    1
    88    52    53    2
    89    56    55    1
    90    56    57    1
    91    51    50    1
    92    42    41    1
    93    33    30    1
    94    41    40    1
    95    29    30    1
    96     8     6    1
    97    30    31    1
    98    40    39    1
    99     4     3    2
   100    32    31    2
   101     6     5    1
   102     5     7    1
   103     5     2    1
   104    27    26    1
   105    39    38    1
   106     3     2    1
   107     3     9   am
   108    28    26    1
   109    26    23    1
   110     2     1    1
   111    10     9    1
   112    10    11    1
   113    38    35    1
   114    34    35    1
   115    16    15    2
   116    11    13   am
   117    11    12    2
   118    23    24    1
   119    23    22    1
   120    35    36    1
   121    24    25    2
   122    13    14    1
   123    15    14    1
   124    36    37    2
   125    14    17    1
   126    17    18    1
   127    18    19    1
   128    21    19   ar
   129    19    20   ar
