@<TRIPOS>MOLECULE
tmp/4d52D04.pdb
 122 118 0 0 0
SMALL
GASTEIGER

@<TRIPOS>ATOM
      1  N         31.1930   32.8010   11.6720 N.3   228  ARG228     -0.1245
      2  CA        29.9940   33.5220   12.0500 C.3   228  ARG228      0.1563
      3  C         28.9230   32.4980   12.3690 C.2   228  ARG228      0.2260
      4  O         28.6540   31.6090   11.5570 O.2   228  ARG228     -0.2867
      5  CB        29.5330   34.4210   10.9220 C.3   228  ARG228      0.0307
      6  CG        30.5370   35.4760   10.4680 C.3   228  ARG228      0.0489
      7  CD        30.6790   36.5700   11.5040 C.3   228  ARG228      0.2205
      8  NE        31.6090   37.6240   11.0730 N.pl3 228  ARG228     -0.0865
      9  CZ        32.9070   37.6670   11.3610 C.cat 228  ARG228      0.5346
     10  NH1       33.4870   36.7130   12.0460 N.pl3 228  ARG228      0.1354
     11  NH2       33.6350   38.7080   10.9560 N.pl3 228  ARG228      0.1354
     12  N         24.0430   37.3150   15.7520 N.3   240  GLN240     -0.1245
     13  CA        25.2970   36.8270   15.1770 C.3   240  GLN240      0.1566
     14  C         26.3540   36.7970   16.2590 C.2   240  GLN240      0.2260
     15  O         26.4470   37.7460   17.0830 O.2   240  GLN240     -0.2867
     16  CB        25.7650   37.7710   14.0570 C.3   240  GLN240      0.0367
     17  CG        27.1920   37.5510   13.5380 C.3   240  GLN240      0.0905
     18  CD        27.5800   38.5930   12.5000 C.2   240  GLN240      0.2608
     19  OE1       27.4370   38.3890   11.2980 O.2   240  GLN240     -0.2717
     20  NE2       28.0420   39.7350   12.9710 N.am  240  GLN240     -0.0878
     21  N         30.5120   36.3300   16.4700 N.3   242  CYS242     -0.1235
     22  CA        31.6990   36.4300   15.6190 C.3   242  CYS242      0.1677
     23  C         32.9360   35.8080   16.2400 C.2   242  CYS242      0.2270
     24  O         33.2380   36.0710   17.3940 O.2   242  CYS242     -0.2867
     25  CB        32.0350   37.8950   15.3350 C.3   242  CYS242      0.0956
     26  SG        30.7790   38.7440   14.3840 S.3   242  CYS242     -0.0801
     27  N         32.5930   39.2850   19.7380 N.3   251  ASP251     -0.1225
     28  CA        31.4020   40.0950   19.6140 C.3   251  ASP251      0.1805
     29  C         30.1550   39.3120   19.2580 C.2   251  ASP251      0.2598
     30  O         30.2100   38.2440   18.6310 O.2   251  ASP251     -0.2718
     31  CB        31.5920   41.2360   18.6150 C.3   251  ASP251      0.1424
     32  CG        30.8560   42.5230   19.0470 C.2   251  ASP251      0.3668
     33  OD1       31.2490   43.1500   20.0780 O.co2 251  ASP251     -0.2456
     34  OD2       29.8950   42.9150   18.3530 O.co2 251  ASP251     -0.2456
     35  N         29.0300   39.8860   19.6570 N.am  252  LYS252     -0.1966
     36  CA        27.7270   39.3180   19.3600 C.3   252  LYS252      0.1728
     37  C         26.7270   40.4420   19.3040 C.2   252  LYS252      0.2617
     38  O         26.8870   41.4540   20.0030 O.2   252  LYS252     -0.2715
     39  CB        27.3160   38.2910   20.4150 C.3   252  LYS252      0.0311
     40  CG        27.9530   38.4630   21.7740 C.3   252  LYS252      0.0038
     41  CD        27.5100   37.3810   22.7480 C.3   252  LYS252      0.0206
     42  CE        28.4490   37.2770   23.9300 C.3   252  LYS252      0.1093
     43  NZ        29.5520   36.3260   23.6160 N.3   252  LYS252     -0.1314
     44  N         25.6880   40.2670   18.5010 N.am  253  GLY253     -0.1940
     45  CA        24.6780   41.3060   18.3610 C.3   253  GLY253      0.2014
     46  C         23.5370   40.8970   17.4670 C.2   253  GLY253      0.2640
     47  O         23.6780   39.9770   16.6530 O.2   253  GLY253     -0.2714
     48  N         22.4100   41.5900   17.5930 N.am  254  THR254     -0.1936
     49  CA        21.2860   41.3090   16.7140 C.3   254  THR254      0.2028
     50  C         21.6010   41.6950   15.2800 C.2   254  THR254      0.2642
     51  O         22.4030   42.6000   15.0230 O.2   254  THR254     -0.2714
     52  CB        20.0030   42.0270   17.1660 C.3   254  THR254      0.1808
     53  OG1       18.8830   41.5140   16.4320 O.3   254  THR254     -0.2208
     54  CG2       20.0950   43.5340   16.9370 C.3   254  THR254      0.0379
     55  N         20.9450   41.0050   14.3590 N.am  255  ILE255     -0.1977
     56  CA        21.1000   41.1990   12.9130 C.3   255  ILE255      0.1596
     57  C         19.7990   41.6980   12.3110 C.2   255  ILE255      0.2287
     58  O         19.7630   42.7620   11.6590 O.2   255  ILE255     -0.2864
     59  CB        21.5590   39.9030   12.2130 C.3   255  ILE255      0.0276
     60  CG1       22.9670   39.5050   12.6740 C.3   255  ILE255      0.0022
     61  CG2       21.5100   40.0500   10.6910 C.3   255  ILE255      0.0022
     62  CD1       24.1120   40.4060   12.1960 C.3   255  ILE255      0.0001
     63  N         38.1780   38.9330    4.0270 N.3   272  PHE272     -0.1241
     64  CA        38.5990   40.2920    4.3600 C.3   272  PHE272      0.1605
     65  C         39.7680   40.7080    3.4770 C.2   272  PHE272      0.2264
     66  O         39.7370   41.7750    2.8590 O.2   272  PHE272     -0.2867
     67  CB        38.9990   40.3870    5.8290 C.3   272  PHE272      0.0534
     68  CG        37.8350   40.4320    6.7730 C.ar  272  PHE272     -0.0203
     69  CD1       36.9350   41.4900    6.7350 C.ar  272  PHE272     -0.0042
     70  CD2       37.6450   39.4300    7.7220 C.ar  272  PHE272     -0.0042
     71  CE1       35.8560   41.5440    7.6090 C.ar  272  PHE272     -0.0003
     72  CE2       36.5690   39.4850    8.6020 C.ar  272  PHE272     -0.0003
     73  CZ        35.6750   40.5430    8.5470 C.ar  272  PHE272     -0.0000
     74  N         34.3080   39.6200    3.2320 N.3   277  PRO277     -0.2116
     75  CA        33.4760   38.5720    2.6720 C.3   277  PRO277      0.1372
     76  C         32.1340   39.1140    2.2260 C.2   277  PRO277      0.2244
     77  O         31.7870   40.2640    2.5060 O.2   277  PRO277     -0.2868
     78  CB        33.3000   37.6300    3.8500 C.3   277  PRO277      0.0268
     79  CG        33.2770   38.5490    5.0120 C.3   277  PRO277      0.0207
     80  CD        34.3590   39.5450    4.6950 C.3   277  PRO277      0.0892
     81  N         28.1540   37.9190    2.9140 N.3   279  LEU279     -0.1245
     82  CA        27.2980   37.0190    3.7260 C.3   279  LEU279      0.1561
     83  C         25.8760   37.1370    3.2140 C.2   279  LEU279      0.2260
     84  O         25.4530   38.2280    2.8330 O.2   279  LEU279     -0.2867
     85  CB        27.3190   37.4070    5.2100 C.3   279  LEU279      0.0270
     86  CG        28.6870   37.5960    5.8570 C.3   279  LEU279      0.0019
     87  CD1       28.5480   38.0820    7.2970 C.3   279  LEU279      0.0001
     88  CD2       29.5240   36.3320    5.8070 C.3   279  LEU279      0.0001
     89  N         18.9190   38.5590    4.0120 N.3   295  TRP295     -0.1241
     90  CA        19.7610   39.6390    4.5070 C.3   295  TRP295      0.1605
     91  C         21.1350   39.5110    3.8730 C.2   295  TRP295      0.2264
     92  O         21.6010   38.4020    3.5920 O.2   295  TRP295     -0.2867
     93  CB        19.8760   39.5620    6.0170 C.3   295  TRP295      0.0550
     94  CG        20.8040   40.5170    6.7120 C.ar  295  TRP295      0.0003
     95  CD1       20.5000   41.7520    7.2040 C.ar  295  TRP295      0.0946
     96  CD2       22.1600   40.2580    7.0860 C.ar  295  TRP295      0.0152
     97  NE1       21.6030   42.3040    7.8240 N.ar  295  TRP295     -0.2442
     98  CE2       22.6290   41.3980    7.7780 C.ar  295  TRP295      0.0810
     99  CE3       23.0300   39.1790    6.8900 C.ar  295  TRP295      0.0012
    100  CZ2       23.9230   41.4850    8.2710 C.ar  295  TRP295      0.0191
    101  CZ3       24.3230   39.2700    7.3830 C.ar  295  TRP295      0.0001
    102  CH2       24.7510   40.4110    8.0760 C.ar  295  TRP295      0.0015
    103  N         25.2990   41.0330    3.8040 N.3   297  TRP297     -0.1241
    104  CA        26.4180   41.8490    4.2180 C.3   297  TRP297      0.1605
    105  C         27.4610   41.8230    3.1190 C.2   297  TRP297      0.2264
    106  O         27.8310   40.7540    2.6210 O.2   297  TRP297     -0.2867
    107  CB        27.0420   41.3670    5.5060 C.3   297  TRP297      0.0550
    108  CG        27.9680   42.3820    6.1120 C.ar  297  TRP297      0.0003
    109  CD1       27.6370   43.3230    7.0230 C.ar  297  TRP297      0.0946
    110  CD2       29.3730   42.5570    5.8440 C.ar  297  TRP297      0.0152
    111  NE1       28.7300   44.0730    7.3580 N.ar  297  TRP297     -0.2442
    112  CE2       29.8130   43.6310    6.6460 C.ar  297  TRP297      0.0810
    113  CE3       30.2910   41.9150    5.0150 C.ar  297  TRP297      0.0012
    114  CZ2       31.1360   44.0850    6.6450 C.ar  297  TRP297      0.0191
    115  CZ3       31.6160   42.3660    5.0130 C.ar  297  TRP297      0.0001
    116  CH2       32.0200   43.4420    5.8290 C.ar  297  TRP297      0.0015
    117  N         25.4950   45.9040    6.3940 N.3   303  SER303     -0.1217
    118  CA        24.2820   45.1480    6.7180 C.3   303  SER303      0.1889
    119  C         23.0610   45.7500    6.0410 C.2   303  SER303      0.2288
    120  O         22.7350   46.9000    6.2940 O.2   303  SER303     -0.2866
    121  CB        24.0450   45.1630    8.2340 C.3   303  SER303      0.2089
    122  OG        25.1560   44.6680    8.9640 O.3   303  SER303     -0.2183
@<TRIPOS>BOND
     1    76    77    2
     2    76    75    1
     3   106   105    2
     4    75    74    1
     5    75    78    1
     6    84    83    2
     7    66    65    2
     8    81    82    1
     9   105   104    1
    10    83    82    1
    11    74    80    1
    12    65    64    1
    13    92    91    2
    14    82    85    1
    15   103   104    1
    16    78    79    1
    17    91    90    1
    18    89    90    1
    19    63    64    1
    20   104   107    1
    21    64    67    1
    22    90    93    1
    23    80    79    1
    24   115   113   ar
    25   115   116   ar
    26   113   110   ar
    27    85    86    1
    28   107   108    1
    29    88    86    1
    30    67    68    1
    31   116   114   ar
    32   110   108   ar
    33   110   112   ar
    34    86    87    1
    35    93    94    1
    36   119   120    2
    37   119   118    1
    38   108   109   ar
    39   117   118    1
    40   114   112   ar
    41   112   111   ar
    42    94    96   ar
    43    94    95   ar
    44   118   121    1
    45    69    68   ar
    46    69    71   ar
    47    68    70   ar
    48    99    96   ar
    49    99   101   ar
    50   109   111   ar
    51    96    98   ar
    52    95    97   ar
    53   101   102   ar
    54    71    73   ar
    55    70    72   ar
    56    98    97   ar
    57    98   100   ar
    58   102   100   ar
    59   121   122    1
    60    73    72   ar
    61     6     5    1
    62     6     7    1
    63    61    59    1
    64     5     2    1
    65    11     9    1
    66     8     9    2
    67     8     7    1
    68    19    18    2
    69     9    10    1
    70     4     3    2
    71    58    57    2
    72     1     2    1
    73     2     3    1
    74    62    60    1
    75    59    60    1
    76    59    56    1
    77    57    56    1
    78    18    20   am
    79    18    17    1
    80    56    55    1
    81    17    16    1
    82    16    13    1
    83    55    50   am
    84    26    25    1
    85    51    50    2
    86    13    12    1
    87    13    14    1
    88    50    49    1
    89    25    22    1
    90    22    23    1
    91    22    21    1
    92    23    24    2
    93    14    15    2
    94    53    52    1
    95    47    46    2
    96    49    52    1
    97    49    48    1
    98    54    52    1
    99    46    48   am
   100    46    45    1
   101    34    32   ar
   102    45    44    1
   103    44    37   am
   104    31    32    1
   105    31    28    1
   106    30    29    2
   107    32    33   ar
   108    29    28    1
   109    29    35   am
   110    37    36    1
   111    37    38    2
   112    36    35    1
   113    36    39    1
   114    28    27    1
   115    39    40    1
   116    40    41    1
   117    41    42    1
   118    43    42    1
