@<TRIPOS>MOLECULE
tmp/4d52A00.pdb
 93 86 0 0 0
SMALL
GASTEIGER

@<TRIPOS>ATOM
      1  N         17.5690  -22.5880   28.2160 N.3    24  ARG24      -0.1245
      2  CA        18.7470  -21.9160   27.6570 C.3    24  ARG24       0.1563
      3  C         19.3330  -20.9760   28.7190 C.2    24  ARG24       0.2260
      4  O         18.5830  -20.3060   29.4150 O.2    24  ARG24      -0.2867
      5  CB        18.4010  -21.1250   26.3890 C.3    24  ARG24       0.0307
      6  CG        17.7370  -21.9160   25.2710 C.3    24  ARG24       0.0489
      7  CD        18.6930  -22.9520   24.6630 C.3    24  ARG24       0.2205
      8  NE        18.0670  -23.6910   23.5610 N.pl3  24  ARG24      -0.0865
      9  CZ        17.3580  -24.8230   23.6910 C.cat  24  ARG24       0.5346
     10  NH1       17.1630  -25.3960   24.8700 N.pl3  24  ARG24       0.1354
     11  NH2       16.8300  -25.3840   22.6140 N.pl3  24  ARG24       0.1354
     12  N         25.7560  -19.3320   24.8000 N.3    36  GLU36      -0.1245
     13  CA        24.5260  -20.0290   25.1600 C.3    36  GLU36       0.1567
     14  C         24.8530  -21.4710   25.5080 C.2    36  GLU36       0.2260
     15  O         25.4490  -22.1890   24.6870 O.2    36  GLU36      -0.2867
     16  CB        23.5270  -20.0270   24.0040 C.3    36  GLU36       0.0388
     17  CG        22.1750  -20.6950   24.3230 C.3    36  GLU36       0.1160
     18  CD        21.3340  -20.8660   23.0680 C.2    36  GLU36       0.3649
     19  OE1       21.8240  -21.5850   22.1730 O.co2  36  GLU36      -0.2457
     20  OE2       20.2370  -20.2460   22.9510 O.co2  36  GLU36      -0.2457
     21  N         22.7040  -25.0080   26.9030 N.3    38  LEU38      -0.1245
     22  CA        21.3290  -25.4690   26.7510 C.3    38  LEU38       0.1561
     23  C         21.0810  -26.7860   27.4390 C.2    38  LEU38       0.2260
     24  O         22.0260  -27.5530   27.7110 O.2    38  LEU38      -0.2867
     25  CB        20.9120  -25.5110   25.2750 C.3    38  LEU38       0.0270
     26  CG        21.3570  -26.5720   24.2680 C.3    38  LEU38       0.0019
     27  CD1       20.8710  -27.9830   24.5930 C.3    38  LEU38       0.0001
     28  CD2       20.8140  -26.1660   22.8990 C.3    38  LEU38       0.0001
     29  N         18.4620  -29.8560   26.8320 N.3    40  GLU40      -0.1245
     30  CA        17.4780  -30.5690   26.0290 C.3    40  GLU40       0.1567
     31  C         17.6470  -32.0450   26.3770 C.2    40  GLU40       0.2260
     32  O         18.2900  -32.8010   25.6390 O.2    40  GLU40      -0.2867
     33  CB        17.7030  -30.3280   24.5340 C.3    40  GLU40       0.0388
     34  CG        17.3390  -28.9310   24.0610 C.3    40  GLU40       0.1160
     35  CD        15.8420  -28.6240   24.1120 C.2    40  GLU40       0.3649
     36  OE1       15.0070  -29.5340   24.3560 O.co2  40  GLU40      -0.2457
     37  OE2       15.4850  -27.4570   23.9000 O.co2  40  GLU40      -0.2457
     38  N         26.7280  -27.4300   25.1050 N.3    45  ASN45      -0.1240
     39  CA        27.0840  -26.1590   24.4370 C.3    45  ASN45       0.1653
     40  C         27.8650  -25.2440   25.3570 C.2    45  ASN45       0.2266
     41  O         28.7310  -25.7430   26.0930 O.2    45  ASN45      -0.2867
     42  CB        25.8650  -25.4970   23.7700 C.3    45  ASN45       0.1155
     43  CG        25.2800  -26.3360   22.6400 C.2    45  ASN45       0.2627
     44  OD1       24.1620  -26.0910   22.1930 O.2    45  ASN45      -0.2716
     45  ND2       26.0330  -27.2820   22.1510 N.am   45  ASN45      -0.0877
     46  N         10.6110  -21.3750   23.1910 N.3    68  LEU68      -0.1245
     47  CA        11.9170  -21.2210   22.5740 C.3    68  LEU68       0.1561
     48  C         11.8060  -20.9260   21.0750 C.2    68  LEU68       0.2260
     49  O         12.7520  -21.1460   20.3350 O.2    68  LEU68      -0.2867
     50  CB        12.8230  -22.4150   22.8620 C.3    68  LEU68       0.0270
     51  CG        13.1240  -22.6530   24.3450 C.3    68  LEU68       0.0019
     52  CD1       13.9750  -23.9040   24.4940 C.3    68  LEU68       0.0001
     53  CD2       13.8130  -21.4660   25.0090 C.3    68  LEU68       0.0001
     54  N         13.5830  -15.8490   21.0040 N.3    71  ILE71      -0.1245
     55  CA        14.4070  -15.5010   22.1500 C.3    71  ILE71       0.1561
     56  C         15.0560  -14.1370   21.8820 C.2    71  ILE71       0.2260
     57  O         15.4590  -13.8540   20.7500 O.2    71  ILE71      -0.2867
     58  CB        15.5040  -16.5610   22.4220 C.3    71  ILE71       0.0252
     59  CG1       14.8930  -17.9510   22.6250 C.3    71  ILE71       0.0019
     60  CG2       16.3280  -16.1760   23.6380 C.3    71  ILE71       0.0019
     61  CD1       15.9020  -19.0790   22.5070 C.3    71  ILE71       0.0001
     62  N         16.7560  -14.4740   18.2870 N.3    87  TYR87      -0.1241
     63  CA        16.5930  -15.7870   17.6710 C.3    87  TYR87       0.1605
     64  C         15.1200  -15.9740   17.3540 C.2    87  TYR87       0.2264
     65  O         14.2580  -15.8130   18.2410 O.2    87  TYR87      -0.2867
     66  CB        17.0380  -16.9160   18.6100 C.3    87  TYR87       0.0534
     67  CG        16.7370  -18.2860   18.0460 C.ar   87  TYR87      -0.0201
     68  CD1       15.4960  -18.8860   18.2630 C.ar   87  TYR87      -0.0009
     69  CD2       17.6710  -18.9590   17.2570 C.ar   87  TYR87      -0.0009
     70  CE1       15.1990  -20.1240   17.7160 C.ar   87  TYR87       0.0417
     71  CE2       17.3810  -20.2180   16.7190 C.ar   87  TYR87       0.0417
     72  CZ        16.1410  -20.7820   16.9570 C.ar   87  TYR87       0.1957
     73  OH        15.8330  -22.0110   16.4180 O.3    87  TYR87      -0.2866
     74  N         12.7500  -19.1290   15.3830 N.3    89  SER89      -0.1217
     75  CA        12.7120  -20.4240   14.7030 C.3    89  SER89       0.1889
     76  C         12.5820  -20.1950   13.2140 C.2    89  SER89       0.2288
     77  O         11.7150  -19.4320   12.7640 O.2    89  SER89      -0.2866
     78  CB        11.5650  -21.3060   15.1680 C.3    89  SER89       0.2089
     79  OG        11.6710  -21.5510   16.5540 O.3    89  SER89      -0.2183
     80  N         19.9410  -16.9180   14.6550 N.3    93  TRP93      -0.1241
     81  CA        20.3930  -15.7470   15.4240 C.3    93  TRP93       0.1605
     82  C         20.7630  -14.5850   14.5140 C.2    93  TRP93       0.2264
     83  O         21.3510  -14.7770   13.4540 O.2    93  TRP93      -0.2867
     84  CB        21.5880  -16.0630   16.3130 C.3    93  TRP93       0.0550
     85  CG        21.2460  -16.9010   17.4980 C.ar   93  TRP93       0.0003
     86  CD1       21.4030  -18.2580   17.6150 C.ar   93  TRP93       0.0946
     87  CD2       20.7100  -16.4520   18.7500 C.ar   93  TRP93       0.0152
     88  NE1       20.9850  -18.6750   18.8510 N.ar   93  TRP93      -0.2442
     89  CE2       20.5500  -17.5920   19.5670 C.ar   93  TRP93       0.0810
     90  CE3       20.3190  -15.2030   19.2520 C.ar   93  TRP93       0.0012
     91  CZ2       20.0110  -17.5230   20.8530 C.ar   93  TRP93       0.0191
     92  CZ3       19.8020  -15.1350   20.5390 C.ar   93  TRP93       0.0001
     93  CH2       19.6480  -16.2940   21.3260 C.ar   93  TRP93       0.0015
@<TRIPOS>BOND
     1    77    76    2
     2    76    75    1
     3    83    82    2
     4    82    81    1
     5    80    81    1
     6    75    78    1
     7    75    74    1
     8    78    79    1
     9    81    84    1
    10    84    85    1
    11    73    72    1
    12    71    72   ar
    13    71    69   ar
    14    72    70   ar
    15    69    67   ar
    16    64    63    1
    17    64    65    2
    18    85    86   ar
    19    85    87   ar
    20    86    88   ar
    21    63    62    1
    22    63    66    1
    23    70    68   ar
    24    67    68   ar
    25    67    66    1
    26    87    90   ar
    27    87    89   ar
    28    88    89   ar
    29    90    92   ar
    30    89    91   ar
    31    49    48    2
    32    92    93   ar
    33    57    56    2
    34    91    93   ar
    35    54    55    1
    36    48    47    1
    37    56    55    1
    38    55    58    1
    39    45    43   am
    40    19    18   ar
    41    44    43    2
    42    58    59    1
    43    58    60    1
    44    61    59    1
    45    47    50    1
    46    47    46    1
    47    11     9    1
    48    43    42    1
    49    50    51    1
    50    28    26    1
    51    20    18   ar
    52    18    17    1
    53     8     9    2
    54     8     7    1
    55     9    10    1
    56    42    39    1
    57    37    35   ar
    58    16    17    1
    59    16    13    1
    60    34    35    1
    61    34    33    1
    62    35    36   ar
    63    26    27    1
    64    26    25    1
    65    51    52    1
    66    51    53    1
    67    39    38    1
    68    39    40    1
    69    33    30    1
    70     7     6    1
    71    15    14    2
    72    12    13    1
    73    13    14    1
    74     6     5    1
    75    25    22    1
    76    40    41    2
    77    32    31    2
    78    30    31    1
    79    30    29    1
    80     5     2    1
    81    22    21    1
    82    22    23    1
    83    23    24    2
    84     2     1    1
    85     2     3    1
    86     3     4    2
