@<TRIPOS>MOLECULE
tmp/4d52A04.pdb
 102 97 0 0 0
SMALL
GASTEIGER

@<TRIPOS>ATOM
      1  N          8.2710  -15.0260   42.6270 N.3   229  ARG229     -0.1245
      2  CA         9.4390  -15.2770   43.4450 C.3   229  ARG229      0.1563
      3  C         10.5080  -14.2950   42.9790 C.2   229  ARG229      0.2260
      4  O         10.7510  -14.1730   41.7750 O.2   229  ARG229     -0.2867
      5  CB         9.9420  -16.7100   43.2810 C.3   229  ARG229      0.0307
      6  CG         8.9240  -17.8160   43.5850 C.3   229  ARG229      0.0489
      7  CD         8.8030  -17.9920   45.0780 C.3   229  ARG229      0.2205
      8  NE         7.8950  -19.0450   45.4970 N.pl3 229  ARG229     -0.0865
      9  CZ         6.5870  -18.9100   45.7290 C.cat 229  ARG229      0.5346
     10  NH1        5.9480  -17.7600   45.5070 N.pl3 229  ARG229      0.1354
     11  NH2        5.8950  -19.9590   46.1640 N.pl3 229  ARG229      0.1354
     12  N         15.3550  -15.5440   48.7890 N.3   241  GLN241     -0.1245
     13  CA        14.1110  -15.5820   48.0510 C.3   241  GLN241      0.1566
     14  C         13.0570  -14.8120   48.8430 C.2   241  GLN241      0.2260
     15  O         12.9660  -14.9690   50.0560 O.2   241  GLN241     -0.2867
     16  CB        13.6590  -17.0360   47.9340 C.3   241  GLN241      0.0367
     17  CG        12.3030  -17.2740   47.2790 C.3   241  GLN241      0.0905
     18  CD        11.9280  -18.7430   47.2680 C.2   241  GLN241      0.2608
     19  OE1       12.0070  -19.4020   46.2430 O.2   241  GLN241     -0.2717
     20  NE2       11.5530  -19.2740   48.4260 N.am  241  GLN241     -0.0878
     21  N          8.8740  -14.4060   48.6500 N.3   243  CYS243     -0.1235
     22  CA         7.6940  -15.0770   48.0430 C.3   243  CYS243      0.1677
     23  C          6.4570  -14.2280   48.0290 C.2   243  CYS243      0.2270
     24  O          6.0900  -13.6460   49.0590 O.2   243  CYS243     -0.2867
     25  CB         7.3310  -16.3340   48.8230 C.3   243  CYS243      0.0956
     26  SG         8.6310  -17.5710   48.7590 S.3   243  CYS243     -0.0801
     27  N          2.6640  -15.2690   47.4370 N.3   245  ASP245     -0.1239
     28  CA         1.6920  -16.3230   47.1300 C.3   245  ASP245      0.1674
     29  C          0.2780  -15.7620   47.2140 C.2   245  ASP245      0.2266
     30  O         -0.0430  -15.0150   48.1390 O.2   245  ASP245     -0.2867
     31  CB         1.8430  -17.5300   48.0650 C.3   245  ASP245      0.1410
     32  CG         3.1570  -18.2680   47.8390 C.2   245  ASP245      0.3668
     33  OD1        3.3770  -18.8380   46.7490 O.co2 245  ASP245     -0.2456
     34  OD2        3.9880  -18.2310   48.7500 O.co2 245  ASP245     -0.2456
     35  N         18.4580  -19.2690   50.3390 N.3   256  ILE256     -0.1245
     36  CA        18.3260  -20.4130   49.4480 C.3   256  ILE256      0.1561
     37  C         19.6260  -21.1990   49.3210 C.2   256  ILE256      0.2260
     38  O         19.6710  -22.4040   49.5900 O.2   256  ILE256     -0.2867
     39  CB        17.9050  -19.9400   48.0480 C.3   256  ILE256      0.0252
     40  CG1       16.5020  -19.3420   48.1100 C.3   256  ILE256      0.0019
     41  CG2       17.9860  -21.0690   47.0450 C.3   256  ILE256      0.0019
     42  CD1       15.4200  -20.3650   48.4120 C.3   256  ILE256      0.0001
     43  N          1.3140  -24.6890   41.0260 N.3   273  PHE273     -0.1241
     44  CA         0.8700  -25.5300   42.1440 C.3   273  PHE273      0.1605
     45  C         -0.3000  -26.4490   41.7480 C.2   273  PHE273      0.2264
     46  O         -0.4460  -27.5400   42.2990 O.2   273  PHE273     -0.2867
     47  CB         0.4850  -24.6940   43.3460 C.3   273  PHE273      0.0534
     48  CG         1.6570  -24.0820   44.0710 C.ar  273  PHE273     -0.0203
     49  CD1        2.5820  -24.8840   44.7140 C.ar  273  PHE273     -0.0042
     50  CD2        1.8040  -22.7010   44.1340 C.ar  273  PHE273     -0.0042
     51  CE1        3.6520  -24.3220   45.4010 C.ar  273  PHE273     -0.0003
     52  CE2        2.8610  -22.1340   44.8230 C.ar  273  PHE273     -0.0003
     53  CZ         3.8030  -22.9460   45.4370 C.ar  273  PHE273     -0.0000
     54  N          5.1020  -25.5500   41.1260 N.3   278  PRO278     -0.2116
     55  CA         5.9700  -25.1660   40.0100 C.3   278  PRO278      0.1372
     56  C          7.3080  -25.9220   39.9910 C.2   278  PRO278      0.2244
     57  O          7.6410  -26.6370   40.9510 O.2   278  PRO278     -0.2868
     58  CB         6.2370  -23.6950   40.3020 C.3   278  PRO278      0.0268
     59  CG         6.2870  -23.6350   41.7790 C.3   278  PRO278      0.0207
     60  CD         5.1620  -24.5630   42.2190 C.3   278  PRO278      0.0892
     61  N         11.2700  -24.6080   39.5950 N.3   280  LEU280     -0.1245
     62  CA        12.1210  -23.3990   39.5990 C.3   280  LEU280      0.1561
     63  C         13.5430  -23.8320   39.3000 C.2   280  LEU280      0.2260
     64  O         14.0070  -24.8650   39.8070 O.2   280  LEU280     -0.2867
     65  CB        12.1220  -22.7080   40.9670 C.3   280  LEU280      0.0270
     66  CG        10.7980  -22.4000   41.6520 C.3   280  LEU280      0.0019
     67  CD1       11.0650  -21.8270   43.0330 C.3   280  LEU280      0.0001
     68  CD2        9.9610  -21.4590   40.8310 C.3   280  LEU280      0.0001
     69  N         20.5120  -24.3740   40.9800 N.3   296  TRP296     -0.1241
     70  CA        19.6470  -24.8200   42.0770 C.3   296  TRP296      0.1605
     71  C         18.2530  -25.1450   41.5150 C.2   296  TRP296      0.2264
     72  O         17.7710  -24.4990   40.5790 O.2   296  TRP296     -0.2867
     73  CB        19.5680  -23.7470   43.1340 C.3   296  TRP296      0.0550
     74  CG        18.6070  -23.9640   44.2740 C.ar  296  TRP296      0.0003
     75  CD1       18.8890  -24.5360   45.4880 C.ar  296  TRP296      0.0946
     76  CD2       17.2470  -23.5130   44.3460 C.ar  296  TRP296      0.0152
     77  NE1       17.7720  -24.5090   46.2890 N.ar  296  TRP296     -0.2442
     78  CE2       16.7530  -23.8770   45.6150 C.ar  296  TRP296      0.0810
     79  CE3       16.3910  -22.8580   43.4480 C.ar  296  TRP296      0.0012
     80  CZ2       15.4420  -23.6030   46.0150 C.ar  296  TRP296      0.0191
     81  CZ3       15.0820  -22.5750   43.8420 C.ar  296  TRP296      0.0001
     82  CH2       14.6240  -22.9420   45.1270 C.ar  296  TRP296      0.0015
     83  N         14.1340  -26.3000   42.3990 N.3   298  TRP298     -0.1241
     84  CA        12.9800  -26.6450   43.2420 C.3   298  TRP298      0.1605
     85  C         11.9410  -27.3610   42.4130 C.2   298  TRP298      0.2264
     86  O         11.6070  -26.9250   41.3070 O.2   298  TRP298     -0.2867
     87  CB        12.3400  -25.4230   43.8760 C.3   298  TRP298      0.0550
     88  CG        11.4540  -25.7530   45.0290 C.ar  298  TRP298      0.0003
     89  CD1       11.8040  -25.7830   46.3580 C.ar  298  TRP298      0.0946
     90  CD2       10.0590  -26.0640   44.9760 C.ar  298  TRP298      0.0152
     91  NE1       10.7150  -26.1340   47.1240 N.ar  298  TRP298     -0.2442
     92  CE2        9.6350  -26.3140   46.3000 C.ar  298  TRP298      0.0810
     93  CE3        9.1330  -26.2000   43.9310 C.ar  298  TRP298      0.0012
     94  CZ2        8.3120  -26.6570   46.6100 C.ar  298  TRP298      0.0191
     95  CZ3        7.8210  -26.5260   44.2350 C.ar  298  TRP298      0.0001
     96  CH2        7.4210  -26.7540   45.5680 C.ar  298  TRP298      0.0015
     97  N         13.8220  -28.2820   47.5740 N.3   304  SER304     -0.1217
     98  CA        15.0680  -27.5380   47.3080 C.3   304  SER304      0.1889
     99  C         16.2790  -28.4410   47.2180 C.2   304  SER304      0.2288
    100  O         16.5750  -29.1490   48.1680 O.2   304  SER304     -0.2866
    101  CB        15.2980  -26.5490   48.4410 C.3   304  SER304      0.2089
    102  OG        14.2410  -25.6380   48.5250 O.3   304  SER304     -0.2183
@<TRIPOS>BOND
     1    63    62    1
     2    63    64    2
     3    61    62    1
     4    62    65    1
     5    56    55    1
     6    56    57    2
     7    55    58    1
     8    55    54    1
     9    58    59    1
    10    72    71    2
    11    68    66    1
    12    65    66    1
    13    69    70    1
    14    43    44    1
    15    54    60    1
    16    86    85    2
    17    71    70    1
    18    66    67    1
    19    45    44    1
    20    45    46    2
    21     4     3    2
    22    59    60    1
    23    70    73    1
    24    44    47    1
    25    83    84    1
    26    85    84    1
    27     1     2    1
    28     3     2    1
    29    73    74    1
    30    84    87    1
    31     5     2    1
    32     5     6    1
    33    47    48    1
    34    79    81   ar
    35    79    76   ar
    36     6     7    1
    37    81    82   ar
    38    87    88    1
    39    93    95   ar
    40    93    90   ar
    41    48    50   ar
    42    48    49   ar
    43    50    52   ar
    44    95    96   ar
    45    74    76   ar
    46    74    75   ar
    47    76    78   ar
    48    49    51   ar
    49    52    53   ar
    50    90    88   ar
    51    90    92   ar
    52    88    89   ar
    53     7     8    1
    54    82    80   ar
    55    51    53   ar
    56    75    77   ar
    57     8     9    2
    58    10     9    1
    59    96    94   ar
    60    78    80   ar
    61    78    77   ar
    62     9    11    1
    63    19    18    2
    64    92    94   ar
    65    92    91   ar
    66    89    91   ar
    67    33    32   ar
    68    41    39    1
    69    28    29    1
    70    28    27    1
    71    28    31    1
    72    29    30    2
    73    99    98    1
    74    99   100    2
    75    18    17    1
    76    18    20   am
    77    17    16    1
    78    98    97    1
    79    98   101    1
    80    32    31    1
    81    32    34   ar
    82    16    13    1
    83    23    22    1
    84    23    24    2
    85    22    21    1
    86    22    25    1
    87    39    40    1
    88    39    36    1
    89    13    12    1
    90    13    14    1
    91    40    42    1
    92   101   102    1
    93    26    25    1
    94    14    15    2
    95    37    36    1
    96    37    38    2
    97    36    35    1
