@<TRIPOS>MOLECULE
tmp/4d52D03.pdb
 116 110 0 0 0
SMALL
GASTEIGER

@<TRIPOS>ATOM
      1  N         43.0290   24.9260    7.6240 N.3   166  TYR166     -0.1241
      2  CA        44.1260   25.8490    7.9320 C.3   166  TYR166      0.1605
      3  C         45.2050   25.5660    6.9080 C.2   166  TYR166      0.2264
      4  O         45.5030   24.4130    6.6470 O.2   166  TYR166     -0.2867
      5  CB        44.7040   25.5360    9.2990 C.3   166  TYR166      0.0534
      6  CG        43.9150   25.9810   10.5030 C.ar  166  TYR166     -0.0201
      7  CD1       43.4260   27.2760   10.6070 C.ar  166  TYR166     -0.0009
      8  CD2       43.7670   25.1450   11.5940 C.ar  166  TYR166     -0.0009
      9  CE1       42.7520   27.6940   11.7430 C.ar  166  TYR166      0.0417
     10  CE2       43.0820   25.5520   12.7410 C.ar  166  TYR166      0.0417
     11  CZ        42.5880   26.8250   12.8160 C.ar  166  TYR166      0.1957
     12  OH        41.9270   27.2550   13.9580 O.3   166  TYR166     -0.2866
     13  N         34.0390   22.5810   13.0390 N.3   175  ARG175     -0.1245
     14  CA        33.4610   23.2190   14.2240 C.3   175  ARG175      0.1563
     15  C         31.9460   22.9650   14.1740 C.2   175  ARG175      0.2260
     16  O         31.3420   23.0430   13.1160 O.2   175  ARG175     -0.2867
     17  CB        33.7570   24.7200   14.2530 C.3   175  ARG175      0.0307
     18  CG        35.2450   25.0820   14.3510 C.3   175  ARG175      0.0489
     19  CD        35.8520   24.7250   15.7000 C.3   175  ARG175      0.2205
     20  NE        37.2620   25.1360   15.7760 N.pl3 175  ARG175     -0.0865
     21  CZ        38.2870   24.4050   15.3350 C.cat 175  ARG175      0.5346
     22  NH1       38.0810   23.2170   14.7760 N.pl3 175  ARG175      0.1354
     23  NH2       39.5360   24.8560   15.4590 N.pl3 175  ARG175      0.1354
     24  N         30.1390   25.3120   21.4470 N.3   187  GLN187     -0.1245
     25  CA        30.9210   24.8360   20.3210 C.3   187  GLN187      0.1566
     26  C         31.6550   23.5700   20.7090 C.2   187  GLN187      0.2260
     27  O         32.1950   23.4660   21.8220 O.2   187  GLN187     -0.2867
     28  CB        31.9680   25.8770   19.9430 C.3   187  GLN187      0.0367
     29  CG        32.8440   25.4820   18.7680 C.3   187  GLN187      0.0905
     30  CD        34.1530   26.2320   18.7600 C.2   187  GLN187      0.2608
     31  OE1       35.1110   25.8870   19.5040 O.2   187  GLN187     -0.2717
     32  NE2       34.2210   27.2580   17.9340 N.am  187  GLN187     -0.0878
     33  N         34.8070   21.1750   18.7490 N.3   189  ALA189     -0.1245
     34  CA        35.8590   21.4560   17.7670 C.3   189  ALA189      0.1562
     35  C         36.7260   20.2350   17.4530 C.2   189  ALA189      0.2260
     36  O         37.0870   19.4780   18.3520 O.2   189  ALA189     -0.2867
     37  CB        36.7330   22.5830   18.2780 C.3   189  ALA189      0.0290
     38  N         40.3010   19.4450   15.2910 N.3   191  ASP191     -0.1239
     39  CA        41.4630   19.8410   14.4830 C.3   191  ASP191      0.1674
     40  C         42.2270   18.5630   14.1290 C.2   191  ASP191      0.2266
     41  O         42.2440   17.6130   14.9020 O.2   191  ASP191     -0.2867
     42  CB        42.4120   20.7870   15.2430 C.3   191  ASP191      0.1410
     43  CG        41.9530   22.2360   15.2820 C.2   191  ASP191      0.3668
     44  OD1       41.1880   22.7150   14.4200 O.co2 191  ASP191     -0.2456
     45  OD2       42.4320   22.9380   16.1990 O.co2 191  ASP191     -0.2456
     46  N         45.3510   17.7310   14.1200 N.3   193  HIS193     -0.1241
     47  CA        46.4570   17.3850   15.0590 C.3   193  HIS193      0.1621
     48  C         46.0000   17.0290   16.4830 C.2   193  HIS193      0.2264
     49  O         46.8010   16.5300   17.2840 O.2   193  HIS193     -0.2867
     50  CB        47.4880   18.5360   15.1310 C.3   193  HIS193      0.0745
     51  CG        46.9790   19.7810   15.8080 C.ar  193  HIS193      0.0817
     52  ND1       45.8370   20.4460   15.4030 N.ar  193  HIS193     -0.2268
     53  CD2       47.4800   20.5020   16.8400 C.ar  193  HIS193      0.1154
     54  CE1       45.6480   21.5080   16.1660 C.ar  193  HIS193      0.1986
     55  NE2       46.6360   21.5710   17.0410 N.ar  193  HIS193     -0.2212
     56  N         38.4180   18.1590   20.5200 N.3   197  TYR197     -0.1241
     57  CA        38.8120   18.7250   21.7900 C.3   197  TYR197      0.1605
     58  C         37.7890   18.2310   22.8050 C.2   197  TYR197      0.2264
     59  O         36.6060   18.1100   22.4940 O.2   197  TYR197     -0.2867
     60  CB        38.8370   20.2490   21.7550 C.3   197  TYR197      0.0534
     61  CG        39.9440   20.8530   20.9170 C.ar  197  TYR197     -0.0201
     62  CD1       39.8390   20.9430   19.5270 C.ar  197  TYR197     -0.0009
     63  CD2       41.0800   21.3810   21.5200 C.ar  197  TYR197     -0.0009
     64  CE1       40.8340   21.5250   18.7630 C.ar  197  TYR197      0.0417
     65  CE2       42.0900   21.9580   20.7580 C.ar  197  TYR197      0.0417
     66  CZ        41.9620   22.0280   19.3880 C.ar  197  TYR197      0.1957
     67  OH        42.9640   22.6080   18.6300 O.3   197  TYR197     -0.2866
     68  N         32.9180   24.8420   24.3860 N.3   201  VAL201     -0.1245
     69  CA        33.1870   26.2690   24.5490 C.3   201  VAL201      0.1561
     70  C         31.8570   27.0340   24.4350 C.2   201  VAL201      0.2260
     71  O         31.1560   26.9230   23.4310 O.2   201  VAL201     -0.2867
     72  CB        34.2020   26.7880   23.5000 C.3   201  VAL201      0.0252
     73  CG1       34.3140   28.3140   23.5180 C.3   201  VAL201      0.0019
     74  CG2       35.5630   26.1490   23.7250 C.3   201  VAL201      0.0019
     75  N         41.3340   31.7050   11.1150 N.3   225  ILE225     -0.1245
     76  CA        40.0070   31.4970   10.5320 C.3   225  ILE225      0.1561
     77  C         39.0790   32.6160   11.0160 C.2   225  ILE225      0.2260
     78  O         39.3680   33.2830   12.0130 O.2   225  ILE225     -0.2867
     79  CB        39.4470   30.0920   10.9140 C.3   225  ILE225      0.0252
     80  CG1       38.2070   29.7210   10.0930 C.3   225  ILE225      0.0019
     81  CG2       39.1650   30.0020   12.4080 C.3   225  ILE225      0.0019
     82  CD1       38.4500   29.6540    8.5850 C.3   225  ILE225      0.0001
     83  N         34.7850   33.0310   11.6340 N.3   227  MET227     -0.1245
     84  CA        33.5440   32.2460   11.7300 C.3   227  MET227      0.1570
     85  C         32.3850   33.1360   12.1430 C.2   227  MET227      0.2261
     86  O         32.5690   34.1230   12.8420 O.2   227  MET227     -0.2867
     87  CB        33.6790   31.0900   12.7140 C.3   227  MET227      0.0387
     88  CG        34.9040   30.2240   12.4870 C.3   227  MET227      0.0595
     89  SD        34.9860   28.7650   13.5240 S.3   227  MET227     -0.1393
     90  CE        35.0160   29.4240   15.1860 C.3   227  MET227      0.0692
     91  N         33.6360   34.9850   15.4570 N.3   243  TRP243     -0.1241
     92  CA        35.0350   34.6340   15.7160 C.3   243  TRP243      0.1605
     93  C         35.8650   35.3640   14.6670 C.2   243  TRP243      0.2264
     94  O         35.6880   35.1420   13.4850 O.2   243  TRP243     -0.2867
     95  CB        35.3050   33.1210   15.5910 C.3   243  TRP243      0.0550
     96  CG        36.7590   32.7930   15.7600 C.ar  243  TRP243      0.0003
     97  CD1       37.7390   32.8560   14.8030 C.ar  243  TRP243      0.0946
     98  CD2       37.4080   32.3930   16.9700 C.ar  243  TRP243      0.0152
     99  NE1       38.9530   32.5150   15.3430 N.ar  243  TRP243     -0.2442
    100  CE2       38.7850   32.2240   16.6700 C.ar  243  TRP243      0.0810
    101  CE3       36.9640   32.1620   18.2760 C.ar  243  TRP243      0.0012
    102  CZ2       39.7200   31.8430   17.6320 C.ar  243  TRP243      0.0191
    103  CZ3       37.8880   31.7800   19.2360 C.ar  243  TRP243      0.0001
    104  CH2       39.2590   31.6200   18.9080 C.ar  243  TRP243      0.0015
    105  N         36.2460   34.8700   20.1220 N.3   249  TYR249     -0.1241
    106  CA        34.8030   35.1380   20.2180 C.3   249  TYR249      0.1605
    107  C         34.6110   36.4850   20.8930 C.2   249  TYR249      0.2264
    108  O         34.3780   36.5590   22.0870 O.2   249  TYR249     -0.2867
    109  CB        34.0890   34.0280   20.9970 C.3   249  TYR249      0.0534
    110  CG        33.7890   32.8090   20.1530 C.ar  249  TYR249     -0.0201
    111  CD1       33.0620   32.9320   18.9640 C.ar  249  TYR249     -0.0009
    112  CD2       34.2590   31.5360   20.5140 C.ar  249  TYR249     -0.0009
    113  CE1       32.7600   31.8310   18.1840 C.ar  249  TYR249      0.0417
    114  CE2       33.9710   30.4290   19.7210 C.ar  249  TYR249      0.0417
    115  CZ        33.2260   30.5880   18.5510 C.ar  249  TYR249      0.1957
    116  OH        32.9200   29.4890   17.7600 O.3   249  TYR249     -0.2866
@<TRIPOS>BOND
     1     4     3    2
     2     3     2    1
     3     1     2    1
     4     2     5    1
     5    82    80    1
     6     5     6    1
     7    80    79    1
     8     6     7   ar
     9     6     8   ar
    10    76    79    1
    11    76    77    1
    12    76    75    1
    13     7     9   ar
    14    79    81    1
    15    77    78    2
    16     8    10   ar
    17    83    84    1
    18    84    85    1
    19    84    87    1
    20     9    11   ar
    21    85    86    2
    22    88    87    1
    23    88    89    1
    24    10    11   ar
    25    11    12    1
    26    13    14    1
    27    16    15    2
    28    94    93    2
    29    89    90    1
    30    46    47    1
    31    40    39    1
    32    40    41    2
    33    15    14    1
    34    14    17    1
    35    17    18    1
    36    18    19    1
    37    44    43   ar
    38    39    42    1
    39    39    38    1
    40    93    92    1
    41    22    21    1
    42    97    99   ar
    43    97    96   ar
    44    47    50    1
    45    47    48    1
    46    50    51    1
    47    42    43    1
    48    43    45   ar
    49    21    23    1
    50    21    20    2
    51    99   100   ar
    52    52    51   ar
    53    52    54   ar
    54    91    92    1
    55    95    92    1
    56    95    96    1
    57    19    20    1
    58    96    98   ar
    59    51    53   ar
    60    54    55   ar
    61    48    49    2
    62   100    98   ar
    63   100   102   ar
    64    53    55   ar
    65    98   101   ar
    66    35    34    1
    67    35    36    2
    68   102   104   ar
    69   116   115    1
    70    34    37    1
    71    34    33    1
    72    32    30   am
    73   113   115   ar
    74   113   111   ar
    75   101   103   ar
    76   115   114   ar
    77    67    66    1
    78    30    29    1
    79    30    31    2
    80    64    66   ar
    81    64    62   ar
    82    29    28    1
    83   104   103   ar
    84   111   110   ar
    85    66    65   ar
    86    62    61   ar
    87   114   112   ar
    88    28    25    1
    89   105   106    1
    90   110   112   ar
    91   110   109    1
    92   106   107    1
    93   106   109    1
    94    25    26    1
    95    25    24    1
    96    56    57    1
    97    26    27    2
    98    65    63   ar
    99   107   108    2
   100    61    63   ar
   101    61    60    1
   102    60    57    1
   103    57    58    1
   104    59    58    2
   105    71    70    2
   106    72    73    1
   107    72    74    1
   108    72    69    1
   109    68    69    1
   110    70    69    1
