@<TRIPOS>MOLECULE
tmp/4d52C06.pdb
 94 95 0 0 0
SMALL
GASTEIGER

@<TRIPOS>ATOM
      1  N        -12.8140   45.0960   16.2490 N.3   202  THR202     -0.1203
      2  CA       -11.3900   44.9080   16.4980 C.3   202  THR202      0.1994
      3  C        -11.1730   44.6250   17.9760 C.2   202  THR202      0.2618
      4  O        -11.6890   45.3370   18.8380 O.2   202  THR202     -0.2717
      5  CB       -10.5760   46.1420   16.0590 C.3   202  THR202      0.1784
      6  OG1      -10.7290   46.3460   14.6570 O.3   202  THR202     -0.2211
      7  CG2       -9.0960   45.9750   16.3650 C.3   202  THR202      0.0376
      8  N        -10.4230   43.5740   18.2870 N.am  203  ILE203     -0.1965
      9  CA       -10.0570   43.3360   19.6850 C.3   203  ILE203      0.1727
     10  C         -8.5670   43.5560   19.9580 C.2   203  ILE203      0.2616
     11  O         -8.1330   43.5710   21.1210 O.2   203  ILE203     -0.2715
     12  CB       -10.4310   41.9090   20.1450 C.3   203  ILE203      0.0290
     13  CG1       -9.6630   40.8470   19.3560 C.3   203  ILE203      0.0022
     14  CG2      -11.9430   41.7060   20.0800 C.3   203  ILE203      0.0023
     15  CD1       -9.5630   39.5250   20.0920 C.3   203  ILE203      0.0001
     16  N         -7.7660   43.6510   18.9080 N.am  204  PHE204     -0.1960
     17  CA        -6.3590   43.9760   19.0700 C.3   204  PHE204      0.1771
     18  C         -5.8260   44.5490   17.7710 C.2   204  PHE204      0.2619
     19  O         -6.1180   44.0280   16.7070 O.2   204  PHE204     -0.2715
     20  CB        -5.5470   42.7280   19.4690 C.3   204  PHE204      0.0574
     21  CG        -4.2790   43.0580   20.1960 C.ar  204  PHE204     -0.0200
     22  CD1       -4.3330   43.4260   21.5170 C.ar  204  PHE204     -0.0042
     23  CD2       -3.0600   43.0430   19.5540 C.ar  204  PHE204     -0.0042
     24  CE1       -3.1880   43.7500   22.2120 C.ar  204  PHE204     -0.0003
     25  CE2       -1.9040   43.3540   20.2440 C.ar  204  PHE204     -0.0003
     26  CZ        -1.9790   43.7170   21.5750 C.ar  204  PHE204     -0.0000
     27  N         -5.0400   45.6150   17.8490 N.am  205  ASP205     -0.1971
     28  CA        -4.6690   46.3320   16.6190 C.3   205  ASP205      0.1709
     29  C         -3.6850   45.6470   15.7140 C.2   205  ASP205      0.2293
     30  O         -3.7760   45.7690   14.4910 O.2   205  ASP205     -0.2864
     31  CB        -4.1360   47.7270   16.9330 C.3   205  ASP205      0.1436
     32  CG        -5.2050   48.6470   17.4300 C.2   205  ASP205      0.3671
     33  OD1       -6.4070   48.4550   17.1080 O.co2 205  ASP205     -0.2456
     34  OD2       -4.8400   49.5820   18.1630 O.co2 205  ASP205     -0.2456
     35  N         -1.4100   37.0450   25.7150 N.3   239  TRP239     -0.1241
     36  CA        -2.2660   38.1500   26.1800 C.3   239  TRP239      0.1605
     37  C         -3.7280   37.7390   26.2360 C.2   239  TRP239      0.2264
     38  O         -4.2030   36.9200   25.4190 O.2   239  TRP239     -0.2867
     39  CB        -2.1280   39.3860   25.2780 C.3   239  TRP239      0.0550
     40  CG        -0.9360   40.1900   25.5940 C.ar  239  TRP239      0.0003
     41  CD1        0.3400   39.7290   25.7170 C.ar  239  TRP239      0.0946
     42  CD2       -0.8790   41.5900   25.7830 C.ar  239  TRP239      0.0152
     43  NE1        1.1950   40.7620   25.9960 N.ar  239  TRP239     -0.2442
     44  CE2        0.4670   41.9210   26.0460 C.ar  239  TRP239      0.0810
     45  CE3       -1.8380   42.6070   25.7860 C.ar  239  TRP239      0.0012
     46  CZ2        0.8810   43.2280   26.3070 C.ar  239  TRP239      0.0191
     47  CZ3       -1.4220   43.9070   26.0270 C.ar  239  TRP239      0.0001
     48  CH2       -0.0710   44.2060   26.2770 C.ar  239  TRP239      0.0015
     49  N         -7.6900   39.3550   26.2410 N.3   241  VAL241     -0.1245
     50  CA        -8.5930   40.4700   25.9840 C.3   241  VAL241      0.1561
     51  C         -9.9060   40.1070   26.6730 C.2   241  VAL241      0.2260
     52  O        -10.4010   38.9750   26.5260 O.2   241  VAL241     -0.2867
     53  CB        -8.8090   40.6620   24.4680 C.3   241  VAL241      0.0252
     54  CG1       -9.7440   41.8320   24.2020 C.3   241  VAL241      0.0019
     55  CG2       -7.4810   40.8940   23.7520 C.3   241  VAL241      0.0019
     56  N        -15.4700   45.5440   25.5590 N.3   248  TYR248     -0.1227
     57  CA       -14.0540   45.2010   25.4200 C.3   248  TYR248      0.1736
     58  C        -13.2280   46.2820   26.0860 C.2   248  TYR248      0.2595
     59  O        -12.7870   47.2100   25.4220 O.2   248  TYR248     -0.2718
     60  CB       -13.6680   45.0570   23.9560 C.3   248  TYR248      0.0548
     61  CG       -14.0430   43.7150   23.3450 C.ar  248  TYR248     -0.0200
     62  CD1      -13.5240   42.5160   23.8760 C.ar  248  TYR248     -0.0009
     63  CD2      -14.8790   43.6400   22.2430 C.ar  248  TYR248     -0.0009
     64  CE1      -13.8500   41.2940   23.3340 C.ar  248  TYR248      0.0417
     65  CE2      -15.2110   42.4080   21.6820 C.ar  248  TYR248      0.0417
     66  CZ       -14.6820   41.2420   22.2310 C.ar  248  TYR248      0.1957
     67  OH       -14.9900   40.0150   21.7020 O.3   248  TYR248     -0.2866
     68  N        -13.0040   46.1210   27.3920 N.am  249  HIS249     -0.1961
     69  CA       -12.5230   47.2150   28.2490 C.3   249  HIS249      0.1787
     70  C        -11.1270   47.0040   28.8160 C.2   249  HIS249      0.2620
     71  O        -10.5530   47.9210   29.4280 O.2   249  HIS249     -0.2715
     72  CB       -13.4860   47.3960   29.4240 C.3   249  HIS249      0.0785
     73  CG       -13.3460   46.3410   30.4780 C.ar  249  HIS249      0.0821
     74  ND1      -12.6080   46.5320   31.6270 N.ar  249  HIS249     -0.2267
     75  CD2      -13.8150   45.0740   30.5430 C.ar  249  HIS249      0.1154
     76  CE1      -12.6360   45.4350   32.3600 C.ar  249  HIS249      0.1986
     77  NE2      -13.3700   44.5360   31.7280 N.ar  249  HIS249     -0.2212
     78  N        -10.5790   45.7990   28.6760 N.am  250  ASP250     -0.1957
     79  CA        -9.2380   45.5660   29.1840 C.3   250  ASP250      0.1840
     80  C         -8.4920   44.5210   28.3610 C.2   250  ASP250      0.2621
     81  O         -9.0860   43.7450   27.5930 O.2   250  ASP250     -0.2715
     82  CB        -9.2670   45.1810   30.6660 C.3   250  ASP250      0.1450
     83  CG        -7.9750   45.5740   31.4060 C.2   250  ASP250      0.3671
     84  OD1       -7.1440   46.3300   30.8620 O.co2 250  ASP250     -0.2456
     85  OD2       -7.7890   45.1180   32.5460 O.co2 250  ASP250     -0.2456
     86  N         -7.1800   44.5590   28.4900 N.am  251  LYS251     -0.1977
     87  CA        -6.3200   43.5360   27.9090 C.3   251  LYS251      0.1596
     88  C         -4.9520   43.6140   28.5570 C.2   251  LYS251      0.2287
     89  O         -4.5560   44.6790   29.0170 O.2   251  LYS251     -0.2864
     90  CB        -6.1810   43.7150   26.4010 C.3   251  LYS251      0.0298
     91  CG        -5.5230   45.0170   25.9720 C.3   251  LYS251      0.0038
     92  CD        -5.6600   45.2250   24.4740 C.3   251  LYS251      0.0206
     93  CE        -5.0800   46.5610   24.0400 C.3   251  LYS251      0.1093
     94  NZ        -5.9740   47.6980   24.3890 N.3   251  LYS251     -0.1314
@<TRIPOS>BOND
     1    30    29    2
     2     6     5    1
     3    29    28    1
     4     5     7    1
     5     5     2    1
     6     1     2    1
     7     2     3    1
     8    28    31    1
     9    28    27    1
    10    19    18    2
    11    31    32    1
    12    33    32   ar
    13    32    34   ar
    14    18    27   am
    15    18    17    1
    16     3     8   am
    17     3     4    2
    18     8     9    1
    19    16    17    1
    20    16    10   am
    21    17    20    1
    22    13    15    1
    23    13    12    1
    24    20    21    1
    25    23    21   ar
    26    23    25   ar
    27     9    10    1
    28     9    12    1
    29    10    11    2
    30    14    12    1
    31    21    22   ar
    32    25    26   ar
    33    22    24   ar
    34    26    24   ar
    35    65    66   ar
    36    65    63   ar
    37    67    66    1
    38    66    64   ar
    39    63    61   ar
    40    64    62   ar
    41    61    62   ar
    42    61    60    1
    43    55    53    1
    44    60    57    1
    45    93    94    1
    46    93    92    1
    47    54    53    1
    48    53    50    1
    49    92    91    1
    50    39    40    1
    51    39    36    1
    52    38    37    2
    53    57    56    1
    54    57    58    1
    55    59    58    2
    56    40    41   ar
    57    40    42   ar
    58    35    36    1
    59    41    43   ar
    60    42    45   ar
    61    42    44   ar
    62    45    47   ar
    63    91    90    1
    64    50    49    1
    65    50    51    1
    66    43    44   ar
    67    47    48   ar
    68    44    46   ar
    69    58    68   am
    70    36    37    1
    71    48    46   ar
    72    90    87    1
    73    52    51    2
    74    68    69    1
    75    81    80    2
    76    87    86    1
    77    87    88    1
    78    69    70    1
    79    69    72    1
    80    80    86   am
    81    80    79    1
    82    88    89    2
    83    78    70   am
    84    78    79    1
    85    70    71    2
    86    79    82    1
    87    72    73    1
    88    73    75   ar
    89    73    74   ar
    90    75    77   ar
    91    82    83    1
    92    84    83   ar
    93    83    85   ar
    94    74    76   ar
    95    77    76   ar
