@<TRIPOS>MOLECULE
tmp/4d56A00.pdb
 142 137 0 0 0
SMALL
GASTEIGER

@<TRIPOS>ATOM
      1  N         17.2020   15.6720    5.9960 N.3   198  PHE198     -0.1227
      2  CA        17.7350   15.9170    7.3390 C.3   198  PHE198      0.1736
      3  C         18.3290   14.5920    7.8270 C.2   198  PHE198      0.2595
      4  O         17.6910   13.5200    7.7100 O.2   198  PHE198     -0.2718
      5  CB        16.5970   16.1820    8.2990 C.3   198  PHE198      0.0547
      6  CG        15.9000   17.4960    8.1390 C.ar  198  PHE198     -0.0202
      7  CD1       14.9980   17.7110    7.0950 C.ar  198  PHE198     -0.0042
      8  CD2       16.0220   18.4890    9.1340 C.ar  198  PHE198     -0.0042
      9  CE1       14.3170   18.9140    6.9780 C.ar  198  PHE198     -0.0003
     10  CE2       15.3090   19.6900    9.0340 C.ar  198  PHE198     -0.0003
     11  CZ        14.4490   19.9020    7.9600 C.ar  198  PHE198     -0.0000
     12  N         19.5140   14.6290    8.4280 N.am  199  ASP199     -0.1960
     13  CA        20.0770   13.3930    8.9410 C.3   199  ASP199      0.1840
     14  C         19.2760   12.7570   10.0580 C.2   199  ASP199      0.2621
     15  O         19.4060   11.5800   10.3140 O.2   199  ASP199     -0.2715
     16  CB        21.5370   13.5660    9.3280 C.3   199  ASP199      0.1450
     17  CG        21.7540   14.4080   10.5890 C.2   199  ASP199      0.3671
     18  OD1       20.8420   15.0820   11.1260 O.co2 199  ASP199     -0.2456
     19  OD2       22.9250   14.4300   10.9740 O.co2 199  ASP199     -0.2456
     20  N         18.3880   13.5210   10.6510 N.am  200  VAL200     -0.1977
     21  CA        17.4650   13.0320   11.6810 C.3   200  VAL200      0.1596
     22  C         16.5650   11.9320   11.1500 C.2   200  VAL200      0.2287
     23  O         16.2230   11.0070   11.8780 O.2   200  VAL200     -0.2864
     24  CB        16.5880   14.1440   12.2140 C.3   200  VAL200      0.0276
     25  CG1       15.5240   13.6040   13.1580 C.3   200  VAL200      0.0022
     26  CG2       17.4620   15.0830   12.9760 C.3   200  VAL200      0.0022
     27  N         17.9250    8.7290   11.9930 N.3   203  GLU203     -0.1245
     28  CA        17.6570    8.3310   13.3540 C.3   203  GLU203      0.1567
     29  C         16.3900    7.5610   13.3890 C.2   203  GLU203      0.2260
     30  O         16.3880    6.4450   13.8540 O.2   203  GLU203     -0.2867
     31  CB        17.5190    9.5240   14.3150 C.3   203  GLU203      0.0388
     32  CG        17.1880    9.0850   15.7440 C.3   203  GLU203      0.1160
     33  CD        17.0460   10.3020   16.6690 C.2   203  GLU203      0.3649
     34  OE1       16.2030   11.1900   16.3600 O.co2 203  GLU203     -0.2457
     35  OE2       17.7390   10.3600   17.6990 O.co2 203  GLU203     -0.2457
     36  N          9.4970   11.9510   17.1090 N.3   242  SER242     -0.1202
     37  CA        10.7370   12.6360   16.8700 C.3   242  SER242      0.2020
     38  C         10.4060   13.9380   16.1400 C.2   242  SER242      0.2619
     39  O          9.9440   13.8900   14.9960 O.2   242  SER242     -0.2717
     40  CB        11.6690   11.7460   16.0400 C.3   242  SER242      0.2103
     41  OG        12.8340   12.4750   15.6690 O.3   242  SER242     -0.2182
     42  N         10.6350   15.0580   16.8000 N.am  243  LEU243     -0.1966
     43  CA        10.1420   16.3300   16.3880 C.3   243  LEU243      0.1713
     44  C         11.2260   17.2850   16.3200 C.2   243  LEU243      0.2458
     45  O         12.0550   17.3710   17.2450 O.2   243  LEU243     -0.2730
     46  CB         9.0270   16.8570   17.2820 C.3   243  LEU243      0.0310
     47  CG         7.8770   15.9650   17.6690 C.3   243  LEU243      0.0022
     48  CD1        6.9050   16.6390   18.6110 C.3   243  LEU243      0.0001
     49  CD2        7.1670   15.5380   16.4080 C.3   243  LEU243      0.0001
     50  N         11.2850   18.0390   15.2070 N.am  244  PRO244     -0.2727
     51  CA        12.0960   19.2500   15.1710 C.3   244  PRO244      0.1402
     52  C         11.6620   20.2070   16.3480 C.2   244  PRO244      0.2269
     53  O         10.5060   20.3330   16.5860 O.2   244  PRO244     -0.2865
     54  CB        11.6950   19.8670   13.8180 C.3   244  PRO244      0.0296
     55  CG        11.3070   18.7180   12.9740 C.3   244  PRO244      0.0237
     56  CD        10.4350   17.9720   14.0030 C.3   244  PRO244      0.0939
     57  N         11.3120   13.0350   21.4340 N.3   270  ILE270     -0.1245
     58  CA        12.6740   13.4770   21.1380 C.3   270  ILE270      0.1561
     59  C         12.6650   14.7090   20.3080 C.2   270  ILE270      0.2260
     60  O         12.0900   14.7000   19.2100 O.2   270  ILE270     -0.2867
     61  CB        13.4380   12.3930   20.3430 C.3   270  ILE270      0.0252
     62  CG1       13.4250   11.0880   21.0990 C.3   270  ILE270      0.0019
     63  CG2       14.9050   12.7820   20.1440 C.3   270  ILE270      0.0019
     64  CD1       13.6780    9.8540   20.2670 C.3   270  ILE270      0.0001
     65  N         14.9620   18.1410   18.8390 N.3   272  GLY272     -0.1210
     66  CA        16.2470   18.8010   18.6270 C.3   272  GLY272      0.1956
     67  C         16.2940   19.5630   17.3330 C.2   272  GLY272      0.2612
     68  O         15.3300   19.6050   16.5530 O.2   272  GLY272     -0.2717
     69  N         17.4050   20.2060   17.1350 N.am  273  GLY273     -0.1956
     70  CA        17.6100   20.9680   15.9480 C.3   273  GLY273      0.1869
     71  C         17.8840   22.4060   16.2640 C.2   273  GLY273      0.2309
     72  O         18.5660   23.0850   15.5040 O.2   273  GLY273     -0.2863
     73  N         17.9760   16.4970   22.1660 N.3   297  VAL297     -0.1231
     74  CA        19.1070   15.9010   21.5320 C.3   297  VAL297      0.1692
     75  C         19.8590   16.9570   20.6830 C.2   297  VAL297      0.2592
     76  O         19.2540   17.8080   20.0610 O.2   297  VAL297     -0.2718
     77  CB        18.6510   14.7020   20.7210 C.3   297  VAL297      0.0266
     78  CG1       19.7750   14.0590   19.9920 C.3   297  VAL297      0.0020
     79  CG2       18.0600   13.6710   21.6390 C.3   297  VAL297      0.0020
     80  N         21.1770   16.8850   20.7460 N.am  298  TYR298     -0.1962
     81  CA        22.0610   17.8050   20.0800 C.3   298  TYR298      0.1771
     82  C         23.0960   17.0990   19.2030 C.2   298  TYR298      0.2620
     83  O         23.7640   16.1320   19.5790 O.2   298  TYR298     -0.2715
     84  CB        22.8020   18.6760   21.1160 C.3   298  TYR298      0.0574
     85  CG        24.0240   19.3760   20.5840 C.ar  298  TYR298     -0.0198
     86  CD1       23.9090   20.5160   19.8230 C.ar  298  TYR298     -0.0009
     87  CD2       25.2750   18.8240   20.7350 C.ar  298  TYR298     -0.0009
     88  CE1       25.0250   21.1370   19.3150 C.ar  298  TYR298      0.0417
     89  CE2       26.3810   19.3850   20.1680 C.ar  298  TYR298      0.0417
     90  CZ        26.2530   20.5670   19.5000 C.ar  298  TYR298      0.1957
     91  OH        27.3490   21.1840   18.9870 O.3   298  TYR298     -0.2866
     92  N         23.2230   17.6180   17.9950 N.am  299  GLY299     -0.1940
     93  CA        24.4730   17.4550   17.2920 C.3   299  GLY299      0.1998
     94  C         24.4140   17.9080   15.8580 C.2   299  GLY299      0.2481
     95  O         23.3070   18.0920   15.3020 O.2   299  GLY299     -0.2729
     96  N         25.6000   18.1070   15.2590 N.am  300  PRO300     -0.2715
     97  CA        25.6380   18.4470   13.8450 C.3   300  PRO300      0.1536
     98  C         25.6070   17.2620   12.9150 C.2   300  PRO300      0.2599
     99  O         25.9680   16.1730   13.2500 O.2   300  PRO300     -0.2715
    100  CB        26.9930   19.1200   13.6840 C.3   300  PRO300      0.0310
    101  CG        27.8440   18.5450   14.8090 C.3   300  PRO300      0.0237
    102  CD        26.8460   18.5110   15.9290 C.3   300  PRO300      0.0939
    103  N         25.2130   17.5190   11.6710 N.am  301  THR301     -0.1951
    104  CA        25.3000   16.4740   10.6710 C.3   301  THR301      0.1897
    105  C         26.6790   15.8560   10.6030 C.2   301  THR301      0.2313
    106  O         26.8120   14.6790   10.4190 O.2   301  THR301     -0.2863
    107  CB        24.9300   17.0920    9.2680 C.3   301  THR301      0.1794
    108  OG1       23.6070   17.5140    9.3240 O.3   301  THR301     -0.2208
    109  CG2       25.0630   16.1590    8.2440 C.3   301  THR301      0.0378
    110  N         24.4140   12.7640   13.3290 N.3   305  ILE305     -0.1231
    111  CA        23.0360   12.9050   13.7490 C.3   305  ILE305      0.1692
    112  C         23.0380   13.5010   15.1850 C.2   305  ILE305      0.2591
    113  O         22.6130   14.6100   15.3790 O.2   305  ILE305     -0.2718
    114  CB        22.2590   11.6090   13.6990 C.3   305  ILE305      0.0266
    115  CG1       22.2340   10.9770   12.2960 C.3   305  ILE305      0.0019
    116  CG2       20.8730   11.8730   14.1570 C.3   305  ILE305      0.0020
    117  CD1       21.8690    9.5350   12.3460 C.3   305  ILE305      0.0001
    118  N         23.5830   12.7980   16.1470 N.am  306  ALA306     -0.1980
    119  CA        23.6670   13.4330   17.4940 C.3   306  ALA306      0.1597
    120  C         24.8080   12.9210   18.2760 C.2   306  ALA306      0.2287
    121  O         25.2570   11.7860   18.1060 O.2   306  ALA306     -0.2864
    122  CB        22.4200   13.1530   18.2430 C.3   306  ALA306      0.0319
    123  N         19.1540   28.4810   12.0120 N.3   414  LYS414     -0.1245
    124  CA        18.0430   27.6180   11.6660 C.3   414  LYS414      0.1561
    125  C         16.7930   28.4390   11.2810 C.2   414  LYS414      0.2260
    126  O         16.3060   29.2200   12.0600 O.2   414  LYS414     -0.2867
    127  CB        17.7020   26.7010   12.8530 C.3   414  LYS414      0.0271
    128  CG        18.8400   25.7590   13.2520 C.3   414  LYS414      0.0035
    129  CD        18.7870   24.4960   12.4190 C.3   414  LYS414      0.0206
    130  CE        20.0480   23.6670   12.5720 C.3   414  LYS414      0.1093
    131  NZ        19.6640   22.3170   13.0600 N.3   414  LYS414     -0.1314
    132  N         18.7960   24.0120    8.4950 N.3   419  ARG419     -0.1245
    133  CA        20.1110   24.5840    8.6270 C.3   419  ARG419      0.1563
    134  C         20.3880   25.4970    7.4270 C.2   419  ARG419      0.2260
    135  O         20.2620   25.0560    6.2870 O.2   419  ARG419     -0.2867
    136  CB        21.1630   23.4610    8.7660 C.3   419  ARG419      0.0307
    137  CG        22.6250   23.8470    8.6120 C.3   419  ARG419      0.0489
    138  CD        23.4970   22.7090    9.1080 C.3   419  ARG419      0.2205
    139  NE        24.8840   22.9120    8.7180 N.pl3 419  ARG419     -0.0865
    140  CZ        25.8920   22.1450    9.1160 C.cat 419  ARG419      0.5346
    141  NH1       25.6890   21.0860    9.9430 N.pl3 419  ARG419      0.1354
    142  NH2       27.1090   22.4190    8.6830 N.pl3 419  ARG419      0.1354
@<TRIPOS>BOND
     1     1     2    1
     2   135   134    2
     3     9     7   ar
     4     9    11   ar
     5     7     6   ar
     6     2     3    1
     7     2     5    1
     8   134   133    1
     9     4     3    2
    10     3    12   am
    11    11    10   ar
    12     6     5    1
    13     6     8   ar
    14   109   107    1
    15    12    13    1
    16   132   133    1
    17   137   136    1
    18   137   138    1
    19   133   136    1
    20   142   140    1
    21   139   138    1
    22   139   140    2
    23    13    16    1
    24    13    14    1
    25    10     8   ar
    26   140   141    1
    27   107   108    1
    28   107   104    1
    29    16    17    1
    30    14    15    2
    31    14    20   am
    32   106   105    2
    33    17    19   ar
    34    17    18   ar
    35   105   104    1
    36    20    21    1
    37   104   103    1
    38    22    21    1
    39    22    23    2
    40   125   124    1
    41   125   126    2
    42   124   123    1
    43   124   127    1
    44   103    98   am
    45    21    24    1
    46    27    28    1
    47    24    26    1
    48    24    25    1
    49   115   117    1
    50   115   114    1
    51   129   130    1
    52   129   128    1
    53   130   131    1
    54   127   128    1
    55    98    99    2
    56    98    97    1
    57    55    54    1
    58    55    56    1
    59   110   111    1
    60    28    29    1
    61    28    31    1
    62    29    30    2
    63   100    97    1
    64   100   101    1
    65   114   111    1
    66   114   116    1
    67   111   112    1
    68    54    51    1
    69    97    96    1
    70    56    50    1
    71    31    32    1
    72   101   102    1
    73    39    38    2
    74    51    50    1
    75    51    52    1
    76   112   113    2
    77   112   118   am
    78    50    44   am
    79    96    94   am
    80    96   102    1
    81    95    94    2
    82    72    71    2
    83    41    40    1
    84    32    33    1
    85    94    93    1
    86    70    71    1
    87    70    69    1
    88    40    37    1
    89    38    42   am
    90    38    37    1
    91   118   119    1
    92    44    43    1
    93    44    45    2
    94    52    53    2
    95    34    33   ar
    96    43    42    1
    97    43    46    1
    98    49    47    1
    99    68    67    2
   100    33    35   ar
   101    37    36    1
   102    69    67   am
   103    46    47    1
   104    93    92    1
   105    67    66    1
   106   119   122    1
   107   119   120    1
   108    47    48    1
   109    92    82   am
   110   121   120    2
   111    66    65    1
   112    91    90    1
   113    82    83    2
   114    82    81    1
   115    60    59    2
   116    88    90   ar
   117    88    86   ar
   118    90    89   ar
   119    86    85   ar
   120    78    77    1
   121    76    75    2
   122    81    80    1
   123    81    84    1
   124    63    61    1
   125    89    87   ar
   126    64    62    1
   127    59    58    1
   128    61    62    1
   129    61    58    1
   130    85    87   ar
   131    85    84    1
   132    75    80   am
   133    75    74    1
   134    77    74    1
   135    77    79    1
   136    58    57    1
   137    74    73    1
