@<TRIPOS>MOLECULE
tmp/4d57A00.pdb
 131 124 0 0 0
SMALL
GASTEIGER

@<TRIPOS>ATOM
      1  N         16.6510  -15.6480    5.9150 N.3   198  PHE198     -0.1227
      2  CA        16.2110  -15.9250    7.3000 C.3   198  PHE198      0.1736
      3  C         15.6650  -14.5920    7.8490 C.2   198  PHE198      0.2595
      4  O         16.3280  -13.5680    7.7250 O.2   198  PHE198     -0.2718
      5  CB        17.4130  -16.2290    8.1880 C.3   198  PHE198      0.0547
      6  CG        18.0220  -17.6020    8.0190 C.ar  198  PHE198     -0.0202
      7  CD1       18.7660  -17.9310    6.8830 C.ar  198  PHE198     -0.0042
      8  CD2       17.9310  -18.5460    9.0530 C.ar  198  PHE198     -0.0042
      9  CE1       19.3600  -19.1900    6.7800 C.ar  198  PHE198     -0.0003
     10  CE2       18.5220  -19.7900    8.9410 C.ar  198  PHE198     -0.0003
     11  CZ        19.2230  -20.1100    7.8070 C.ar  198  PHE198     -0.0000
     12  N         14.4910  -14.5840    8.4570 N.am  199  ASP199     -0.1960
     13  CA        13.9450  -13.3260    8.9720 C.3   199  ASP199      0.1840
     14  C         14.7840  -12.7220   10.0750 C.2   199  ASP199      0.2621
     15  O         14.6590  -11.5510   10.3640 O.2   199  ASP199     -0.2715
     16  CB        12.4470  -13.4210    9.3240 C.3   199  ASP199      0.1450
     17  CG        12.1510  -14.3050   10.5600 C.2   199  ASP199      0.3671
     18  OD1       13.0490  -14.9710   11.1120 O.co2 199  ASP199     -0.2456
     19  OD2       10.9530  -14.3220   10.9530 O.co2 199  ASP199     -0.2456
     20  N         15.6490  -13.5010   10.7140 N.am  200  VAL200     -0.1977
     21  CA        16.5790  -12.9560   11.7290 C.3   200  VAL200      0.1596
     22  C         17.5150  -11.9050   11.1910 C.2   200  VAL200      0.2287
     23  O         17.8790  -10.9670   11.8600 O.2   200  VAL200     -0.2864
     24  CB        17.3820  -14.0610   12.3950 C.3   200  VAL200      0.0276
     25  CG1       18.4120  -13.4930   13.3410 C.3   200  VAL200      0.0022
     26  CG2       16.4850  -14.8970   13.2360 C.3   200  VAL200      0.0022
     27  N         16.0730   -8.6370   12.0640 N.3   203  GLU203     -0.1245
     28  CA        16.3680   -8.2330   13.4140 C.3   203  GLU203      0.1567
     29  C         17.7420   -7.5920   13.4500 C.2   203  GLU203      0.2260
     30  O         17.8870   -6.4710   13.9110 O.2   203  GLU203     -0.2867
     31  CB        16.3530   -9.4250   14.3860 C.3   203  GLU203      0.0388
     32  CG        16.9090   -9.0470   15.7600 C.3   203  GLU203      0.1160
     33  CD        16.8410  -10.1460   16.8240 C.2   203  GLU203      0.3649
     34  OE1       15.7990  -10.4660   17.2850 O.co2 203  GLU203     -0.2457
     35  OE2       17.8360  -10.7230   17.1870 O.co2 203  GLU203     -0.2457
     36  N         24.5270  -12.1600   17.1940 N.3   242  SER242     -0.1202
     37  CA        23.2520  -12.7500   16.9480 C.3   242  SER242      0.2020
     38  C         23.5160  -14.0090   16.1800 C.2   242  SER242      0.2618
     39  O         23.9740  -13.9270   15.0410 O.2   242  SER242     -0.2717
     40  CB        22.3840  -11.7380   16.1380 C.3   242  SER242      0.2103
     41  OG        21.1670  -12.3480   15.7180 O.3   242  SER242     -0.2182
     42  N         23.3600  -15.1610   16.8290 N.am  243  LEU243     -0.1979
     43  CA        23.8290  -16.4430   16.3570 C.3   243  LEU243      0.1596
     44  C         22.7270  -17.3960   16.3140 C.2   243  LEU243      0.2287
     45  O         21.9130  -17.4810   17.2270 O.2   243  LEU243     -0.2864
     46  CB        24.8870  -17.0450   17.2760 C.3   243  LEU243      0.0297
     47  CG        26.1070  -16.2630   17.6770 C.3   243  LEU243      0.0022
     48  CD1       27.0900  -17.0050   18.5920 C.3   243  LEU243      0.0001
     49  CD2       26.8550  -15.7470   16.4750 C.3   243  LEU243      0.0001
     50  N         22.7510  -13.1710   21.4390 N.3   270  ILE270     -0.1231
     51  CA        21.3570  -13.5560   21.1980 C.3   270  ILE270      0.1692
     52  C         21.3220  -14.7910   20.3470 C.2   270  ILE270      0.2592
     53  O         21.8270  -14.7400   19.2170 O.2   270  ILE270     -0.2718
     54  CB        20.5920  -12.4210   20.4500 C.3   270  ILE270      0.0266
     55  CG1       20.7620  -11.0440   21.1350 C.3   270  ILE270      0.0019
     56  CG2       19.1160  -12.7430   20.3070 C.3   270  ILE270      0.0020
     57  CD1       20.4610   -9.8530   20.2060 C.3   270  ILE270      0.0001
     58  N         20.6510  -15.8560   20.8130 N.am  271  ILE271     -0.1966
     59  CA        20.5970  -17.1350   20.1330 C.3   271  ILE271      0.1727
     60  C         19.2120  -17.4430   19.8920 C.2   271  ILE271      0.2617
     61  O         18.3040  -16.8960   20.5400 O.2   271  ILE271     -0.2715
     62  CB        21.2980  -18.3030   20.9000 C.3   271  ILE271      0.0290
     63  CG1       20.6660  -18.5750   22.2620 C.3   271  ILE271      0.0022
     64  CG2       22.7370  -17.9080   21.1170 C.3   271  ILE271      0.0023
     65  CD1       21.1600  -19.8710   22.9550 C.3   271  ILE271      0.0001
     66  N         18.9750  -18.3250   18.9160 N.am  272  GLY272     -0.1940
     67  CA        17.6030  -18.7900   18.7520 C.3   272  GLY272      0.2014
     68  C         17.4880  -19.5750   17.4840 C.2   272  GLY272      0.2639
     69  O         18.4320  -19.6320   16.7230 O.2   272  GLY272     -0.2714
     70  N         16.3530  -20.1950   17.2830 N.am  273  GLY273     -0.1954
     71  CA        16.1180  -20.8830   16.0240 C.3   273  GLY273      0.1869
     72  C         15.9480  -22.3510   16.2270 C.2   273  GLY273      0.2309
     73  O         15.2200  -23.0380   15.4530 O.2   273  GLY273     -0.2863
     74  N         15.9210  -16.4830   22.1930 N.3   297  VAL297     -0.1245
     75  CA        14.7580  -15.8680   21.5680 C.3   297  VAL297      0.1561
     76  C         13.9920  -16.9540   20.7510 C.2   297  VAL297      0.2260
     77  O         14.6180  -17.7390   20.0360 O.2   297  VAL297     -0.2867
     78  CB        15.2390  -14.6910   20.7050 C.3   297  VAL297      0.0252
     79  CG1       14.1070  -13.9470   20.0300 C.3   297  VAL297      0.0019
     80  CG2       16.0380  -13.7230   21.5530 C.3   297  VAL297      0.0019
     81  N         10.6370  -17.4910   18.0040 N.3   299  GLY299     -0.1210
     82  CA         9.4990  -17.0510   17.2180 C.3   299  GLY299      0.1940
     83  C          9.4830  -17.7280   15.8700 C.2   299  GLY299      0.2454
     84  O         10.5550  -17.9930   15.3350 O.2   299  GLY299     -0.2732
     85  N          8.2800  -18.0790   15.3440 N.am  300  PRO300     -0.2717
     86  CA         8.2680  -18.4190   13.9220 C.3   300  PRO300      0.1535
     87  C          8.2420  -17.1890   13.0060 C.2   300  PRO300      0.2599
     88  O          7.9110  -16.0660   13.3910 O.2   300  PRO300     -0.2715
     89  CB         6.9800  -19.2000   13.7650 C.3   300  PRO300      0.0310
     90  CG         6.0530  -18.5590   14.7520 C.3   300  PRO300      0.0237
     91  CD         6.9460  -18.1400   15.9160 C.3   300  PRO300      0.0939
     92  N          8.5980  -17.4070   11.7550 N.am  301  THR301     -0.1951
     93  CA         8.5280  -16.3700   10.7180 C.3   301  THR301      0.1897
     94  C          7.2020  -15.6840   10.6570 C.2   301  THR301      0.2313
     95  O          7.1210  -14.4890   10.4060 O.2   301  THR301     -0.2863
     96  CB         8.9280  -17.0120    9.3430 C.3   301  THR301      0.1794
     97  OG1       10.2160  -17.5740    9.5380 O.3   301  THR301     -0.2208
     98  CG2        9.0360  -15.9700    8.2720 C.3   301  THR301      0.0378
     99  N          9.5660  -12.6160   13.3870 N.3   305  ILE305     -0.1231
    100  CA        10.9660  -12.7280   13.8070 C.3   305  ILE305      0.1692
    101  C         11.0230  -13.3410   15.2580 C.2   305  ILE305      0.2591
    102  O         11.5670  -14.4010   15.4290 O.2   305  ILE305     -0.2718
    103  CB        11.7760  -11.4500   13.6930 C.3   305  ILE305      0.0266
    104  CG1       11.7960  -10.8700   12.2630 C.3   305  ILE305      0.0019
    105  CG2       13.2260  -11.8040   13.9380 C.3   305  ILE305      0.0020
    106  CD1       12.0760   -9.3890   12.1840 C.3   305  ILE305      0.0001
    107  N         10.4080  -12.7130   16.2560 N.am  306  ALA306     -0.1980
    108  CA        10.4330  -13.3170   17.6120 C.3   306  ALA306      0.1597
    109  C          9.2540  -12.8350   18.3580 C.2   306  ALA306      0.2287
    110  O          8.7680  -11.7290   18.0920 O.2   306  ALA306     -0.2864
    111  CB        11.6680  -12.8910   18.3480 C.3   306  ALA306      0.0319
    112  N         14.5900  -28.4690   12.1700 N.3   414  LYS414     -0.1245
    113  CA        15.6870  -27.5870   11.8960 C.3   414  LYS414      0.1561
    114  C         16.9140  -28.4320   11.5750 C.2   414  LYS414      0.2260
    115  O         17.2630  -29.3340   12.3430 O.2   414  LYS414     -0.2867
    116  CB        15.9300  -26.6810   13.1320 C.3   414  LYS414      0.0271
    117  CG        14.7990  -25.6940   13.4430 C.3   414  LYS414      0.0035
    118  CD        14.5760  -24.7390   12.2720 C.3   414  LYS414      0.0206
    119  CE        13.5770  -23.6160   12.5570 C.3   414  LYS414      0.1093
    120  NZ        14.2850  -22.3550   12.9910 N.3   414  LYS414     -0.1314
    121  N         15.0500  -23.9710    8.6440 N.3   419  ARG419     -0.1245
    122  CA        13.6880  -24.5110    8.6760 C.3   419  ARG419      0.1563
    123  C         13.4050  -25.4310    7.4730 C.2   419  ARG419      0.2260
    124  O         13.4630  -25.0030    6.3230 O.2   419  ARG419     -0.2867
    125  CB        12.6820  -23.3570    8.7490 C.3   419  ARG419      0.0307
    126  CG        11.2290  -23.7870    8.7820 C.3   419  ARG419      0.0489
    127  CD        10.3340  -22.6460    9.2300 C.3   419  ARG419      0.2205
    128  NE         8.9570  -22.8040    8.7310 N.pl3 419  ARG419     -0.0865
    129  CZ         7.9420  -22.0070    9.0780 C.cat 419  ARG419      0.5346
    130  NH1        8.1130  -21.0120    9.9540 N.pl3 419  ARG419      0.1354
    131  NH2        6.7240  -22.2150    8.5780 N.pl3 419  ARG419      0.1354
@<TRIPOS>BOND
     1     1     2    1
     2   124   123    2
     3     9     7   ar
     4     9    11   ar
     5     7     6   ar
     6     2     3    1
     7     2     5    1
     8   123   122    1
     9     4     3    2
    10    11    10   ar
    11     3    12   am
    12     6     5    1
    13     6     8   ar
    14    98    96    1
    15    12    13    1
    16   131   129    1
    17   121   122    1
    18   122   125    1
    19   128   129    2
    20   128   127    1
    21   125   126    1
    22   126   127    1
    23    10     8   ar
    24    13    16    1
    25    13    14    1
    26   129   130    1
    27    16    17    1
    28    96    97    1
    29    96    93    1
    30    14    15    2
    31    14    20   am
    32    95    94    2
    33    17    19   ar
    34    17    18   ar
    35    94    93    1
    36    20    21    1
    37    93    92    1
    38    22    21    1
    39    22    23    2
    40   114   113    1
    41   114   115    2
    42    21    24    1
    43    92    87   am
    44   113   112    1
    45   113   116    1
    46    27    28    1
    47   106   104    1
    48   104   103    1
    49   118   119    1
    50   118   117    1
    51    24    26    1
    52    24    25    1
    53   119   120    1
    54    87    88    2
    55    87    86    1
    56   116   117    1
    57    99   100    1
    58    28    29    1
    59    28    31    1
    60    29    30    2
    61   103   100    1
    62   103   105    1
    63    89    86    1
    64    89    90    1
    65   100   101    1
    66    86    85    1
    67    31    32    1
    68    90    91    1
    69    39    38    2
    70   101   102    2
    71   101   107   am
    72    84    83    2
    73    85    83   am
    74    85    91    1
    75    73    72    2
    76    41    40    1
    77    32    33    1
    78    83    82    1
    79    71    72    1
    80    71    70    1
    81    40    37    1
    82    38    42   am
    83    38    37    1
    84   107   108    1
    85    44    43    1
    86    44    45    2
    87    43    42    1
    88    43    46    1
    89    49    47    1
    90    69    68    2
    91    33    35   ar
    92    33    34   ar
    93    37    36    1
    94    82    81    1
    95    46    47    1
    96    70    68   am
    97    68    67    1
    98   108   111    1
    99   108   109    1
   100    47    48    1
   101   110   109    2
   102    67    66    1
   103    66    60   am
   104    53    52    2
   105    60    59    1
   106    60    61    2
   107    79    78    1
   108    77    76    2
   109    59    58    1
   110    59    62    1
   111    57    55    1
   112    56    54    1
   113    52    58   am
   114    52    51    1
   115    54    55    1
   116    54    51    1
   117    78    80    1
   118    78    75    1
   119    76    75    1
   120    62    64    1
   121    62    63    1
   122    51    50    1
   123    75    74    1
   124    63    65    1
