@<TRIPOS>MOLECULE
tmp/4d57A01.pdb
 196 187 0 0 0
SMALL
GASTEIGER

@<TRIPOS>ATOM
      1  N          9.4960  -19.7950    3.0090 N.3   154  THR154     -0.1274
      2  CA         9.8950  -20.8450    3.8930 C.3   154  THR154      0.1548
      3  C          9.4670  -22.2030    3.2520 C.3   154  THR154      0.2036
      4  O          8.6140  -22.2630    2.2780 O.3   154  THR154     -0.2187
      5  CB         9.2550  -20.6950    5.2650 C.3   154  THR154      0.1721
      6  OG1        7.8590  -20.8750    5.1070 O.3   154  THR154     -0.2215
      7  CG2        9.4790  -19.3240    5.8890 C.3   154  THR154      0.0371
      8  N         16.6510  -15.6480    5.9150 N.3   198  PHE198     -0.1227
      9  CA        16.2110  -15.9250    7.3000 C.3   198  PHE198      0.1736
     10  C         15.6650  -14.5920    7.8490 C.2   198  PHE198      0.2595
     11  O         16.3280  -13.5680    7.7250 O.2   198  PHE198     -0.2718
     12  CB        17.4130  -16.2290    8.1880 C.3   198  PHE198      0.0547
     13  CG        18.0220  -17.6020    8.0190 C.ar  198  PHE198     -0.0202
     14  CD1       18.7660  -17.9310    6.8830 C.ar  198  PHE198     -0.0042
     15  CD2       17.9310  -18.5460    9.0530 C.ar  198  PHE198     -0.0042
     16  CE1       19.3600  -19.1900    6.7800 C.ar  198  PHE198     -0.0003
     17  CE2       18.5220  -19.7900    8.9410 C.ar  198  PHE198     -0.0003
     18  CZ        19.2230  -20.1100    7.8070 C.ar  198  PHE198     -0.0000
     19  N         14.4910  -14.5840    8.4570 N.am  199  ASP199     -0.1960
     20  CA        13.9450  -13.3260    8.9720 C.3   199  ASP199      0.1840
     21  C         14.7840  -12.7220   10.0750 C.2   199  ASP199      0.2621
     22  O         14.6590  -11.5510   10.3640 O.2   199  ASP199     -0.2715
     23  CB        12.4470  -13.4210    9.3240 C.3   199  ASP199      0.1450
     24  CG        12.1510  -14.3050   10.5600 C.2   199  ASP199      0.3671
     25  OD1       13.0490  -14.9710   11.1120 O.co2 199  ASP199     -0.2456
     26  OD2       10.9530  -14.3220   10.9530 O.co2 199  ASP199     -0.2456
     27  N         15.6490  -13.5010   10.7140 N.am  200  VAL200     -0.1977
     28  CA        16.5790  -12.9560   11.7290 C.3   200  VAL200      0.1596
     29  C         17.5150  -11.9050   11.1910 C.2   200  VAL200      0.2287
     30  O         17.8790  -10.9670   11.8600 O.2   200  VAL200     -0.2864
     31  CB        17.3820  -14.0610   12.3950 C.3   200  VAL200      0.0276
     32  CG1       18.4120  -13.4930   13.3410 C.3   200  VAL200      0.0022
     33  CG2       16.4850  -14.8970   13.2360 C.3   200  VAL200      0.0022
     34  N         18.9750  -18.3250   18.9160 N.3   272  GLY272     -0.1210
     35  CA        17.6030  -18.7900   18.7520 C.3   272  GLY272      0.1956
     36  C         17.4880  -19.5750   17.4840 C.2   272  GLY272      0.2612
     37  O         18.4320  -19.6320   16.7230 O.2   272  GLY272     -0.2717
     38  N         16.3530  -20.1950   17.2830 N.am  273  GLY273     -0.1942
     39  CA        16.1180  -20.8830   16.0240 C.3   273  GLY273      0.2014
     40  C         15.9480  -22.3510   16.2270 C.2   273  GLY273      0.2639
     41  O         15.2200  -23.0380   15.4530 O.2   273  GLY273     -0.2714
     42  N         16.5470  -22.8610   17.2830 N.am  274  GLU274     -0.1963
     43  CA        16.2160  -24.2310   17.6680 C.3   274  GLU274      0.1733
     44  C         16.4830  -24.5080   19.1340 C.2   274  GLU274      0.2616
     45  O         16.8800  -23.6100   19.8970 O.2   274  GLU274     -0.2715
     46  CB        16.9120  -25.2390   16.7740 C.3   274  GLU274      0.0429
     47  CG        18.4060  -25.1130   16.7700 C.3   274  GLU274      0.1163
     48  CD        19.0380  -26.0410   15.7510 C.2   274  GLU274      0.3649
     49  OE1       19.2290  -27.1920   16.1420 O.co2 274  GLU274     -0.2457
     50  OE2       19.3530  -25.6310   14.5930 O.co2 274  GLU274     -0.2457
     51  N         16.1870  -25.7350   19.5350 N.am  275  ARG275     -0.1963
     52  CA        16.2170  -26.1120   20.9310 C.3   275  ARG275      0.1729
     53  C         17.6470  -26.0330   21.5030 C.2   275  ARG275      0.2616
     54  O         18.5290  -26.6710   21.0320 O.2   275  ARG275     -0.2715
     55  CB        15.6720  -27.5310   21.1070 C.3   275  ARG275      0.0348
     56  CG        15.8080  -28.0580   22.5120 C.3   275  ARG275      0.0492
     57  CD        15.5710  -29.5580   22.5660 C.3   275  ARG275      0.2205
     58  NE        15.7430  -30.0270   23.9340 N.pl3 275  ARG275     -0.0865
     59  CZ        16.8820  -30.4590   24.4720 C.cat 275  ARG275      0.5346
     60  NH1       18.0270  -30.4550   23.7850 N.pl3 275  ARG275      0.1354
     61  NH2       16.8910  -30.8640   25.7350 N.pl3 275  ARG275      0.1354
     62  N         17.8560  -25.2430   22.5350 N.am  276  VAL276     -0.1977
     63  CA        19.1520  -25.0960   23.0900 C.3   276  VAL276      0.1596
     64  C         19.4450  -26.2840   24.0010 C.2   276  VAL276      0.2287
     65  O         18.5670  -26.6940   24.7630 O.2   276  VAL276     -0.2864
     66  CB        19.3300  -23.7510   23.8450 C.3   276  VAL276      0.0276
     67  CG1       18.4790  -23.6710   25.0890 C.3   276  VAL276      0.0022
     68  CG2       20.8080  -23.5330   24.1700 C.3   276  VAL276      0.0022
     69  N         17.9700  -16.2660   24.9150 N.3   296  ASN296     -0.1225
     70  CA        17.3030  -17.2340   24.0370 C.3   296  ASN296      0.1785
     71  C         16.0270  -16.6010   23.5120 C.2   296  ASN296      0.2597
     72  O         15.2070  -16.1300   24.2880 O.2   296  ASN296     -0.2718
     73  CB        17.0250  -18.4700   24.8020 C.3   296  ASN296      0.1169
     74  CG        16.6150  -19.6350   23.9440 C.2   296  ASN296      0.2627
     75  OD1       16.9480  -19.7210   22.7650 O.2   296  ASN296     -0.2716
     76  ND2       15.8880  -20.5710   24.5650 N.am  296  ASN296     -0.0877
     77  N         15.9210  -16.4830   22.1930 N.am  297  VAL297     -0.1966
     78  CA        14.7580  -15.8680   21.5680 C.3   297  VAL297      0.1727
     79  C         13.9920  -16.9540   20.7510 C.2   297  VAL297      0.2616
     80  O         14.6180  -17.7390   20.0360 O.2   297  VAL297     -0.2715
     81  CB        15.2390  -14.6910   20.7050 C.3   297  VAL297      0.0290
     82  CG1       14.1070  -13.9470   20.0300 C.3   297  VAL297      0.0023
     83  CG2       16.0380  -13.7230   21.5530 C.3   297  VAL297      0.0023
     84  N         12.6630  -16.8850   20.8000 N.am  298  TYR298     -0.1960
     85  CA        11.7890  -17.7420   20.0790 C.3   298  TYR298      0.1771
     86  C         10.8110  -16.9810   19.1960 C.2   298  TYR298      0.2620
     87  O         10.1640  -16.0040   19.5820 O.2   298  TYR298     -0.2715
     88  CB        10.9860  -18.6260   21.1060 C.3   298  TYR298      0.0574
     89  CG         9.8060  -19.2960   20.5720 C.ar  298  TYR298     -0.0198
     90  CD1        9.9220  -20.5220   19.8810 C.ar  298  TYR298     -0.0009
     91  CD2        8.5770  -18.7370   20.6990 C.ar  298  TYR298     -0.0009
     92  CE1        8.8080  -21.1560   19.3520 C.ar  298  TYR298      0.0417
     93  CE2        7.4620  -19.3330   20.1470 C.ar  298  TYR298      0.0417
     94  CZ         7.5640  -20.5230   19.4940 C.ar  298  TYR298      0.1957
     95  OH         6.4550  -21.1620   18.9570 O.3   298  TYR298     -0.2866
     96  N         10.6370  -17.4910   18.0040 N.am  299  GLY299     -0.1940
     97  CA         9.4990  -17.0510   17.2180 C.3   299  GLY299      0.1998
     98  C          9.4830  -17.7280   15.8700 C.2   299  GLY299      0.2481
     99  O         10.5550  -17.9930   15.3350 O.2   299  GLY299     -0.2729
    100  N          8.2800  -18.0790   15.3440 N.am  300  PRO300     -0.2715
    101  CA         8.2680  -18.4190   13.9220 C.3   300  PRO300      0.1536
    102  C          8.2420  -17.1890   13.0060 C.2   300  PRO300      0.2599
    103  O          7.9110  -16.0660   13.3910 O.2   300  PRO300     -0.2715
    104  CB         6.9800  -19.2000   13.7650 C.3   300  PRO300      0.0310
    105  CG         6.0530  -18.5590   14.7520 C.3   300  PRO300      0.0237
    106  CD         6.9460  -18.1400   15.9160 C.3   300  PRO300      0.0939
    107  N          8.5980  -17.4070   11.7550 N.am  301  THR301     -0.1951
    108  CA         8.5280  -16.3700   10.7180 C.3   301  THR301      0.1897
    109  C          7.2020  -15.6840   10.6570 C.2   301  THR301      0.2313
    110  O          7.1210  -14.4890   10.4060 O.2   301  THR301     -0.2863
    111  CB         8.9280  -17.0120    9.3430 C.3   301  THR301      0.1794
    112  OG1       10.2160  -17.5740    9.5380 O.3   301  THR301     -0.2208
    113  CG2        9.0360  -15.9700    8.2720 C.3   301  THR301      0.0378
    114  N          9.5660  -12.6160   13.3870 N.3   305  ILE305     -0.1245
    115  CA        10.9660  -12.7280   13.8070 C.3   305  ILE305      0.1561
    116  C         11.0230  -13.3410   15.2580 C.2   305  ILE305      0.2260
    117  O         11.5670  -14.4010   15.4290 O.2   305  ILE305     -0.2867
    118  CB        11.7760  -11.4500   13.6930 C.3   305  ILE305      0.0252
    119  CG1       11.7960  -10.8700   12.2630 C.3   305  ILE305      0.0019
    120  CG2       13.2260  -11.8040   13.9380 C.3   305  ILE305      0.0019
    121  CD1       12.0760   -9.3890   12.1840 C.3   305  ILE305      0.0001
    122  N         12.1890  -20.7350   26.7580 N.3   327  ILE327     -0.1245
    123  CA        12.0770  -19.6850   25.7650 C.3   327  ILE327      0.1561
    124  C         11.4360  -18.4220   26.3080 C.2   327  ILE327      0.2260
    125  O         11.3690  -17.4630   25.6100 O.2   327  ILE327     -0.2867
    126  CB        11.3700  -20.1900   24.4860 C.3   327  ILE327      0.0252
    127  CG1       10.0430  -20.8860   24.7660 C.3   327  ILE327      0.0019
    128  CG2       12.2980  -21.1540   23.7320 C.3   327  ILE327      0.0019
    129  CD1        9.2460  -21.0360   23.4730 C.3   327  ILE327      0.0001
    130  N          1.2880  -22.4500   15.6790 N.3   391  THR391     -0.1218
    131  CA         2.6600  -22.6040   15.4220 C.3   391  THR391      0.1862
    132  C          3.0920  -23.9920   15.0410 C.2   391  THR391      0.2287
    133  O          4.0830  -24.1400   14.3630 O.2   391  THR391     -0.2866
    134  CB         3.5360  -22.1670   16.6270 C.3   391  THR391      0.1770
    135  OG1        3.2590  -23.0330   17.7420 O.3   391  THR391     -0.2211
    136  CG2        3.2530  -20.7340   17.0120 C.3   391  THR391      0.0375
    137  N          4.1100  -25.8340   17.4020 N.3   393  ASP393     -0.1239
    138  CA         5.0080  -26.0720   18.5660 C.3   393  ASP393      0.1674
    139  C          4.2000  -26.4350   19.8190 C.2   393  ASP393      0.2266
    140  O          3.1580  -25.8220   20.1050 O.2   393  ASP393     -0.2867
    141  CB         5.8600  -24.8330   18.8940 C.3   393  ASP393      0.1410
    142  CG         6.8850  -24.4790   17.7680 C.2   393  ASP393      0.3668
    143  OD1        7.5350  -25.4310   17.2630 O.co2 393  ASP393     -0.2456
    144  OD2        6.9720  -23.2720   17.3890 O.co2 393  ASP393     -0.2456
    145  N          9.5720  -24.7660   25.4990 N.3   405  TYR405     -0.1241
    146  CA         9.3660  -25.4140   24.2200 C.3   405  TYR405      0.1605
    147  C          9.4470  -26.9330   24.4160 C.2   405  TYR405      0.2264
    148  O         10.4260  -27.4120   24.9120 O.2   405  TYR405     -0.2867
    149  CB        10.4490  -25.0350   23.2150 C.3   405  TYR405      0.0534
    150  CG        10.4450  -25.8160   21.9100 C.ar  405  TYR405     -0.0201
    151  CD1        9.4980  -25.5840   20.9270 C.ar  405  TYR405     -0.0009
    152  CD2       11.4540  -26.7230   21.6220 C.ar  405  TYR405     -0.0009
    153  CE1        9.5100  -26.2750   19.7200 C.ar  405  TYR405      0.0417
    154  CE2       11.4790  -27.4020   20.4130 C.ar  405  TYR405      0.0417
    155  CZ        10.5090  -27.1590   19.4710 C.ar  405  TYR405      0.1957
    156  OH        10.5070  -27.8430   18.2910 O.3   405  TYR405     -0.2866
    157  N          7.6210  -30.5260   18.4100 N.3   408  ARG408     -0.1245
    158  CA         6.7020  -30.3240   17.3250 C.3   408  ARG408      0.1563
    159  C          5.6590  -31.4080   17.2570 C.2   408  ARG408      0.2260
    160  O          5.9460  -32.5880   17.4650 O.2   408  ARG408     -0.2867
    161  CB         7.4230  -30.3600   15.9590 C.3   408  ARG408      0.0307
    162  CG         8.5610  -29.3790   15.6660 C.3   408  ARG408      0.0489
    163  CD         8.1770  -27.9870   15.1530 C.3   408  ARG408      0.2205
    164  NE         7.1100  -27.9130   14.1340 N.pl3 408  ARG408     -0.0865
    165  CZ         6.3550  -26.8410   13.9090 C.cat 408  ARG408      0.5346
    166  NH1        6.5170  -25.7150   14.6270 N.pl3 408  ARG408      0.1354
    167  NH2        5.4300  -26.8500   12.9520 N.pl3 408  ARG408      0.1354
    168  N          8.1190  -30.7270   10.5940 N.3   412  GLN412     -0.1245
    169  CA         9.0940  -29.6400   10.3510 C.3   412  GLN412      0.1566
    170  C         10.2550  -29.7730   11.3430 C.2   412  GLN412      0.2260
    171  O         10.0830  -30.0910   12.5200 O.2   412  GLN412     -0.2867
    172  CB         8.4050  -28.3250   10.4580 C.3   412  GLN412      0.0367
    173  CG         9.2500  -27.1270   10.2290 C.3   412  GLN412      0.0905
    174  CD         8.4970  -25.9170   10.6400 C.2   412  GLN412      0.2608
    175  OE1        7.4270  -25.6150   10.0570 O.2   412  GLN412     -0.2717
    176  NE2        8.9870  -25.2140   11.6220 N.am  412  GLN412     -0.0878
    177  N         14.5900  -28.4690   12.1700 N.3   414  LYS414     -0.1245
    178  CA        15.6870  -27.5870   11.8960 C.3   414  LYS414      0.1561
    179  C         16.9140  -28.4320   11.5750 C.2   414  LYS414      0.2260
    180  O         17.2630  -29.3340   12.3430 O.2   414  LYS414     -0.2867
    181  CB        15.9300  -26.6810   13.1320 C.3   414  LYS414      0.0271
    182  CG        14.7990  -25.6940   13.4430 C.3   414  LYS414      0.0035
    183  CD        14.5760  -24.7390   12.2720 C.3   414  LYS414      0.0206
    184  CE        13.5770  -23.6160   12.5570 C.3   414  LYS414      0.1093
    185  NZ        14.2850  -22.3550   12.9910 N.3   414  LYS414     -0.1314
    186  N         15.0500  -23.9710    8.6440 N.3   419  ARG419     -0.1245
    187  CA        13.6880  -24.5110    8.6760 C.3   419  ARG419      0.1563
    188  C         13.4050  -25.4310    7.4730 C.2   419  ARG419      0.2260
    189  O         13.4630  -25.0030    6.3230 O.2   419  ARG419     -0.2867
    190  CB        12.6820  -23.3570    8.7490 C.3   419  ARG419      0.0307
    191  CG        11.2290  -23.7870    8.7820 C.3   419  ARG419      0.0489
    192  CD        10.3340  -22.6460    9.2300 C.3   419  ARG419      0.2205
    193  NE         8.9570  -22.8040    8.7310 N.pl3 419  ARG419     -0.0865
    194  CZ         7.9420  -22.0070    9.0780 C.cat 419  ARG419      0.5346
    195  NH1        8.1130  -21.0120    9.9540 N.pl3 419  ARG419      0.1354
    196  NH2        6.7240  -22.2150    8.5780 N.pl3 419  ARG419      0.1354
@<TRIPOS>BOND
     1     4     3    1
     2     1     2    1
     3     3     2    1
     4     2     5    1
     5     6     5    1
     6     5     7    1
     7     8     9    1
     8   189   188    2
     9    16    14   ar
    10    16    18   ar
    11    14    13   ar
    12     9    10    1
    13     9    12    1
    14   188   187    1
    15    11    10    2
    16    18    17   ar
    17    10    19   am
    18    13    12    1
    19    13    15   ar
    20   113   111    1
    21    19    20    1
    22   196   194    1
    23   186   187    1
    24   187   190    1
    25   193   194    2
    26   193   192    1
    27   190   191    1
    28   191   192    1
    29    17    15   ar
    30    20    23    1
    31    20    21    1
    32   194   195    1
    33    23    24    1
    34   111   112    1
    35   111   108    1
    36   175   174    2
    37    21    22    2
    38    21    27   am
    39   173   172    1
    40   173   174    1
    41   169   172    1
    42   169   168    1
    43   169   170    1
    44   110   109    2
    45    24    26   ar
    46    24    25   ar
    47   174   176   am
    48   109   108    1
    49    27    28    1
    50   108   107    1
    51    29    28    1
    52    29    30    2
    53   170   171    2
    54   179   178    1
    55   179   180    2
    56    28    31    1
    57   107   102   am
    58   178   177    1
    59   178   181    1
    60   121   119    1
    61   119   118    1
    62   183   184    1
    63   183   182    1
    64    31    33    1
    65    31    32    1
    66   184   185    1
    67   167   165    1
    68   102   103    2
    69   102   101    1
    70   181   182    1
    71   114   115    1
    72   118   115    1
    73   118   120    1
    74   104   101    1
    75   104   105    1
    76   115   116    1
    77   165   164    2
    78   165   166    1
    79   101   100    1
    80   164   163    1
    81   133   132    2
    82    50    48   ar
    83   105   106    1
    84   132   131    1
    85   163   162    1
    86   116   117    2
    87    99    98    2
    88   100    98   am
    89   100   106    1
    90   131   130    1
    91   131   134    1
    92    41    40    2
    93   162   161    1
    94    48    49   ar
    95    48    47    1
    96    98    97    1
    97   161   158    1
    98    39    40    1
    99    39    38    1
   100    40    42   am
   101   134   136    1
   102   134   135    1
   103    37    36    2
   104    47    46    1
   105    46    43    1
   106    97    96    1
   107   159   158    1
   108   159   160    2
   109   143   142   ar
   110    38    36   am
   111    42    43    1
   112   158   157    1
   113   144   142   ar
   114   137   138    1
   115    36    35    1
   116    43    44    1
   117   142   141    1
   118    96    86   am
   119   156   155    1
   120   138   141    1
   121   138   139    1
   122    35    34    1
   123    95    94    1
   124    44    51   am
   125    44    45    2
   126    86    87    2
   127    86    85    1
   128    92    94   ar
   129    92    90   ar
   130   155   153   ar
   131   155   154   ar
   132    94    93   ar
   133    51    52    1
   134   153   151   ar
   135   139   140    2
   136    90    89   ar
   137    82    81    1
   138    80    79    2
   139    85    84    1
   140    85    88    1
   141    93    91   ar
   142   154   152   ar
   143    89    91   ar
   144    89    88    1
   145    81    83    1
   146    81    78    1
   147    79    84   am
   148    79    78    1
   149   151   150   ar
   150    52    55    1
   151    52    53    1
   152    54    53    2
   153    55    56    1
   154    53    62   am
   155    78    77    1
   156   152   150   ar
   157   150   149    1
   158    77    71   am
   159    56    57    1
   160    62    63    1
   161    57    58    1
   162    75    74    2
   163    63    66    1
   164    63    64    1
   165   149   146    1
   166   129   127    1
   167    71    70    1
   168    71    72    2
   169   128   126    1
   170    60    59    1
   171    66    68    1
   172    66    67    1
   173    58    59    2
   174    74    76   am
   175    74    73    1
   176    64    65    2
   177    70    73    1
   178    70    69    1
   179   146   147    1
   180   146   145    1
   181   147   148    2
   182    59    61    1
   183   126   127    1
   184   126   123    1
   185   125   124    2
   186   123   124    1
   187   123   122    1
