@<TRIPOS>MOLECULE
tmp/4d5bA07.pdb
 118 116 0 0 0
SMALL
GASTEIGER

@<TRIPOS>ATOM
      1  N        159.8670    0.8190   16.1580 N.3   219  PHE219     -0.1241
      2  CA       159.7430   -0.3300   15.2700 C.3   219  PHE219      0.1605
      3  C        159.0900    0.0960   13.9670 C.2   219  PHE219      0.2264
      4  O        158.1280    0.8650   13.9780 O.2   219  PHE219     -0.2867
      5  CB       158.9240   -1.4380   15.9300 C.3   219  PHE219      0.0534
      6  CG       159.5890   -2.0640   17.1310 C.ar  219  PHE219     -0.0203
      7  CD1      159.3710   -1.5620   18.3980 C.ar  219  PHE219     -0.0042
      8  CD2      160.3990   -3.1850   16.9860 C.ar  219  PHE219     -0.0042
      9  CE1      159.9780   -2.1420   19.5120 C.ar  219  PHE219     -0.0003
     10  CE2      161.0030   -3.7730   18.0940 C.ar  219  PHE219     -0.0003
     11  CZ       160.7930   -3.2580   19.3480 C.ar  219  PHE219     -0.0000
     12  N        157.1910   -1.5810   11.8300 N.3   221  ASP221     -0.1225
     13  CA       155.8040   -1.9640   11.5940 C.3   221  ASP221      0.1805
     14  C        154.8710   -1.5900   12.7390 C.2   221  ASP221      0.2597
     15  O        153.7150   -2.0180   12.7560 O.2   221  ASP221     -0.2718
     16  CB       155.7150   -3.4600   11.3220 C.3   221  ASP221      0.1424
     17  CG       156.6380   -3.8920   10.2140 C.2   221  ASP221      0.3668
     18  OD1      156.2890   -3.6730    9.0350 O.co2 221  ASP221     -0.2456
     19  OD2      157.7180   -4.4340   10.5270 O.co2 221  ASP221     -0.2456
     20  N        155.3530   -0.7820   13.6800 N.am  222  ALA222     -0.1979
     21  CA       154.5370   -0.4780   14.8510 C.3   222  ALA222      0.1597
     22  C        155.0020    0.7250   15.6750 C.2   222  ALA222      0.2287
     23  O        155.2940    1.7930   15.1350 O.2   222  ALA222     -0.2864
     24  CB       154.4560   -1.7050   15.7330 C.3   222  ALA222      0.0319
     25  N        159.1620    1.8500   21.7040 N.3   225  LEU225     -0.1245
     26  CA       159.4930    1.3240   23.0270 C.3   225  LEU225      0.1561
     27  C        160.5430    2.2090   23.6870 C.2   225  LEU225      0.2260
     28  O        161.5170    2.5950   23.0360 O.2   225  LEU225     -0.2867
     29  CB       160.0100   -0.1120   22.8770 C.3   225  LEU225      0.0270
     30  CG       160.4830   -0.8160   24.1460 C.3   225  LEU225      0.0019
     31  CD1      159.3130   -1.0510   25.0860 C.3   225  LEU225      0.0001
     32  CD2      161.1410   -2.1430   23.7440 C.3   225  LEU225      0.0001
     33  N        159.6610    1.9520   31.9750 N.3   260  VAL260     -0.1231
     34  CA       159.5850    1.3470   30.6510 C.3   260  VAL260      0.1692
     35  C        158.1910    1.5900   30.0980 C.2   260  VAL260      0.2593
     36  O        157.1840    1.4690   30.8080 O.2   260  VAL260     -0.2718
     37  CB       159.9100   -0.1670   30.6670 C.3   260  VAL260      0.0266
     38  CG1      158.9740   -0.9090   31.5890 C.3   260  VAL260      0.0020
     39  CG2      159.8450   -0.7430   29.2550 C.3   260  VAL260      0.0020
     40  N        158.1270    1.9760   28.8280 N.am  261  GLY261     -0.1942
     41  CA       156.8500    2.3160   28.2470 C.3   261  GLY261      0.2014
     42  C        156.7890    1.9880   26.7710 C.2   261  GLY261      0.2638
     43  O        157.8010    1.7130   26.1390 O.2   261  GLY261     -0.2714
     44  N        155.5820    2.0080   26.2300 N.am  262  TYR262     -0.1973
     45  CA       155.3900    1.7070   24.8160 C.3   262  TYR262      0.1639
     46  C        154.2170    2.5140   24.3110 C.2   262  TYR262      0.2290
     47  O        153.1790    2.5910   24.9710 O.2   262  TYR262     -0.2864
     48  CB       155.1630    0.2100   24.6170 C.3   262  TYR262      0.0560
     49  CG       154.9350   -0.1910   23.1820 C.ar  262  TYR262     -0.0198
     50  CD1      155.9950   -0.2560   22.2830 C.ar  262  TYR262     -0.0009
     51  CD2      153.6630   -0.5080   22.7260 C.ar  262  TYR262     -0.0009
     52  CE1      155.7880   -0.6240   20.9570 C.ar  262  TYR262      0.0417
     53  CE2      153.4440   -0.8750   21.4060 C.ar  262  TYR262      0.0417
     54  CZ       154.5120   -0.9330   20.5290 C.ar  262  TYR262      0.1957
     55  OH       154.2940   -1.2960   19.2210 O.3   262  TYR262     -0.2866
     56  N        151.9230    3.3290   20.6370 N.3   264  GLN264     -0.1245
     57  CA       151.6880    2.8970   19.2630 C.3   264  GLN264      0.1566
     58  C        150.4380    3.5100   18.6570 C.2   264  GLN264      0.2260
     59  O        149.3970    3.6080   19.3180 O.2   264  GLN264     -0.2867
     60  CB       151.5790    1.3770   19.1990 C.3   264  GLN264      0.0367
     61  CG       151.5080    0.8430   17.7730 C.3   264  GLN264      0.0905
     62  CD       151.1530   -0.6170   17.7400 C.2   264  GLN264      0.2608
     63  OE1      151.8100   -1.4370   18.3820 O.2   264  GLN264     -0.2717
     64  NE2      150.0990   -0.9560   17.0010 N.am  264  GLN264     -0.0878
     65  N        151.2730    2.7560   27.2030 N.3   274  ALA274     -0.1231
     66  CA       151.2780    2.1480   28.5280 C.3   274  ALA274      0.1694
     67  C        152.6600    2.3010   29.1080 C.2   274  ALA274      0.2592
     68  O        153.6520    2.2180   28.3830 O.2   274  ALA274     -0.2718
     69  CB       150.8770    0.6740   28.4540 C.3   274  ALA274      0.0304
     70  N        152.7360    2.5140   30.4170 N.am  275  GLU275     -0.1966
     71  CA       154.0170    2.7720   31.0340 C.3   275  GLU275      0.1733
     72  C        154.0640    2.2180   32.4420 C.2   275  GLU275      0.2616
     73  O        153.0620    2.2670   33.1670 O.2   275  GLU275     -0.2715
     74  CB       154.2710    4.2830   31.0510 C.3   275  GLU275      0.0429
     75  CG       155.6120    4.6860   31.5730 C.3   275  GLU275      0.1163
     76  CD       155.7470    6.2050   31.6770 C.2   275  GLU275      0.3649
     77  OE1      156.1320    6.8420   30.6790 O.co2 275  GLU275     -0.2457
     78  OE2      155.4610    6.7540   32.7600 O.co2 275  GLU275     -0.2457
     79  N        155.2220    1.6840   32.8200 N.am  276  TYR276     -0.1974
     80  CA       155.4550    1.2560   34.2010 C.3   276  TYR276      0.1639
     81  C        156.6220    2.0390   34.7730 C.2   276  TYR276      0.2290
     82  O        157.6500    2.1810   34.1110 O.2   276  TYR276     -0.2864
     83  CB       155.7560   -0.2550   34.2700 C.3   276  TYR276      0.0560
     84  CG       156.3820   -0.6410   35.5910 C.ar  276  TYR276     -0.0198
     85  CD1      155.6090   -0.7410   36.7490 C.ar  276  TYR276     -0.0009
     86  CD2      157.7520   -0.8420   35.7050 C.ar  276  TYR276     -0.0009
     87  CE1      156.1900   -1.0620   37.9790 C.ar  276  TYR276      0.0417
     88  CE2      158.3400   -1.1530   36.9360 C.ar  276  TYR276      0.0417
     89  CZ       157.5530   -1.2640   38.0660 C.ar  276  TYR276      0.1957
     90  OH       158.1520   -1.5830   39.2740 O.3   276  TYR276     -0.2866
     91  N        151.5870    2.4540   37.4090 N.3   304  PHE304     -0.1227
     92  CA       151.1100    1.9280   36.1240 C.3   304  PHE304      0.1736
     93  C        150.2500    2.9780   35.4520 C.2   304  PHE304      0.2595
     94  O        149.3700    3.5670   36.0840 O.2   304  PHE304     -0.2718
     95  CB       150.3030    0.6440   36.3300 C.3   304  PHE304      0.0547
     96  CG       150.9600   -0.3320   37.2680 C.ar  304  PHE304     -0.0202
     97  CD1      150.8780   -0.1550   38.6490 C.ar  304  PHE304     -0.0042
     98  CD2      151.6650   -1.4160   36.7800 C.ar  304  PHE304     -0.0042
     99  CE1      151.4940   -1.0390   39.5200 C.ar  304  PHE304     -0.0003
    100  CE2      152.2740   -2.3110   37.6470 C.ar  304  PHE304     -0.0003
    101  CZ       152.1870   -2.1180   39.0160 C.ar  304  PHE304     -0.0000
    102  N        150.5090    3.2280   34.1790 N.am  305  TYR305     -0.1962
    103  CA       149.8230    4.2920   33.4620 C.3   305  TYR305      0.1771
    104  C        149.3590    3.7850   32.1090 C.2   305  TYR305      0.2619
    105  O        150.1140    3.1070   31.4280 O.2   305  TYR305     -0.2715
    106  CB       150.7690    5.4810   33.2880 C.3   305  TYR305      0.0574
    107  CG       150.2120    6.6180   32.4760 C.ar  305  TYR305     -0.0198
    108  CD1      149.3380    7.5310   33.0490 C.ar  305  TYR305     -0.0009
    109  CD2      150.5860    6.8070   31.1490 C.ar  305  TYR305     -0.0009
    110  CE1      148.8420    8.5910   32.3360 C.ar  305  TYR305      0.0417
    111  CE2      150.0840    7.8840   30.4150 C.ar  305  TYR305      0.0417
    112  CZ       149.2160    8.7660   31.0210 C.ar  305  TYR305      0.1957
    113  OH       148.7010    9.8350   30.3250 O.3   305  TYR305     -0.2866
    114  N        148.1180    4.0940   31.7360 N.am  306  ALA306     -0.1977
    115  CA       147.6110    3.7450   30.4110 C.3   306  ALA306      0.1597
    116  C        146.8130    4.9200   29.8590 C.2   306  ALA306      0.2287
    117  O        146.0610    5.5760   30.5960 O.2   306  ALA306     -0.2864
    118  CB       146.7560    2.4900   30.4750 C.3   306  ALA306      0.0319
@<TRIPOS>BOND
     1    18    17   ar
     2    17    19   ar
     3    17    16    1
     4    16    13    1
     5    13    12    1
     6    13    14    1
     7    14    15    2
     8    14    20   am
     9    20    21    1
    10     3     4    2
    11     3     2    1
    12    21    22    1
    13    21    24    1
    14    23    22    2
    15     2     5    1
    16     2     1    1
    17     5     6    1
    18     8     6   ar
    19     8    10   ar
    20    64    62   am
    21     6     7   ar
    22    62    61    1
    23    62    63    2
    24    61    60    1
    25    10    11   ar
    26     7     9   ar
    27    58    57    1
    28    58    59    2
    29    60    57    1
    30    55    54    1
    31    57    56    1
    32    11     9   ar
    33    54    52   ar
    34    54    53   ar
    35    52    50   ar
    36    53    51   ar
    37    25    26    1
    38    50    49   ar
    39    51    49   ar
    40    29    26    1
    41    29    30    1
    42    26    27    1
    43    28    27    2
    44    49    48    1
    45    32    30    1
    46    30    31    1
    47    46    45    1
    48    46    47    2
    49    48    45    1
    50    45    44    1
    51    43    42    2
    52    44    42   am
    53    42    41    1
    54    65    66    1
    55    41    40    1
    56    68    67    2
    57    69    66    1
    58    66    67    1
    59    40    35   am
    60    67    70   am
    61    39    37    1
    62   116   115    1
    63   116   117    2
    64    35    34    1
    65    35    36    2
    66   113   112    1
    67   115   118    1
    68   115   114    1
    69   111   112   ar
    70   111   109   ar
    71    70    71    1
    72    34    37    1
    73    34    33    1
    74    37    38    1
    75    77    76   ar
    76   112   110   ar
    77    71    74    1
    78    71    72    1
    79    74    75    1
    80   109   107   ar
    81   105   104    2
    82    75    76    1
    83    76    78   ar
    84   114   104   am
    85   104   103    1
    86   110   108   ar
    87    72    79   am
    88    72    73    2
    89   107   108   ar
    90   107   106    1
    91    79    80    1
    92   106   103    1
    93   103   102    1
    94    82    81    2
    95   102    93   am
    96    80    83    1
    97    80    81    1
    98    83    84    1
    99    93    94    2
   100    93    92    1
   101    84    86   ar
   102    84    85   ar
   103    86    88   ar
   104    92    95    1
   105    92    91    1
   106    95    96    1
   107    85    87   ar
   108    98    96   ar
   109    98   100   ar
   110    88    89   ar
   111    96    97   ar
   112   100   101   ar
   113    87    89   ar
   114    89    90    1
   115    97    99   ar
   116   101    99   ar
