@<TRIPOS>MOLECULE
tmp/4d5bA09.pdb
 80 79 0 0 0
SMALL
GASTEIGER

@<TRIPOS>ATOM
      1  N        162.2760   29.0970   20.4350 N.3    96  THR96      -0.1218
      2  CA       162.1550   29.5130   21.8260 C.3    96  THR96       0.1862
      3  C        160.6970   29.7050   22.1410 C.2    96  THR96       0.2287
      4  O        159.8420   29.5550   21.2750 O.2    96  THR96      -0.2866
      5  CB       162.9520   30.8100   22.1070 C.3    96  THR96       0.1770
      6  OG1      162.9750   31.0770   23.5140 O.3    96  THR96      -0.2211
      7  CG2      162.3440   32.0310   21.3590 C.3    96  THR96       0.0375
      8  N        160.3240   29.7030   30.5050 N.3   128  PRO128     -0.2102
      9  CA       160.9550   30.0650   29.2350 C.3   128  PRO128      0.1504
     10  C        161.8030   28.8960   28.7520 C.2   128  PRO128      0.2576
     11  O        162.4820   28.2330   29.5480 O.2   128  PRO128     -0.2718
     12  CB       161.8180   31.2790   29.5880 C.3   128  PRO128      0.0282
     13  CG       162.0410   31.1970   31.0410 C.3   128  PRO128      0.0208
     14  CD       160.9030   30.4130   31.6570 C.3   128  PRO128      0.0893
     15  N        161.7490   28.6190   27.4600 N.am  129  TYR129     -0.1963
     16  CA       162.5010   27.4880   26.9450 C.3   129  TYR129      0.1771
     17  C        163.2390   27.8290   25.6640 C.2   129  TYR129      0.2619
     18  O        162.9290   28.8080   24.9770 O.2   129  TYR129     -0.2715
     19  CB       161.5830   26.2900   26.7200 C.3   129  TYR129      0.0574
     20  CG       160.5160   26.4850   25.6710 C.ar  129  TYR129     -0.0198
     21  CD1      160.7750   26.2010   24.3260 C.ar  129  TYR129     -0.0009
     22  CD2      159.2380   26.9020   26.0200 C.ar  129  TYR129     -0.0009
     23  CE1      159.7870   26.3610   23.3590 C.ar  129  TYR129      0.0417
     24  CE2      158.2410   27.0640   25.0480 C.ar  129  TYR129      0.0417
     25  CZ       158.5260   26.7870   23.7280 C.ar  129  TYR129      0.1957
     26  OH       157.5460   26.9350   22.7680 O.3   129  TYR129     -0.2866
     27  N        164.2360   27.0040   25.3710 N.am  130  LEU130     -0.1977
     28  CA       165.0790   27.1550   24.2000 C.3   130  LEU130      0.1596
     29  C        165.3650   25.7710   23.6340 C.2   130  LEU130      0.2287
     30  O        165.8480   24.8800   24.3580 O.2   130  LEU130     -0.2864
     31  CB       166.3800   27.8700   24.5620 C.3   130  LEU130      0.0297
     32  CG       167.4040   27.9920   23.4300 C.3   130  LEU130      0.0022
     33  CD1      166.8900   28.8980   22.3200 C.3   130  LEU130      0.0001
     34  CD2      168.7070   28.5250   23.9810 C.3   130  LEU130      0.0001
     35  N        165.8500   22.7030   26.3970 N.3   143  SER143     -0.1202
     36  CA       166.2850   23.3010   27.6500 C.3   143  SER143      0.2020
     37  C        165.2300   24.2790   28.1340 C.2   143  SER143      0.2619
     38  O        164.5110   24.8680   27.3350 O.2   143  SER143     -0.2717
     39  CB       167.6320   24.0170   27.4850 C.3   143  SER143      0.2103
     40  OG       167.4940   25.1770   26.6630 O.3   143  SER143     -0.2182
     41  N        165.1130   24.4340   29.4470 N.am  144  ASN144     -0.1960
     42  CA       164.2210   25.4560   29.9690 C.3   144  ASN144      0.1819
     43  C        164.6610   25.9220   31.3480 C.2   144  ASN144      0.2621
     44  O        165.4420   25.2640   32.0350 O.2   144  ASN144     -0.2715
     45  CB       162.7700   24.9510   30.0290 C.3   144  ASN144      0.1195
     46  CG       162.5640   23.8510   31.0690 C.2   144  ASN144      0.2630
     47  OD1      162.7270   22.6680   30.7710 O.2   144  ASN144     -0.2716
     48  ND2      162.2040   24.2400   32.2920 N.am  144  ASN144     -0.0877
     49  N        164.1520   27.0780   31.7250 N.am  145  LEU145     -0.1977
     50  CA       164.1850   27.5190   33.1130 C.3   145  LEU145      0.1596
     51  C        162.7680   27.4560   33.6510 C.2   145  LEU145      0.2287
     52  O        161.8140   27.2970   32.8880 O.2   145  LEU145     -0.2864
     53  CB       164.7370   28.9390   33.2150 C.3   145  LEU145      0.0297
     54  CG       166.1770   29.0700   32.7120 C.3   145  LEU145      0.0022
     55  CD1      166.5780   30.5390   32.7180 C.3   145  LEU145      0.0001
     56  CD2      167.1160   28.2300   33.5720 C.3   145  LEU145      0.0001
     57  N        166.0080   24.2830   36.4300 N.3   167  ALA167     -0.1231
     58  CA       166.6500   24.3690   35.1330 C.3   167  ALA167      0.1694
     59  C        166.7770   22.9550   34.6110 C.2   167  ALA167      0.2592
     60  O        167.0550   22.0190   35.3760 O.2   167  ALA167     -0.2718
     61  CB       168.0080   25.0370   35.2340 C.3   167  ALA167      0.0304
     62  N        166.5350   22.7920   33.3170 N.am  168  LEU168     -0.1966
     63  CA       166.6020   21.4750   32.7090 C.3   168  LEU168      0.1728
     64  C        167.3320   21.5690   31.3810 C.2   168  LEU168      0.2616
     65  O        167.1120   22.5000   30.6030 O.2   168  LEU168     -0.2715
     66  CB       165.1970   20.8950   32.5210 C.3   168  LEU168      0.0311
     67  CG       165.0830   19.4920   31.9260 C.3   168  LEU168      0.0022
     68  CD1      163.8280   18.8140   32.4960 C.3   168  LEU168      0.0001
     69  CD2      165.0190   19.5540   30.4100 C.3   168  LEU168      0.0001
     70  N        168.2090   20.6020   31.1350 N.am  169  PHE169     -0.1974
     71  CA       168.9350   20.5340   29.8620 C.3   169  PHE169      0.1639
     72  C        168.9170   19.0860   29.3880 C.2   169  PHE169      0.2290
     73  O        169.3240   18.1910   30.1270 O.2   169  PHE169     -0.2864
     74  CB       170.3660   21.0440   30.0340 C.3   169  PHE169      0.0560
     75  CG       171.2410   20.8390   28.8290 C.ar  169  PHE169     -0.0200
     76  CD1      170.9530   21.4780   27.6350 C.ar  169  PHE169     -0.0042
     77  CD2      172.3630   20.0350   28.9030 C.ar  169  PHE169     -0.0042
     78  CE1      171.7690   21.3150   26.5190 C.ar  169  PHE169     -0.0003
     79  CE2      173.1810   19.8640   27.7880 C.ar  169  PHE169     -0.0003
     80  CZ       172.8770   20.5020   26.6010 C.ar  169  PHE169     -0.0000
@<TRIPOS>BOND
     1     1     2    1
     2     4     3    2
     3     7     5    1
     4     2     5    1
     5     2     3    1
     6     5     6    1
     7    33    32    1
     8    26    25    1
     9    23    25   ar
    10    23    21   ar
    11    32    34    1
    12    32    31    1
    13    29    28    1
    14    29    30    2
    15    25    24   ar
    16    28    31    1
    17    28    27    1
    18    21    20   ar
    19    18    17    2
    20    24    22   ar
    21    27    17   am
    22    17    16    1
    23    20    22   ar
    24    20    19    1
    25    35    36    1
    26    78    80   ar
    27    78    76   ar
    28    80    79   ar
    29    40    39    1
    30    19    16    1
    31    16    15    1
    32    38    37    2
    33    15    10   am
    34    39    36    1
    35    76    75   ar
    36    36    37    1
    37    79    77   ar
    38    37    41   am
    39    10     9    1
    40    10    11    2
    41    75    77   ar
    42    75    74    1
    43     9    12    1
    44     9     8    1
    45    72    71    1
    46    72    73    2
    47    41    42    1
    48    12    13    1
    49    71    74    1
    50    71    70    1
    51    42    45    1
    52    42    43    1
    53    45    46    1
    54    69    67    1
    55     8    14    1
    56    65    64    2
    57    47    46    2
    58    13    14    1
    59    46    48   am
    60    70    64   am
    61    43    49   am
    62    43    44    2
    63    64    63    1
    64    49    50    1
    65    67    68    1
    66    67    66    1
    67    66    63    1
    68    63    62    1
    69    54    55    1
    70    54    53    1
    71    54    56    1
    72    52    51    2
    73    50    53    1
    74    50    51    1
    75    62    59   am
    76    59    58    1
    77    59    60    2
    78    58    61    1
    79    58    57    1
