@<TRIPOS>MOLECULE
tmp/4d5bB07.pdb
 96 93 0 0 0
SMALL
GASTEIGER

@<TRIPOS>ATOM
      1  N        105.6900   17.5610   22.2250 N.3   226  VAL226     -0.1231
      2  CA       105.2060   17.5030   20.8570 C.3   226  VAL226      0.1692
      3  C        105.2670   18.9060   20.2630 C.2   226  VAL226      0.2592
      4  O        104.7590   19.8530   20.8650 O.2   226  VAL226     -0.2718
      5  CB       103.7690   16.9620   20.7850 C.3   226  VAL226      0.0266
      6  CG1      103.2380   17.0420   19.3690 C.3   226  VAL226      0.0020
      7  CG2      103.7300   15.5240   21.2890 C.3   226  VAL226      0.0020
      8  N        105.8870   19.0380   19.0920 N.am  227  ARG227     -0.1966
      9  CA       106.0010   20.3430   18.4410 C.3   227  ARG227      0.1729
     10  C        105.1920   20.4270   17.1640 C.2   227  ARG227      0.2616
     11  O        105.2390   19.5260   16.3250 O.2   227  ARG227     -0.2715
     12  CB       107.4600   20.6640   18.1170 C.3   227  ARG227      0.0348
     13  CG       107.6390   22.0520   17.4880 C.3   227  ARG227      0.0492
     14  CD       109.0960   22.3170   17.1150 C.3   227  ARG227      0.2205
     15  NE       109.9750   22.3720   18.2850 N.pl3 227  ARG227     -0.0865
     16  CZ       111.2790   22.6470   18.2180 C.cat 227  ARG227      0.5346
     17  NH1      111.8440   22.8980   17.0380 N.pl3 227  ARG227      0.1354
     18  NH2      112.0150   22.6640   19.3220 N.pl3 227  ARG227      0.1354
     19  N        104.4530   21.5230   17.0150 N.am  228  VAL228     -0.1977
     20  CA       103.8240   21.8500   15.7380 C.3   228  VAL228      0.1596
     21  C        104.3540   23.2120   15.3150 C.2   228  VAL228      0.2287
     22  O        104.2700   24.1780   16.0750 O.2   228  VAL228     -0.2864
     23  CB       102.2920   21.8750   15.8340 C.3   228  VAL228      0.0276
     24  CG1      101.6860   22.4050   14.5440 C.3   228  VAL228      0.0022
     25  CG2      101.7610   20.4830   16.1480 C.3   228  VAL228      0.0022
     26  N        106.3700   18.8540   12.2560 N.3   253  ARG253     -0.1231
     27  CA       105.7980   18.0940   13.3740 C.3   253  ARG253      0.1694
     28  C        106.8960   17.2840   14.0460 C.2   253  ARG253      0.2592
     29  O        107.6540   16.5860   13.3720 O.2   253  ARG253     -0.2718
     30  CB       104.6860   17.1410   12.9130 C.3   253  ARG253      0.0321
     31  CG       103.5300   17.7930   12.1630 C.3   253  ARG253      0.0489
     32  CD       102.5890   18.5370   13.0850 C.3   253  ARG253      0.2205
     33  NE       101.3280   18.8660   12.4170 N.pl3 253  ARG253     -0.0865
     34  CZ       101.1560   19.9080   11.6070 C.cat 253  ARG253      0.5346
     35  NH1      102.1660   20.7340   11.3520 N.pl3 253  ARG253      0.1354
     36  NH2       99.9720   20.1250   11.0490 N.pl3 253  ARG253      0.1354
     37  N        106.9990   17.3720   15.3690 N.am  254  LYS254     -0.1966
     38  CA       107.9560   16.5300   16.0820 C.3   254  LYS254      0.1728
     39  C        107.3330   15.9280   17.3320 C.2   254  LYS254      0.2616
     40  O        106.4320   16.5110   17.9310 O.2   254  LYS254     -0.2715
     41  CB       109.2050   17.3160   16.4980 C.3   254  LYS254      0.0311
     42  CG       109.7930   18.2130   15.4110 C.3   254  LYS254      0.0038
     43  CD       111.1320   18.7860   15.8600 C.3   254  LYS254      0.0206
     44  CE       111.6590   19.8060   14.8410 C.3   254  LYS254      0.1093
     45  NZ       113.0360   20.2670   15.1980 N.3   254  LYS254     -0.1314
     46  N        107.8390   14.7680   17.7330 N.am  255  ALA255     -0.1963
     47  CA       107.4560   14.1950   19.0170 C.3   255  ALA255      0.1728
     48  C        108.6640   13.5750   19.6840 C.2   255  ALA255      0.2617
     49  O        109.4370   12.8640   19.0430 O.2   255  ALA255     -0.2715
     50  CB       106.3480   13.1660   18.8360 C.3   255  ALA255      0.0334
     51  N        108.8020   13.8260   20.9850 N.am  256  THR256     -0.1937
     52  CA       109.9480   13.3600   21.7530 C.3   256  THR256      0.2028
     53  C        109.4930   12.6420   23.0000 C.2   256  THR256      0.2642
     54  O        108.5220   13.0580   23.6170 O.2   256  THR256     -0.2714
     55  CB       110.8390   14.5540   22.1580 C.3   256  THR256      0.1808
     56  OG1      111.3120   15.2050   20.9730 O.3   256  THR256     -0.2208
     57  CG2      112.0220   14.1080   22.9880 C.3   256  THR256      0.0379
     58  N        110.1760   11.5570   23.3580 N.am  257  VAL257     -0.1977
     59  CA       109.9750   10.9320   24.6580 C.3   257  VAL257      0.1596
     60  C        111.3460   10.6870   25.2660 C.2   257  VAL257      0.2287
     61  O        112.2960   10.3200   24.5730 O.2   257  VAL257     -0.2864
     62  CB       109.1570    9.6120   24.5670 C.3   257  VAL257      0.0276
     63  CG1      109.8630    8.5690   23.6990 C.3   257  VAL257      0.0022
     64  CG2      108.8810    9.0600   25.9560 C.3   257  VAL257      0.0022
     65  N        114.3250    9.9270   22.6290 N.3   273  TYR273     -0.1241
     66  CA       114.0540    9.6130   21.2340 C.3   273  TYR273      0.1605
     67  C        113.1850   10.7140   20.6380 C.2   273  TYR273      0.2264
     68  O        112.2130   11.1290   21.2670 O.2   273  TYR273     -0.2867
     69  CB       113.3580    8.2510   21.0940 C.3   273  TYR273      0.0534
     70  CG       112.7240    8.0820   19.7320 C.ar  273  TYR273     -0.0201
     71  CD1      113.4970    7.7890   18.6130 C.ar  273  TYR273     -0.0009
     72  CD2      111.3580    8.2640   19.5530 C.ar  273  TYR273     -0.0009
     73  CE1      112.9270    7.6760   17.3550 C.ar  273  TYR273      0.0417
     74  CE2      110.7720    8.1450   18.2940 C.ar  273  TYR273      0.0417
     75  CZ       111.5590    7.8390   17.2010 C.ar  273  TYR273      0.1957
     76  OH       110.9650    7.7140   15.9600 O.3   273  TYR273     -0.2866
     77  N        111.0990   11.8080   16.9870 N.3   275  TYR275     -0.1241
     78  CA       110.6240   11.6430   15.6260 C.3   275  TYR275      0.1605
     79  C        110.3110   13.0200   15.0540 C.2   275  TYR275      0.2264
     80  O        109.6480   13.8240   15.7250 O.2   275  TYR275     -0.2867
     81  CB       109.3700   10.7800   15.6060 C.3   275  TYR275      0.0534
     82  CG       108.6960   10.7600   14.2660 C.ar  275  TYR275     -0.0201
     83  CD1      109.1010    9.8750   13.2840 C.ar  275  TYR275     -0.0009
     84  CD2      107.6630   11.6450   13.9820 C.ar  275  TYR275     -0.0009
     85  CE1      108.4760    9.8590   12.0410 C.ar  275  TYR275      0.0417
     86  CE2      107.0440   11.6420   12.7540 C.ar  275  TYR275      0.0417
     87  CZ       107.4550   10.7450   11.7940 C.ar  275  TYR275      0.1957
     88  OH       106.8250   10.7510   10.5680 O.3   275  TYR275     -0.2866
     89  N        109.0200   15.1230   11.2980 N.3   277  ASN277     -0.1240
     90  CA       108.5510   15.0760    9.9200 C.3   277  ASN277      0.1653
     91  C        108.3180   16.5050    9.4540 C.2   277  ASN277      0.2266
     92  O        107.6050   17.2660   10.1100 O.2   277  ASN277     -0.2867
     93  CB       107.2780   14.2330    9.8270 C.3   277  ASN277      0.1155
     94  CG       106.7300   14.1400    8.4180 C.2   277  ASN277      0.2627
     95  OD1      105.6400   14.6270    8.1410 O.2   277  ASN277     -0.2716
     96  ND2      107.4800   13.5140    7.5240 N.am  277  ASN277     -0.0877
@<TRIPOS>BOND
     1    96    94   am
     2    95    94    2
     3    94    93    1
     4    91    90    1
     5    91    92    2
     6    93    90    1
     7    90    89    1
     8    88    87    1
     9    36    34    1
    10    35    34    1
    11    34    33    2
    12    87    85   ar
    13    87    86   ar
    14    85    83   ar
    15    31    30    1
    16    31    32    1
    17    26    27    1
    18    33    32    1
    19    86    84   ar
    20    30    27    1
    21    83    82   ar
    22    29    28    2
    23    27    28    1
    24    84    82   ar
    25    28    37   am
    26    82    81    1
    27    24    23    1
    28    44    45    1
    29    44    43    1
    30    79    78    1
    31    79    80    2
    32    21    20    1
    33    21    22    2
    34    37    38    1
    35    42    43    1
    36    42    41    1
    37    81    78    1
    38    78    77    1
    39    20    23    1
    40    20    19    1
    41    23    25    1
    42    76    75    1
    43    38    41    1
    44    38    39    1
    45    11    10    2
    46    19    10   am
    47    17    16    1
    48    14    13    1
    49    14    15    1
    50    10     9    1
    51    75    73   ar
    52    75    74   ar
    53    39    46   am
    54    39    40    2
    55    73    71   ar
    56    13    12    1
    57    46    47    1
    58    12     9    1
    59    16    15    2
    60    16    18    1
    61    74    72   ar
    62     9     8    1
    63    71    70   ar
    64    50    47    1
    65    47    48    1
    66    49    48    2
    67     8     3   am
    68     6     5    1
    69    72    70   ar
    70    48    51   am
    71    70    69    1
    72     3     2    1
    73     3     4    2
    74    67    66    1
    75    67    68    2
    76     5     2    1
    77     5     7    1
    78     2     1    1
    79    56    55    1
    80    51    52    1
    81    69    66    1
    82    66    65    1
    83    52    55    1
    84    52    53    1
    85    55    57    1
    86    53    58   am
    87    53    54    2
    88    58    59    1
    89    63    62    1
    90    62    59    1
    91    62    64    1
    92    61    60    2
    93    59    60    1
