@<TRIPOS>MOLECULE
tmp/4d5bB01.pdb
 80 79 0 0 0
SMALL
GASTEIGER

@<TRIPOS>ATOM
      1  N        116.7070   37.3320   36.3060 N.3    93  THR93      -0.1218
      2  CA       117.0540   37.7140   34.9510 C.3    93  THR93       0.1862
      3  C        118.5030   37.3380   34.7290 C.2    93  THR93       0.2287
      4  O        119.1440   36.7780   35.6140 O.2    93  THR93      -0.2866
      5  CB       116.8210   39.2120   34.7250 C.3    93  THR93       0.1770
      6  OG1      117.0080   39.5310   33.3450 O.3    93  THR93      -0.2211
      7  CG2      117.7700   40.0530   35.5940 C.3    93  THR93       0.0375
      8  N        119.3730   37.4730   26.4470 N.3   125  PRO125     -0.2102
      9  CA       118.8710   37.9700   27.7310 C.3   125  PRO125      0.1504
     10  C        117.6330   37.1840   28.1060 C.2   125  PRO125      0.2576
     11  O        116.8540   36.8520   27.2120 O.2   125  PRO125     -0.2718
     12  CB       118.5410   39.4370   27.4520 C.3   125  PRO125      0.0282
     13  CG       118.3760   39.5300   25.9690 C.3   125  PRO125      0.0208
     14  CD       119.1970   38.4340   25.3440 C.3   125  PRO125      0.0893
     15  N        117.4470   36.8870   29.3870 N.am  126  TYR126     -0.1963
     16  CA       116.3080   36.0680   29.7830 C.3   126  TYR126      0.1771
     17  C        115.6380   36.5960   31.0320 C.2   126  TYR126      0.2619
     18  O        116.2060   37.4070   31.7690 O.2   126  TYR126     -0.2715
     19  CB       116.7340   34.5970   29.9850 C.3   126  TYR126      0.0574
     20  CG       117.7490   34.3610   31.0840 C.ar  126  TYR126     -0.0198
     21  CD1      117.3400   34.1530   32.4050 C.ar  126  TYR126     -0.0009
     22  CD2      119.1120   34.3250   30.8040 C.ar  126  TYR126     -0.0009
     23  CE1      118.2700   33.9460   33.4200 C.ar  126  TYR126      0.0417
     24  CE2      120.0440   34.1060   31.8040 C.ar  126  TYR126      0.0417
     25  CZ       119.6140   33.9150   33.1140 C.ar  126  TYR126      0.1957
     26  OH       120.5350   33.6990   34.1130 O.3   126  TYR126     -0.2866
     27  N        114.4130   36.1370   31.2590 N.am  127  LEU127     -0.1977
     28  CA       113.6240   36.5970   32.3960 C.3   127  LEU127      0.1596
     29  C        112.8140   35.4200   32.8800 C.2   127  LEU127      0.2287
     30  O        112.1210   34.7870   32.0900 O.2   127  LEU127     -0.2864
     31  CB       112.7090   37.7610   32.0000 C.3   127  LEU127      0.0297
     32  CG       111.7650   38.2970   33.0800 C.3   127  LEU127      0.0022
     33  CD1      112.5450   39.0280   34.1600 C.3   127  LEU127      0.0001
     34  CD2      110.7410   39.2310   32.4360 C.3   127  LEU127      0.0001
     35  N        111.4490   32.8170   29.8770 N.3   140  SER140     -0.1202
     36  CA       111.3430   33.6120   28.6550 C.3   140  SER140      0.2020
     37  C        112.7120   34.1340   28.2740 C.2   140  SER140      0.2619
     38  O        113.5640   34.3620   29.1430 O.2   140  SER140     -0.2717
     39  CB       110.3650   34.7750   28.8380 C.3   140  SER140      0.2103
     40  OG       110.9260   35.7830   29.6670 O.3   140  SER140     -0.2182
     41  N        112.9460   34.3190   26.9800 N.am  141  ASN141     -0.1960
     42  CA       114.1960   34.9310   26.5620 C.3   141  ASN141      0.1819
     43  C        114.0610   35.5490   25.1900 C.2   141  ASN141      0.2621
     44  O        113.1370   35.2250   24.4430 O.2   141  ASN141     -0.2715
     45  CB       115.3470   33.9150   26.5570 C.3   141  ASN141      0.1195
     46  CG       115.2350   32.9000   25.4320 C.2   141  ASN141      0.2630
     47  OD1      114.6370   31.8390   25.6110 O.2   141  ASN141     -0.2716
     48  ND2      115.8180   33.2160   24.2630 N.am  141  ASN141     -0.0877
     49  N        114.9770   36.4630   24.8920 N.am  142  LEU142     -0.1977
     50  CA       115.1810   36.9610   23.5380 C.3   142  LEU142      0.1596
     51  C        116.4990   36.3970   23.0530 C.2   142  LEU142      0.2287
     52  O        117.2790   35.8690   23.8430 O.2   142  LEU142     -0.2864
     53  CB       115.2100   38.4890   23.5020 C.3   142  LEU142      0.0297
     54  CG       113.9550   39.1400   24.0710 C.3   142  LEU142      0.0022
     55  CD1      114.1150   40.6480   24.0630 C.3   142  LEU142      0.0001
     56  CD2      112.7340   38.7100   23.2670 C.3   142  LEU142      0.0001
     57  N        112.3870   34.8740   19.9450 N.3   164  ALA164     -0.1231
     58  CA       111.7780   35.1200   21.2400 C.3   164  ALA164      0.1694
     59  C        111.1330   33.8250   21.6750 C.2   164  ALA164      0.2592
     60  O        110.5460   33.1140   20.8560 O.2   164  ALA164     -0.2718
     61  CB       110.7580   36.2300   21.1730 C.3   164  ALA164      0.0304
     62  N        111.2430   33.5260   22.9620 N.am  165  LEU165     -0.1966
     63  CA       110.6990   32.2860   23.4930 C.3   165  LEU165      0.1728
     64  C        109.9700   32.5790   24.7890 C.2   165  LEU165      0.2616
     65  O        110.4620   33.3400   25.6290 O.2   165  LEU165     -0.2715
     66  CB       111.8180   31.2740   23.7090 C.3   165  LEU165      0.0311
     67  CG       111.3860   29.8930   24.1990 C.3   165  LEU165      0.0022
     68  CD1      112.3220   28.8380   23.6090 C.3   165  LEU165      0.0001
     69  CD2      111.4400   29.8540   25.7090 C.3   165  LEU165      0.0001
     70  N        108.7890   31.9870   24.9360 N.am  166  PHE166     -0.1974
     71  CA       108.0020   32.1150   26.1550 C.3   166  PHE166      0.1639
     72  C        107.4750   30.7350   26.5420 C.2   166  PHE166      0.2290
     73  O        106.7810   30.0820   25.7550 O.2   166  PHE166     -0.2864
     74  CB       106.8620   33.1130   25.9370 C.3   166  PHE166      0.0560
     75  CG       105.8810   33.2000   27.0760 C.ar  166  PHE166     -0.0200
     76  CD1      106.2940   33.5850   28.3390 C.ar  166  PHE166     -0.0042
     77  CD2      104.5480   32.9260   26.8690 C.ar  166  PHE166     -0.0042
     78  CE1      105.3850   33.6860   29.3790 C.ar  166  PHE166     -0.0003
     79  CE2      103.6360   33.0200   27.9030 C.ar  166  PHE166     -0.0003
     80  CZ       104.0600   33.3970   29.1620 C.ar  166  PHE166     -0.0000
@<TRIPOS>BOND
     1    57    58    1
     2    60    59    2
     3    61    58    1
     4    58    59    1
     5    59    62   am
     6    62    63    1
     7    51    50    1
     8    51    52    2
     9    56    54    1
    10    63    66    1
    11    63    64    1
    12    53    50    1
    13    53    54    1
    14    50    49    1
    15    68    67    1
    16    66    67    1
    17    55    54    1
    18    67    69    1
    19    48    46   am
    20    44    43    2
    21    64    70   am
    22    64    65    2
    23    49    43   am
    24    70    71    1
    25    43    42    1
    26    14    13    1
    27    14     8    1
    28    46    47    2
    29    46    45    1
    30    73    72    2
    31    74    71    1
    32    74    75    1
    33    13    12    1
    34    71    72    1
    35     8     9    1
    36    45    42    1
    37    42    41    1
    38    77    75   ar
    39    77    79   ar
    40    41    37   am
    41    75    76   ar
    42    11    10    2
    43    12     9    1
    44     9    10    1
    45    79    80   ar
    46    10    15   am
    47    37    36    1
    48    37    38    2
    49    76    78   ar
    50    36    39    1
    51    36    35    1
    52    39    40    1
    53    80    78   ar
    54    15    16    1
    55    16    19    1
    56    16    17    1
    57    19    20    1
    58    22    20   ar
    59    22    24   ar
    60    17    27   am
    61    17    18    2
    62    20    21   ar
    63    27    28    1
    64    24    25   ar
    65    31    28    1
    66    31    32    1
    67    30    29    2
    68    28    29    1
    69    21    23   ar
    70    34    32    1
    71    32    33    1
    72    25    23   ar
    73    25    26    1
    74     6     5    1
    75     5     2    1
    76     5     7    1
    77     3     2    1
    78     3     4    2
    79     2     1    1
