@<TRIPOS>MOLECULE
tmp/4d5bB12.pdb
 85 81 0 0 0
SMALL
GASTEIGER

@<TRIPOS>ATOM
      1  N        110.9270    7.9080   44.0280 N.3   218  ASP218     -0.1225
      2  CA       112.0810    7.0170   44.1160 C.3   218  ASP218      0.1805
      3  C        112.5540    6.5110   42.7520 C.2   218  ASP218      0.2597
      4  O        113.1130    5.4190   42.6520 O.2   218  ASP218     -0.2718
      5  CB       111.7630    5.8270   45.0310 C.3   218  ASP218      0.1424
      6  CG       111.2170    6.2590   46.3820 C.2   218  ASP218      0.3668
      7  OD1      111.7720    7.2060   46.9780 O.co2 218  ASP218     -0.2456
      8  OD2      110.2230    5.6560   46.8410 O.co2 218  ASP218     -0.2456
      9  N        112.3270    7.3000   41.7040 N.am  219  ALA219     -0.1979
     10  CA       112.9140    7.0120   40.4000 C.3   219  ALA219      0.1597
     11  C        113.1130    8.3150   39.6300 C.2   219  ALA219      0.2287
     12  O        113.2670    9.3760   40.2310 O.2   219  ALA219     -0.2864
     13  CB       112.0460    6.0390   39.6130 C.3   219  ALA219      0.0319
     14  N        113.7150    9.9700   29.2550 N.3   259  TYR259     -0.1241
     15  CA       113.7200    9.5810   30.6570 C.3   259  TYR259      0.1605
     16  C        115.0650    9.9570   31.2440 C.2   259  TYR259      0.2264
     17  O        116.1050    9.7240   30.6200 O.2   259  TYR259     -0.2867
     18  CB       113.4430    8.0770   30.8070 C.3   259  TYR259      0.0534
     19  CG       113.4470    7.5950   32.2470 C.ar  259  TYR259     -0.0201
     20  CD1      112.4080    7.9160   33.1120 C.ar  259  TYR259     -0.0009
     21  CD2      114.4840    6.8110   32.7330 C.ar  259  TYR259     -0.0009
     22  CE1      112.4130    7.4790   34.4420 C.ar  259  TYR259      0.0417
     23  CE2      114.4960    6.3590   34.0600 C.ar  259  TYR259      0.0417
     24  CZ       113.4570    6.6950   34.9020 C.ar  259  TYR259      0.1957
     25  OH       113.4730    6.2630   36.2150 O.3   259  TYR259     -0.2866
     26  N        117.3400    9.9940   35.0440 N.3   261  GLN261     -0.1231
     27  CA       117.3090    9.4830   36.3960 C.3   261  GLN261      0.1698
     28  C        118.6560    9.5620   37.0730 C.2   261  GLN261      0.2593
     29  O        119.6880    9.3050   36.4590 O.2   261  GLN261     -0.2718
     30  CB       116.8220    8.0400   36.3950 C.3   261  GLN261      0.0381
     31  CG       116.5500    7.5120   37.7800 C.3   261  GLN261      0.0905
     32  CD       116.6420    6.0130   37.8450 C.2   261  GLN261      0.2608
     33  OE1      117.4930    5.4670   38.5510 O.2   261  GLN261     -0.2717
     34  NE2      115.7660    5.3360   37.1310 N.am  261  GLN261     -0.0878
     35  N        118.6350    9.9240   38.3510 N.am  262  SER262     -0.1938
     36  CA       119.8370    9.8750   39.1640 C.3   262  SER262      0.2055
     37  C        120.1840    8.4210   39.4550 C.2   262  SER262      0.2643
     38  O        119.2950    7.5710   39.6060 O.2   262  SER262     -0.2714
     39  CB       119.6530   10.6510   40.4690 C.3   262  SER262      0.2130
     40  OG       118.7180   10.0060   41.3140 O.3   262  SER262     -0.2179
     41  N        121.4770    8.1330   39.5180 N.am  263  ILE263     -0.1963
     42  CA       121.9250    6.7820   39.8190 C.3   263  ILE263      0.1727
     43  C        122.9590    6.8600   40.9280 C.2   263  ILE263      0.2616
     44  O        124.0380    7.4070   40.7370 O.2   263  ILE263     -0.2715
     45  CB       122.5120    6.0880   38.5790 C.3   263  ILE263      0.0290
     46  CG1      121.4850    6.0580   37.4430 C.3   263  ILE263      0.0022
     47  CG2      122.9330    4.6720   38.9300 C.3   263  ILE263      0.0023
     48  CD1      122.0420    5.5850   36.1250 C.3   263  ILE263      0.0001
     49  N        122.6220    6.3270   42.0980 N.am  264  GLY264     -0.1955
     50  CA       123.4600    6.5170   43.2710 C.3   264  GLY264      0.1869
     51  C        123.5180    7.9980   43.5960 C.2   264  GLY264      0.2309
     52  O        122.6140    8.7550   43.2220 O.2   264  GLY264     -0.2863
     53  N        121.7340    9.8710   34.4490 N.3   269  ALA269     -0.1231
     54  CA       121.6960    9.3820   33.0760 C.3   269  ALA269      0.1694
     55  C        120.3990    9.7650   32.3900 C.2   269  ALA269      0.2592
     56  O        119.3640    9.9200   33.0300 O.2   269  ALA269     -0.2718
     57  CB       121.8750    7.8620   33.0490 C.3   269  ALA269      0.0304
     58  N        120.4540    9.8970   31.0710 N.am  270  LYS270     -0.1966
     59  CA       119.3000   10.3440   30.2990 C.3   270  LYS270      0.1728
     60  C        119.2890    9.6670   28.9400 C.2   270  LYS270      0.2616
     61  O        120.3420    9.4640   28.3370 O.2   270  LYS270     -0.2715
     62  CB       119.3510   11.8710   30.1380 C.3   270  LYS270      0.0311
     63  CG       118.3270   12.4930   29.2350 C.3   270  LYS270      0.0038
     64  CD       118.5810   14.0110   29.1900 C.3   270  LYS270      0.0206
     65  CE       117.9590   14.6640   27.9790 C.3   270  LYS270      0.1093
     66  NZ       118.2800   16.1280   27.9540 N.3   270  LYS270     -0.1314
     67  N        118.1000    9.3060   28.4680 N.am  271  ALA271     -0.1977
     68  CA       117.9350    8.8070   27.1040 C.3   271  ALA271      0.1597
     69  C        116.7150    9.4520   26.4830 C.2   271  ALA271      0.2287
     70  O        115.7220    9.6990   27.1660 O.2   271  ALA271     -0.2864
     71  CB       117.7980    7.2890   27.0850 C.3   271  ALA271      0.0319
     72  N        121.7210    9.6680   24.1730 N.3   303  ALA303     -0.1231
     73  CA       121.9850    9.1190   25.4970 C.3   303  ALA303      0.1694
     74  C        123.1330    9.8580   26.1520 C.2   303  ALA303      0.2591
     75  O        124.1270   10.1800   25.5070 O.2   303  ALA303     -0.2718
     76  CB       122.2890    7.6360   25.4110 C.3   303  ALA303      0.0304
     77  N        123.0030   10.1070   27.4510 N.am  304  GLN304     -0.1979
     78  CA       124.0270   10.8540   28.1730 C.3   304  GLN304      0.1601
     79  C        124.2150   10.3060   29.5880 C.2   304  GLN304      0.2287
     80  O        123.2930    9.7450   30.1810 O.2   304  GLN304     -0.2864
     81  CB       123.6420   12.3410   28.1760 C.3   304  GLN304      0.0394
     82  CG       123.6840   13.0790   29.4610 C.3   304  GLN304      0.0908
     83  CD       122.9950   14.4330   29.3420 C.2   304  GLN304      0.2608
     84  OE1      123.2310   15.1790   28.3890 O.2   304  GLN304     -0.2717
     85  NE2      122.1330   14.7420   30.2940 N.am  304  GLN304     -0.0878
@<TRIPOS>BOND
     1    72    73    1
     2    76    73    1
     3    73    74    1
     4    75    74    2
     5    74    77   am
     6    69    68    1
     7    69    70    2
     8    71    68    1
     9    68    67    1
    10    77    78    1
    11    66    65    1
    12    65    64    1
    13    78    81    1
    14    78    79    1
    15    81    82    1
    16    61    60    2
    17    84    83    2
    18    67    60   am
    19    60    59    1
    20    64    63    1
    21    63    62    1
    22    14    15    1
    23    83    82    1
    24    83    85   am
    25    79    80    2
    26    62    59    1
    27    59    58    1
    28    17    16    2
    29    15    18    1
    30    15    16    1
    31    18    19    1
    32    58    55   am
    33    19    21   ar
    34    19    20   ar
    35    55    56    2
    36    55    54    1
    37    21    23   ar
    38    57    54    1
    39    54    53    1
    40    20    22   ar
    41    23    24   ar
    42    22    24   ar
    43    24    25    1
    44    26    27    1
    45    48    46    1
    46    30    27    1
    47    30    31    1
    48    27    28    1
    49    29    28    2
    50    28    35   am
    51    34    32   am
    52    46    45    1
    53    31    32    1
    54    32    33    2
    55    35    36    1
    56    45    47    1
    57    45    42    1
    58    36    37    1
    59    36    39    1
    60    37    41   am
    61    37    38    2
    62    41    42    1
    63    13    10    1
    64    11    12    2
    65    11    10    1
    66    42    43    1
    67    10     9    1
    68    39    40    1
    69    44    43    2
    70    43    49   am
    71     9     3   am
    72    49    50    1
    73     4     3    2
    74     3     2    1
    75    52    51    2
    76    50    51    1
    77     1     2    1
    78     2     5    1
    79     5     6    1
    80     6     8   ar
    81     6     7   ar
