@<TRIPOS>MOLECULE
tmp/4d5bA13.pdb
 89 87 0 0 0
SMALL
GASTEIGER

@<TRIPOS>ATOM
      1  N        153.4090   29.4680   24.0580 N.3    86  LYS86      -0.1231
      2  CA       153.5900   30.3130   22.8840 C.3    86  LYS86       0.1693
      3  C        155.0130   30.1790   22.4160 C.2    86  LYS86       0.2593
      4  O        155.9570   30.5160   23.1400 O.2    86  LYS86      -0.2718
      5  CB       153.2650   31.7710   23.1870 C.3    86  LYS86       0.0285
      6  CG       153.5260   32.7150   22.0110 C.3    86  LYS86       0.0035
      7  CD       152.5270   32.4930   20.8800 C.3    86  LYS86       0.0206
      8  CE       152.8070   33.4000   19.6800 C.3    86  LYS86       0.1093
      9  NZ       153.8970   32.8830   18.7960 N.3    86  LYS86      -0.1314
     10  N        155.1740   29.6750   21.2020 N.am   87  GLY87      -0.1942
     11  CA       156.4980   29.4050   20.7050 C.3    87  GLY87       0.2014
     12  C        156.8820   30.3270   19.5850 C.2    87  GLY87       0.2638
     13  O        156.0580   31.0600   19.0310 O.2    87  GLY87      -0.2714
     14  N        158.1580   30.2890   19.2500 N.am   88  HIS88      -0.1973
     15  CA       158.6340   31.0770   18.1560 C.3    88  HIS88       0.1656
     16  C        159.7870   30.4100   17.4390 C.2    88  HIS88       0.2291
     17  O        160.8180   30.1060   18.0460 O.2    88  HIS88      -0.2864
     18  CB       159.0490   32.4500   18.6410 C.3    88  HIS88       0.0771
     19  CG       159.1320   33.4410   17.5370 C.ar   88  HIS88       0.0820
     20  ND1      158.0310   33.8080   16.7950 N.ar   88  HIS88      -0.2267
     21  CD2      160.1860   34.0920   17.0010 C.ar   88  HIS88       0.1154
     22  CE1      158.4020   34.6660   15.8640 C.ar   88  HIS88       0.1986
     23  NE2      159.7040   34.8580   15.9680 N.ar   88  HIS88      -0.2212
     24  N        162.2760   29.0970   20.4350 N.3    96  THR96      -0.1203
     25  CA       162.1550   29.5130   21.8260 C.3    96  THR96       0.1994
     26  C        160.6970   29.7050   22.1410 C.2    96  THR96       0.2618
     27  O        159.8420   29.5550   21.2750 O.2    96  THR96      -0.2717
     28  CB       162.9520   30.8100   22.1070 C.3    96  THR96       0.1784
     29  OG1      162.9750   31.0770   23.5140 O.3    96  THR96      -0.2211
     30  CG2      162.3440   32.0310   21.3590 C.3    96  THR96       0.0376
     31  N        160.3930   30.0050   23.3940 N.am   97  GLY97      -0.1942
     32  CA       159.0170   30.2610   23.7270 C.3    97  GLY97       0.2014
     33  C        158.8200   30.3550   25.2170 C.2    97  GLY97       0.2638
     34  O        159.7870   30.3430   25.9840 O.2    97  GLY97      -0.2714
     35  N        157.5570   30.4490   25.6110 N.am   98  LEU98      -0.1977
     36  CA       157.2020   30.5430   27.0190 C.3    98  LEU98       0.1596
     37  C        156.0250   29.6440   27.3210 C.2    98  LEU98       0.2287
     38  O        155.0140   29.6600   26.6120 O.2    98  LEU98      -0.2864
     39  CB       156.8600   31.9820   27.3900 C.3    98  LEU98       0.0297
     40  CG       156.5670   32.2510   28.8650 C.3    98  LEU98       0.0022
     41  CD1      157.8110   31.9890   29.6890 C.3    98  LEU98       0.0001
     42  CD2      156.0980   33.7080   29.0270 C.3    98  LEU98       0.0001
     43  N        153.2140   28.7280   30.2730 N.3   100  TYR100     -0.1241
     44  CA       152.5600   29.1480   31.5020 C.3   100  TYR100      0.1605
     45  C        151.5750   28.0600   31.8730 C.2   100  TYR100      0.2264
     46  O        150.6700   27.7500   31.0940 O.2   100  TYR100     -0.2867
     47  CB       151.8470   30.4840   31.3200 C.3   100  TYR100      0.0534
     48  CG       151.2290   31.0430   32.5830 C.ar  100  TYR100     -0.0201
     49  CD1      151.7480   30.7270   33.8370 C.ar  100  TYR100     -0.0009
     50  CD2      150.1260   31.8860   32.5260 C.ar  100  TYR100     -0.0009
     51  CE1      151.1880   31.2430   34.9970 C.ar  100  TYR100      0.0417
     52  CE2      149.5600   32.4080   33.6810 C.ar  100  TYR100      0.0417
     53  CZ       150.0960   32.0830   34.9110 C.ar  100  TYR100      0.1957
     54  OH       149.5350   32.5960   36.0580 O.3   100  TYR100     -0.2866
     55  N        156.0480   28.8880   35.3960 N.3   126  ILE126     -0.1245
     56  CA       156.3910   29.7170   34.2350 C.3   126  ILE126      0.1561
     57  C        157.7360   29.2790   33.6930 C.2   126  ILE126      0.2260
     58  O        158.7410   29.2940   34.4170 O.2   126  ILE126     -0.2867
     59  CB       156.4300   31.2160   34.6030 C.3   126  ILE126      0.0252
     60  CG1      155.0410   31.6800   35.0100 C.3   126  ILE126      0.0019
     61  CG2      156.9080   32.0510   33.3970 C.3   126  ILE126      0.0019
     62  CD1      155.0290   33.0180   35.7190 C.3   126  ILE126      0.0001
     63  N        160.3240   29.7030   30.5050 N.3   128  PRO128     -0.2102
     64  CA       160.9550   30.0650   29.2350 C.3   128  PRO128      0.1504
     65  C        161.8030   28.8960   28.7520 C.2   128  PRO128      0.2575
     66  O        162.4820   28.2330   29.5480 O.2   128  PRO128     -0.2718
     67  CB       161.8180   31.2790   29.5880 C.3   128  PRO128      0.0282
     68  CG       162.0410   31.1970   31.0410 C.3   128  PRO128      0.0208
     69  CD       160.9030   30.4130   31.6570 C.3   128  PRO128      0.0893
     70  N        161.7490   28.6190   27.4600 N.am  129  TYR129     -0.1977
     71  CA       162.5010   27.4880   26.9450 C.3   129  TYR129      0.1639
     72  C        163.2390   27.8290   25.6640 C.2   129  TYR129      0.2290
     73  O        162.9290   28.8080   24.9770 O.2   129  TYR129     -0.2864
     74  CB       161.5830   26.2900   26.7200 C.3   129  TYR129      0.0560
     75  CG       160.5160   26.4850   25.6710 C.ar  129  TYR129     -0.0198
     76  CD1      160.7750   26.2010   24.3260 C.ar  129  TYR129     -0.0009
     77  CD2      159.2380   26.9020   26.0200 C.ar  129  TYR129     -0.0009
     78  CE1      159.7870   26.3610   23.3590 C.ar  129  TYR129      0.0417
     79  CE2      158.2410   27.0640   25.0480 C.ar  129  TYR129      0.0417
     80  CZ       158.5260   26.7870   23.7280 C.ar  129  TYR129      0.1957
     81  OH       157.5460   26.9350   22.7680 O.3   129  TYR129     -0.2866
     82  N        164.1520   27.0780   31.7250 N.3   145  LEU145     -0.1245
     83  CA       164.1850   27.5190   33.1130 C.3   145  LEU145      0.1561
     84  C        162.7680   27.4560   33.6510 C.2   145  LEU145      0.2260
     85  O        161.8140   27.2970   32.8880 O.2   145  LEU145     -0.2867
     86  CB       164.7370   28.9390   33.2150 C.3   145  LEU145      0.0270
     87  CG       166.1770   29.0700   32.7120 C.3   145  LEU145      0.0019
     88  CD1      166.5780   30.5390   32.7180 C.3   145  LEU145      0.0001
     89  CD2      167.1160   28.2300   33.5720 C.3   145  LEU145      0.0001
@<TRIPOS>BOND
     1    22    23   ar
     2    22    20   ar
     3    23    21   ar
     4    20    19   ar
     5    21    19   ar
     6    16    17    2
     7    16    15    1
     8    19    18    1
     9    15    18    1
    10    15    14    1
    11     9     8    1
    12    13    12    2
    13    14    12   am
    14    12    11    1
    15     8     7    1
    16    24    25    1
    17    11    10    1
    18     7     6    1
    19    10     3   am
    20    27    26    2
    21    30    28    1
    22    25    28    1
    23    25    26    1
    24     6     5    1
    25    28    29    1
    26    26    31   am
    27     3     2    1
    28     3     4    2
    29    81    80    1
    30     2     5    1
    31     2     1    1
    32    78    80   ar
    33    78    76   ar
    34    31    32    1
    35    32    33    1
    36    80    79   ar
    37    76    75   ar
    38    73    72    2
    39    79    77   ar
    40    33    35   am
    41    33    34    2
    42    35    36    1
    43    72    71    1
    44    75    77   ar
    45    75    74    1
    46    38    37    2
    47    74    71    1
    48    71    70    1
    49    36    37    1
    50    36    39    1
    51    39    40    1
    52    70    65   am
    53    65    64    1
    54    65    66    2
    55    40    42    1
    56    40    41    1
    57    64    67    1
    58    64    63    1
    59    67    68    1
    60    43    44    1
    61    63    69    1
    62    68    69    1
    63    46    45    2
    64    47    44    1
    65    47    48    1
    66    44    45    1
    67    82    83    1
    68    50    48   ar
    69    50    52   ar
    70    48    49   ar
    71    87    88    1
    72    87    86    1
    73    87    89    1
    74    85    84    2
    75    83    86    1
    76    83    84    1
    77    61    59    1
    78    52    53   ar
    79    57    56    1
    80    57    58    2
    81    49    51   ar
    82    56    59    1
    83    56    55    1
    84    59    60    1
    85    53    51   ar
    86    53    54    1
    87    60    62    1
