@<TRIPOS>MOLECULE
tmp/4d5bA05.pdb
 237 217 0 0 0
SMALL
GASTEIGER

@<TRIPOS>ATOM
      1  N        144.7490   16.5450   19.9400 N.3    12  HIS12      -0.1241
      2  CA       144.1120   15.2900   20.3130 C.3    12  HIS12       0.1621
      3  C        143.2020   15.4830   21.5110 C.2    12  HIS12       0.2264
      4  O        143.3210   16.4650   22.2320 O.2    12  HIS12      -0.2867
      5  CB       145.1580   14.1950   20.6140 C.3    12  HIS12       0.0745
      6  CG       145.9370   14.4050   21.8800 C.ar   12  HIS12       0.0817
      7  ND1      147.3000   14.5950   21.8880 N.ar   12  HIS12      -0.2268
      8  CD2      145.5500   14.4430   23.1840 C.ar   12  HIS12       0.1154
      9  CE1      147.7250   14.7320   23.1320 C.ar   12  HIS12       0.1986
     10  NE2      146.6770   14.6530   23.9360 N.ar   12  HIS12      -0.2212
     11  N        141.9220   10.3510   34.5090 N.3    40  GLU40      -0.1245
     12  CA       141.9180   11.5440   33.6830 C.3    40  GLU40       0.1567
     13  C        140.7530   11.4220   32.7200 C.2    40  GLU40       0.2260
     14  O        140.8320   10.7340   31.7020 O.2    40  GLU40      -0.2867
     15  CB       143.2430   11.7160   32.9530 C.3    40  GLU40       0.0388
     16  CG       143.3080   12.9730   32.1160 C.3    40  GLU40       0.1160
     17  CD       144.6930   13.1840   31.5110 C.2    40  GLU40       0.3649
     18  OE1      145.3180   12.1890   31.0800 O.co2  40  GLU40      -0.2457
     19  OE2      145.1650   14.3410   31.4850 O.co2  40  GLU40      -0.2457
     20  N        141.4680   14.8790   28.4590 N.3    43  ASN43      -0.1240
     21  CA       142.5040   15.8450   28.1990 C.3    43  ASN43       0.1653
     22  C        142.3680   16.3080   26.7660 C.2    43  ASN43       0.2266
     23  O        141.7800   15.6220   25.9110 O.2    43  ASN43      -0.2867
     24  CB       143.8920   15.2970   28.4930 C.3    43  ASN43       0.1155
     25  CG       144.2720   14.1560   27.6010 C.2    43  ASN43       0.2627
     26  OD1      144.4060   14.3210   26.3900 O.2    43  ASN43      -0.2716
     27  ND2      144.4750   12.9890   28.1890 N.am   43  ASN43      -0.0877
     28  N        144.6970   18.3880   23.8850 N.3    45  PHE45      -0.1241
     29  CA       145.8910   19.0410   23.3680 C.3    45  PHE45       0.1605
     30  C        145.5130   19.8030   22.1100 C.2    45  PHE45       0.2264
     31  O        144.9240   19.2390   21.1920 O.2    45  PHE45      -0.2867
     32  CB       146.9950   18.0170   23.0610 C.3    45  PHE45       0.0534
     33  CG       148.1750   18.5970   22.3300 C.ar   45  PHE45      -0.0203
     34  CD1      148.9770   19.5530   22.9360 C.ar   45  PHE45      -0.0042
     35  CD2      148.4940   18.1720   21.0460 C.ar   45  PHE45      -0.0042
     36  CE1      150.0660   20.0930   22.2740 C.ar   45  PHE45      -0.0003
     37  CE2      149.5810   18.7060   20.3820 C.ar   45  PHE45      -0.0003
     38  CZ       150.3710   19.6720   21.0050 C.ar   45  PHE45      -0.0000
     39  N        146.8490   22.3960   19.0530 N.3    47  ASN47      -0.1240
     40  CA       148.0510   22.8430   18.3750 C.3    47  ASN47       0.1653
     41  C        147.6900   23.6800   17.1550 C.2    47  ASN47       0.2266
     42  O        147.0930   23.1890   16.2140 O.2    47  ASN47      -0.2867
     43  CB       148.9100   21.6380   17.9760 C.3    47  ASN47       0.1155
     44  CG       150.1770   22.0320   17.2510 C.2    47  ASN47       0.2627
     45  OD1      150.6870   23.1360   17.4210 O.2    47  ASN47      -0.2716
     46  ND2      150.6950   21.1210   16.4350 N.am   47  ASN47      -0.0877
     47  N        150.4360   26.2690   21.4060 N.3    54  MET54      -0.1245
     48  CA       149.9440   24.9780   21.8510 C.3    54  MET54       0.1570
     49  C        149.2410   25.1790   23.1930 C.2    54  MET54       0.2261
     50  O        149.6990   25.9630   24.0280 O.2    54  MET54      -0.2867
     51  CB       151.0830   23.9540   21.9960 C.3    54  MET54       0.0387
     52  CG       151.8150   23.5660   20.7010 C.3    54  MET54       0.0595
     53  SD       153.0890   22.3080   21.0610 S.3    54  MET54      -0.1393
     54  CE       153.7940   22.0820   19.4310 C.3    54  MET54       0.0692
     55  N        146.9200   23.0250   26.4730 N.3    56  PHE56      -0.1241
     56  CA       146.5600   21.7370   27.0260 C.3    56  PHE56       0.1605
     57  C        145.6100   21.9270   28.1870 C.2    56  PHE56       0.2264
     58  O        145.7950   22.8290   29.0030 O.2    56  PHE56      -0.2867
     59  CB       147.8130   20.9740   27.4850 C.3    56  PHE56       0.0534
     60  CG       147.5340   19.5690   27.9300 C.ar   56  PHE56      -0.0203
     61  CD1      147.1550   18.6020   27.0110 C.ar   56  PHE56      -0.0042
     62  CD2      147.6370   19.2120   29.2710 C.ar   56  PHE56      -0.0042
     63  CE1      146.8840   17.2990   27.4230 C.ar   56  PHE56      -0.0003
     64  CE2      147.3770   17.9100   29.6790 C.ar   56  PHE56      -0.0003
     65  CZ       147.0010   16.9560   28.7560 C.ar   56  PHE56      -0.0000
     66  N        143.3930   19.4710   31.1400 N.3    58  SER58      -0.1217
     67  CA       143.1270   18.1560   31.7020 C.3    58  SER58       0.1889
     68  C        142.1890   18.2550   32.8920 C.2    58  SER58       0.2288
     69  O        142.3420   19.1480   33.7260 O.2    58  SER58      -0.2866
     70  CB       144.4410   17.4890   32.1390 C.3    58  SER58       0.2089
     71  OG       144.2050   16.2950   32.8610 O.3    58  SER58      -0.2183
     72  N        141.0640   15.7670   36.0100 N.3    60  LYS60      -0.1245
     73  CA       141.3560   14.4990   36.6970 C.3    60  LYS60       0.1561
     74  C        140.5590   14.3210   37.9910 C.2    60  LYS60       0.2260
     75  O        140.3560   15.2720   38.7390 O.2    60  LYS60      -0.2867
     76  CB       142.8520   14.3990   37.0460 C.3    60  LYS60       0.0271
     77  CG       143.7650   14.2060   35.8400 C.3    60  LYS60       0.0035
     78  CD       145.2390   14.2960   36.2710 C.3    60  LYS60       0.0206
     79  CE       146.1550   14.1410   35.0680 C.3    60  LYS60       0.1093
     80  NZ       147.5730   14.3310   35.4830 N.3    60  LYS60      -0.1314
     81  N        144.1710   21.0960   35.0470 N.3    81  LEU81      -0.1245
     82  CA       145.4110   21.6660   34.5280 C.3    81  LEU81       0.1561
     83  C        145.1350   22.5000   33.2870 C.2    81  LEU81       0.2260
     84  O        144.4200   22.0540   32.3730 O.2    81  LEU81      -0.2867
     85  CB       146.4220   20.5590   34.2010 C.3    81  LEU81       0.0270
     86  CG       147.6660   20.9930   33.4220 C.3    81  LEU81       0.0019
     87  CD1      148.5920   21.7940   34.3120 C.3    81  LEU81       0.0001
     88  CD2      148.3930   19.7670   32.8560 C.3    81  LEU81       0.0001
     89  N        147.3890   24.7270   30.4720 N.3    83  SER83      -0.1217
     90  CA       148.7550   24.9350   30.0130 C.3    83  SER83       0.1889
     91  C        148.7570   25.7000   28.6980 C.2    83  SER83       0.2288
     92  O        148.0670   25.3170   27.7500 O.2    83  SER83      -0.2866
     93  CB       149.4730   23.6040   29.8440 C.3    83  SER83       0.2089
     94  OG       150.8260   23.8160   29.4860 O.3    83  SER83      -0.2183
     95  N        151.3580   27.4450   25.7320 N.3    85  ASN85      -0.1240
     96  CA       152.7200   27.4520   25.2190 C.3    85  ASN85       0.1653
     97  C        152.7930   28.2980   23.9580 C.2    85  ASN85       0.2266
     98  O        152.2920   27.8970   22.9130 O.2    85  ASN85      -0.2867
     99  CB       153.1820   26.0150   24.9380 C.3    85  ASN85       0.1155
    100  CG       154.6080   25.9310   24.3800 C.2    85  ASN85       0.2627
    101  OD1      155.1610   26.9010   23.8730 O.2    85  ASN85      -0.2716
    102  ND2      155.1990   24.7430   24.4680 N.am   85  ASN85      -0.0877
    103  N        156.1580   28.8730   28.3900 N.3    99  ILE99      -0.1245
    104  CA       155.0750   28.0550   28.8920 C.3    99  ILE99       0.1561
    105  C        154.5320   28.6710   30.1680 C.2    99  ILE99       0.2260
    106  O        155.2980   29.1060   31.0350 O.2    99  ILE99      -0.2867
    107  CB       155.5540   26.6140   29.1800 C.3    99  ILE99       0.0252
    108  CG1      155.9050   25.9050   27.8700 C.3    99  ILE99       0.0019
    109  CG2      154.5010   25.8420   29.9720 C.3    99  ILE99       0.0019
    110  CD1      156.7920   24.6730   28.0500 C.3    99  ILE99       0.0001
    111  N        151.7640   27.4710   33.0480 N.3   101  GLU101     -0.1245
    112  CA       150.9350   26.3530   33.4830 C.3   101  GLU101      0.1567
    113  C        150.3020   26.6400   34.8310 C.2   101  GLU101      0.2260
    114  O        150.9820   27.1020   35.7520 O.2   101  GLU101     -0.2867
    115  CB       151.7730   25.0790   33.5670 C.3   101  GLU101      0.0388
    116  CG       151.2910   23.9650   32.7160 C.3   101  GLU101      0.1160
    117  CD       152.3750   22.9590   32.4150 C.2   101  GLU101      0.3649
    118  OE1      153.1150   22.5830   33.3510 O.co2 101  GLU101     -0.2457
    119  OE2      152.4780   22.5500   31.2430 O.co2 101  GLU101     -0.2457
    120  N        157.7660   28.8590   32.4220 N.3   127  ARG127     -0.1245
    121  CA       158.9600   28.2250   31.8770 C.3   127  ARG127      0.1563
    122  C        159.3640   28.7750   30.5130 C.2   127  ARG127      0.2260
    123  O        158.8470   28.3450   29.4840 O.2   127  ARG127     -0.2867
    124  CB       158.7690   26.7000   31.7660 C.3   127  ARG127      0.0307
    125  CG       158.2790   26.0690   33.0820 C.3   127  ARG127      0.0489
    126  CD       158.5480   24.5870   33.1440 C.3   127  ARG127      0.2205
    127  NE       157.8590   23.8190   32.1050 N.pl3 127  ARG127     -0.0865
    128  CZ       156.5970   23.4210   32.1830 C.cat 127  ARG127      0.5346
    129  NH1      155.8540   23.7390   33.2350 N.pl3 127  ARG127      0.1354
    130  NH2      156.0790   22.6980   31.2000 N.pl3 127  ARG127      0.1354
    131  N        161.7490   28.6190   27.4600 N.3   129  TYR129     -0.1241
    132  CA       162.5010   27.4880   26.9450 C.3   129  TYR129      0.1605
    133  C        163.2390   27.8290   25.6640 C.2   129  TYR129      0.2264
    134  O        162.9290   28.8080   24.9770 O.2   129  TYR129     -0.2867
    135  CB       161.5830   26.2900   26.7200 C.3   129  TYR129      0.0534
    136  CG       160.5160   26.4850   25.6710 C.ar  129  TYR129     -0.0201
    137  CD1      160.7750   26.2010   24.3260 C.ar  129  TYR129     -0.0009
    138  CD2      159.2380   26.9020   26.0200 C.ar  129  TYR129     -0.0009
    139  CE1      159.7870   26.3610   23.3590 C.ar  129  TYR129      0.0417
    140  CE2      158.2410   27.0640   25.0480 C.ar  129  TYR129      0.0417
    141  CZ       158.5260   26.7870   23.7280 C.ar  129  TYR129      0.1957
    142  OH       157.5460   26.9350   22.7680 O.3   129  TYR129     -0.2866
    143  N        166.6870   20.0450   24.2430 N.3   142  TYR142     -0.1241
    144  CA       165.6200   20.8130   24.8640 C.3   142  TYR142      0.1605
    145  C        166.2060   21.4560   26.1120 C.2   142  TYR142      0.2264
    146  O        166.9940   20.8330   26.8070 O.2   142  TYR142     -0.2867
    147  CB       164.4300   19.9170   25.2340 C.3   142  TYR142      0.0534
    148  CG       163.2600   20.6970   25.7690 C.ar  142  TYR142     -0.0201
    149  CD1      163.1530   21.0020   27.1290 C.ar  142  TYR142     -0.0009
    150  CD2      162.2710   21.1500   24.9120 C.ar  142  TYR142     -0.0009
    151  CE1      162.0720   21.7400   27.6080 C.ar  142  TYR142      0.0417
    152  CE2      161.1970   21.8800   25.3730 C.ar  142  TYR142      0.0417
    153  CZ       161.0970   22.1720   26.7140 C.ar  142  TYR142      0.1957
    154  OH       160.0090   22.9060   27.1380 O.3   142  TYR142     -0.2866
    155  N        165.1130   24.4340   29.4470 N.3   144  ASN144     -0.1240
    156  CA       164.2210   25.4560   29.9690 C.3   144  ASN144      0.1653
    157  C        164.6610   25.9220   31.3480 C.2   144  ASN144      0.2266
    158  O        165.4420   25.2640   32.0350 O.2   144  ASN144     -0.2867
    159  CB       162.7700   24.9510   30.0290 C.3   144  ASN144      0.1155
    160  CG       162.5640   23.8510   31.0690 C.2   144  ASN144      0.2627
    161  OD1      162.7270   22.6680   30.7710 O.2   144  ASN144     -0.2716
    162  ND2      162.2040   24.2400   32.2920 N.am  144  ASN144     -0.0877
    163  N        166.5350   22.7920   33.3170 N.3   168  LEU168     -0.1245
    164  CA       166.6020   21.4750   32.7090 C.3   168  LEU168      0.1561
    165  C        167.3320   21.5690   31.3810 C.2   168  LEU168      0.2260
    166  O        167.1120   22.5000   30.6030 O.2   168  LEU168     -0.2867
    167  CB       165.1970   20.8950   32.5210 C.3   168  LEU168      0.0270
    168  CG       165.0830   19.4920   31.9260 C.3   168  LEU168      0.0019
    169  CD1      163.8280   18.8140   32.4960 C.3   168  LEU168      0.0001
    170  CD2      165.0190   19.5540   30.4100 C.3   168  LEU168      0.0001
    171  N        168.4190   18.8530   28.1730 N.3   170  LYS170     -0.1245
    172  CA       168.2650   17.4870   27.6620 C.3   170  LYS170      0.1561
    173  C        168.7870   17.4110   26.2340 C.2   170  LYS170      0.2260
    174  O        168.0420   17.6350   25.2780 O.2   170  LYS170     -0.2867
    175  CB       166.8000   17.0450   27.7230 C.3   170  LYS170      0.0271
    176  CG       166.5880   15.5820   27.3460 C.3   170  LYS170      0.0035
    177  CD       165.1320   15.2960   27.0260 C.3   170  LYS170      0.0206
    178  CE       164.7770   15.7450   25.6170 C.3   170  LYS170      0.1093
    179  NZ       163.3270   15.5500   25.3220 N.3   170  LYS170     -0.1314
    180  N        169.5470   11.1450   17.3940 N.3   174  ARG174     -0.1245
    181  CA       168.8190   10.1010   16.6870 C.3   174  ARG174      0.1563
    182  C        169.7320    9.4080   15.6980 C.2   174  ARG174      0.2260
    183  O        170.5440   10.0550   15.0330 O.2   174  ARG174     -0.2867
    184  CB       167.6090   10.6710   15.9520 C.3   174  ARG174      0.0307
    185  CG       166.5690   11.2390   16.8680 C.3   174  ARG174      0.0489
    186  CD       165.4140   11.8410   16.1050 C.3   174  ARG174      0.2205
    187  NE       164.5250   12.5490   17.0190 N.pl3 174  ARG174     -0.0865
    188  CZ       163.7230   13.5470   16.6660 C.cat 174  ARG174      0.5346
    189  NH1      163.6910   13.9620   15.4050 N.pl3 174  ARG174      0.1354
    190  NH2      162.9540   14.1300   17.5760 N.pl3 174  ARG174      0.1354
    191  N        154.3860    3.1240   23.1410 N.3   263  GLU263     -0.1245
    192  CA       153.3260    3.9190   22.5280 C.3   263  GLU263      0.1567
    193  C        153.1640    3.4690   21.0880 C.2   263  GLU263      0.2260
    194  O        154.1510    3.2230   20.4010 O.2   263  GLU263     -0.2867
    195  CB       153.6470    5.4190   22.6000 C.3   263  GLU263      0.0388
    196  CG       152.5240    6.3060   22.0680 C.3   263  GLU263      0.1160
    197  CD       152.6900    7.7700   22.4600 C.2   263  GLU263      0.3649
    198  OE1      153.8360    8.2630   22.4370 O.co2 263  GLU263     -0.2457
    199  OE2      151.6770    8.4270   22.7950 O.co2 263  GLU263     -0.2457
    200  N        149.1170    4.2490   24.7980 N.3   273  LYS273     -0.1245
    201  CA       150.3940    4.2260   25.4950 C.3   273  LYS273      0.1561
    202  C        150.2620    3.5290   26.8380 C.2   273  LYS273      0.2260
    203  O        149.2490    3.6700   27.5290 O.2   273  LYS273     -0.2867
    204  CB       150.8980    5.6590   25.6820 C.3   273  LYS273      0.0271
    205  CG       152.0980    5.8380   26.5950 C.3   273  LYS273      0.0035
    206  CD       152.4230    7.3330   26.7040 C.3   273  LYS273      0.0206
    207  CE       153.3770    7.6300   27.8410 C.3   273  LYS273      0.1093
    208  NZ       153.5870    9.1080   27.9870 N.3   273  LYS273     -0.1314
    209  N        150.5090    3.2280   34.1790 N.3   305  TYR305     -0.1241
    210  CA       149.8230    4.2920   33.4620 C.3   305  TYR305      0.1605
    211  C        149.3590    3.7850   32.1090 C.2   305  TYR305      0.2264
    212  O        150.1140    3.1070   31.4280 O.2   305  TYR305     -0.2867
    213  CB       150.7690    5.4810   33.2880 C.3   305  TYR305      0.0534
    214  CG       150.2120    6.6180   32.4760 C.ar  305  TYR305     -0.0201
    215  CD1      149.3380    7.5310   33.0490 C.ar  305  TYR305     -0.0009
    216  CD2      150.5860    6.8070   31.1490 C.ar  305  TYR305     -0.0009
    217  CE1      148.8420    8.5910   32.3360 C.ar  305  TYR305      0.0417
    218  CE2      150.0840    7.8840   30.4150 C.ar  305  TYR305      0.0417
    219  CZ       149.2160    8.7660   31.0210 C.ar  305  TYR305      0.1957
    220  OH       148.7010    9.8350   30.3250 O.3   305  TYR305     -0.2866
    221  N        146.9770    5.1730   28.5630 N.3   307  GLN307     -0.1245
    222  CA       146.4250    6.3550   27.9110 C.3   307  GLN307      0.1566
    223  C        145.9130    6.0010   26.5250 C.2   307  GLN307      0.2260
    224  O        146.5230    5.1920   25.8280 O.2   307  GLN307     -0.2867
    225  CB       147.5150    7.4180   27.8340 C.3   307  GLN307      0.0367
    226  CG       147.2340    8.6520   27.0460 C.3   307  GLN307      0.0905
    227  CD       148.4910    9.5020   26.9530 C.2   307  GLN307      0.2608
    228  OE1      148.7740   10.2930   27.8440 O.2   307  GLN307     -0.2717
    229  NE2      149.2710    9.3030   25.9010 N.am  307  GLN307     -0.0878
    230  N        144.4480    8.1490   23.0430 N.3   309  LEU309     -0.1245
    231  CA       144.2140    9.4690   22.4530 C.3   309  LEU309      0.1561
    232  C        143.5830    9.3470   21.0850 C.2   309  LEU309      0.2260
    233  O        143.8830    8.4190   20.3370 O.2   309  LEU309     -0.2867
    234  CB       145.5170   10.2570   22.3010 C.3   309  LEU309      0.0270
    235  CG       146.4860   10.2780   23.4690 C.3   309  LEU309      0.0019
    236  CD1      147.7450   10.9950   23.0270 C.3   309  LEU309      0.0001
    237  CD2      145.8490   10.9730   24.6570 C.3   309  LEU309      0.0001
@<TRIPOS>BOND
     1   183   182    2
     2   189   188    1
     3   182   181    1
     4   184   181    1
     5   184   185    1
     6   186   185    1
     7   186   187    1
     8    42    41    2
     9    46    44   am
    10   188   187    2
    11   188   190    1
    12   181   180    1
    13    41    40    1
    14    44    45    2
    15    44    43    1
    16    43    40    1
    17    40    39    1
    18    54    53    1
    19     1     2    1
    20     2     5    1
    21     2     3    1
    22   233   232    2
    23    37    38   ar
    24    37    35   ar
    25   194   193    2
    26     5     6    1
    27    52    53    1
    28    52    51    1
    29    38    36   ar
    30    35    33   ar
    31   232   231    1
    32   193   192    1
    33    31    30    2
    34    47    48    1
    35     3     4    2
    36    48    51    1
    37    48    49    1
    38     6     7   ar
    39     6     8   ar
    40     7     9   ar
    41   196   197    1
    42   196   195    1
    43    30    29    1
    44    36    34   ar
    45   234   231    1
    46   234   235    1
    47    33    34   ar
    48    33    32    1
    49   198   197   ar
    50   231   230    1
    51   197   199   ar
    52   192   195    1
    53   192   191    1
    54   142   141    1
    55    98    97    2
    56   236   235    1
    57    32    29    1
    58     9    10   ar
    59     8    10   ar
    60    49    50    2
    61   139   141   ar
    62   139   137   ar
    63    29    28    1
    64   235   237    1
    65   141   140   ar
    66   101   100    2
    67    97    96    1
    68   143   144    1
    69   137   136   ar
    70   100   102   am
    71   100    99    1
    72   200   201    1
    73   144   147    1
    74   144   145    1
    75   150   152   ar
    76   150   148   ar
    77    99    96    1
    78   134   133    2
    79   140   138   ar
    80    96    95    1
    81   147   148    1
    82   174   173    2
    83   179   178    1
    84   152   153   ar
    85   201   204    1
    86   201   202    1
    87   178   177    1
    88   133   132    1
    89   136   138   ar
    90   136   135    1
    91   204   205    1
    92   148   149   ar
    93   224   223    2
    94   229   227   am
    95    23    22    2
    96   145   146    2
    97   173   172    1
    98    26    25    2
    99    55    56    1
   100   223   222    1
   101   205   206    1
   102   206   207    1
   103   153   154    1
   104   153   151   ar
   105   135   132    1
   106    22    21    1
   107   202   203    2
   108   132   131    1
   109   227   226    1
   110   227   228    2
   111    61    63   ar
   112    61    60   ar
   113   177   176    1
   114    56    59    1
   115    56    57    1
   116   226   225    1
   117   149   151   ar
   118   176   175    1
   119    63    65   ar
   120    59    60    1
   121    25    27   am
   122    25    24    1
   123   172   175    1
   124   172   171    1
   125    92    91    2
   126   225   222    1
   127   207   208    1
   128   108   110    1
   129   108   107    1
   130   222   221    1
   131    60    62   ar
   132    57    58    2
   133    21    20    1
   134    21    24    1
   135   103   104    1
   136    91    90    1
   137    65    64   ar
   138   104   107    1
   139   104   105    1
   140   107   109    1
   141    62    64   ar
   142   155   156    1
   143   123   122    2
   144    94    93    1
   145    93    90    1
   146   156   159    1
   147   156   157    1
   148    90    89    1
   149   159   160    1
   150   105   106    2
   151   220   219    1
   152   170   168    1
   153   218   219   ar
   154   218   216   ar
   155   122   121    1
   156   166   165    2
   157   161   160    2
   158   219   217   ar
   159   160   162   am
   160    18    17   ar
   161    66    67    1
   162   216   214   ar
   163   130   128    1
   164   119   117   ar
   165   157   158    2
   166   165   164    1
   167   212   211    2
   168    19    17   ar
   169    17    16    1
   170    14    13    2
   171    67    70    1
   172    67    68    1
   173   124   121    1
   174   124   125    1
   175   121   120    1
   176   168   169    1
   177   168   167    1
   178   127   128    2
   179   127   126    1
   180   211   210    1
   181    16    15    1
   182    70    71    1
   183   128   129    1
   184   217   215   ar
   185    84    83    2
   186   117   116    1
   187   117   118   ar
   188   214   215   ar
   189   214   213    1
   190   167   164    1
   191   164   163    1
   192   116   115    1
   193    13    12    1
   194    88    86    1
   195    68    69    2
   196    15    12    1
   197   111   112    1
   198   125   126    1
   199    83    82    1
   200   213   210    1
   201    86    85    1
   202    86    87    1
   203   210   209    1
   204   112   115    1
   205   112   113    1
   206    12    11    1
   207    85    82    1
   208    82    81    1
   209   113   114    2
   210    79    80    1
   211    79    78    1
   212    77    78    1
   213    77    76    1
   214    72    73    1
   215    73    76    1
   216    73    74    1
   217    74    75    2
