@<TRIPOS>MOLECULE
tmp/4d5dB01.pdb
 110 111 0 0 0
SMALL
GASTEIGER

@<TRIPOS>ATOM
      1  N        -28.0440   35.0630   19.8380 N.3   164  ALA164     -0.1231
      2  CA       -28.6650   35.2680   21.1320 C.3   164  ALA164      0.1694
      3  C        -29.2770   33.9410   21.5510 C.2   164  ALA164      0.2592
      4  O        -29.8680   33.2260   20.7290 O.2   164  ALA164     -0.2718
      5  CB       -29.7220   36.3610   21.0640 C.3   164  ALA164      0.0304
      6  N        -29.1210   33.6110   22.8270 N.am  165  LEU165     -0.1966
      7  CA       -29.6290   32.3690   23.3710 C.3   165  LEU165      0.1728
      8  C        -30.3740   32.6770   24.6610 C.2   165  LEU165      0.2616
      9  O        -29.8930   33.4380   25.5010 O.2   165  LEU165     -0.2715
     10  CB       -28.4810   31.3830   23.6070 C.3   165  LEU165      0.0311
     11  CG       -28.8030   29.9880   24.1550 C.3   165  LEU165      0.0022
     12  CD1      -27.7620   28.9910   23.6510 C.3   165  LEU165      0.0001
     13  CD2      -28.8210   29.9960   25.6680 C.3   165  LEU165      0.0001
     14  N        -31.5600   32.0980   24.8070 N.am  166  PHE166     -0.1974
     15  CA       -32.3410   32.2460   26.0350 C.3   166  PHE166      0.1639
     16  C        -32.8480   30.8720   26.4210 C.2   166  PHE166      0.2290
     17  O        -33.5390   30.2260   25.6320 O.2   166  PHE166     -0.2864
     18  CB       -33.4840   33.2360   25.8240 C.3   166  PHE166      0.0560
     19  CG       -34.4430   33.3410   26.9860 C.ar  166  PHE166     -0.0200
     20  CD1      -34.0060   33.7620   28.2340 C.ar  166  PHE166     -0.0042
     21  CD2      -35.7870   33.0600   26.8150 C.ar  166  PHE166     -0.0042
     22  CE1      -34.8950   33.8840   29.3030 C.ar  166  PHE166     -0.0003
     23  CE2      -36.6800   33.1760   27.8740 C.ar  166  PHE166     -0.0003
     24  CZ       -36.2250   33.5860   29.1250 C.ar  166  PHE166     -0.0000
     25  N        -33.9540   28.6250   23.3820 N.3   181  PHE181     -0.1227
     26  CA       -34.3160   29.4220   22.2030 C.3   181  PHE181      0.1736
     27  C        -33.0620   30.0950   21.6410 C.2   181  PHE181      0.2595
     28  O        -32.2930   30.6880   22.3990 O.2   181  PHE181     -0.2718
     29  CB       -35.3420   30.5050   22.5370 C.3   181  PHE181      0.0547
     30  CG       -36.6100   29.9930   23.1600 C.ar  181  PHE181     -0.0202
     31  CD1      -36.6970   29.7880   24.5310 C.ar  181  PHE181     -0.0042
     32  CD2      -37.7280   29.7520   22.3730 C.ar  181  PHE181     -0.0042
     33  CE1      -37.8830   29.3330   25.1050 C.ar  181  PHE181     -0.0003
     34  CE2      -38.9110   29.2950   22.9430 C.ar  181  PHE181     -0.0003
     35  CZ       -38.9860   29.0920   24.3040 C.ar  181  PHE181     -0.0000
     36  N        -32.8720   30.0320   20.3270 N.am  182  TYR182     -0.1962
     37  CA       -31.6140   30.4720   19.7210 C.3   182  TYR182      0.1771
     38  C        -31.8740   31.1660   18.4080 C.2   182  TYR182      0.2619
     39  O        -32.7100   30.7240   17.6200 O.2   182  TYR182     -0.2715
     40  CB       -30.6800   29.2730   19.5180 C.3   182  TYR182      0.0574
     41  CG       -29.3690   29.5480   18.7940 C.ar  182  TYR182     -0.0198
     42  CD1      -28.2210   29.8940   19.5010 C.ar  182  TYR182     -0.0009
     43  CD2      -29.2710   29.4190   17.4080 C.ar  182  TYR182     -0.0009
     44  CE1      -27.0070   30.1260   18.8460 C.ar  182  TYR182      0.0417
     45  CE2      -28.0540   29.6390   16.7400 C.ar  182  TYR182      0.0417
     46  CZ       -26.9260   29.9850   17.4710 C.ar  182  TYR182      0.1957
     47  OH       -25.7160   30.2100   16.8300 O.3   182  TYR182     -0.2866
     48  N        -31.1610   32.2650   18.1840 N.am  183  TYR183     -0.1974
     49  CA       -31.2340   33.0100   16.9300 C.3   183  TYR183      0.1639
     50  C        -29.8320   33.4510   16.5470 C.2   183  TYR183      0.2290
     51  O        -29.0740   33.9160   17.3910 O.2   183  TYR183     -0.2864
     52  CB       -32.1510   34.2300   17.0670 C.3   183  TYR183      0.0560
     53  CG       -32.3800   34.9930   15.7730 C.ar  183  TYR183     -0.0198
     54  CD1      -33.0700   34.4160   14.7150 C.ar  183  TYR183     -0.0009
     55  CD2      -31.9270   36.2990   15.6200 C.ar  183  TYR183     -0.0009
     56  CE1      -33.2900   35.1150   13.5310 C.ar  183  TYR183      0.0417
     57  CE2      -32.1430   37.0030   14.4430 C.ar  183  TYR183      0.0417
     58  CZ       -32.8260   36.4060   13.4040 C.ar  183  TYR183      0.1957
     59  OH       -33.0510   37.0980   12.2330 O.3   183  TYR183     -0.2866
     60  N        -32.6980   29.9380   13.3580 N.3   206  ARG206     -0.1231
     61  CA       -33.3820   29.9230   14.6500 C.3   206  ARG206      0.1694
     62  C        -33.6930   28.4850   15.0130 C.2   206  ARG206      0.2592
     63  O        -33.9510   27.6620   14.1400 O.2   206  ARG206     -0.2718
     64  CB       -34.6680   30.7530   14.6050 C.3   206  ARG206      0.0321
     65  CG       -35.6380   30.2690   13.5510 C.3   206  ARG206      0.0489
     66  CD       -36.9500   31.0470   13.5580 C.3   206  ARG206      0.2205
     67  NE       -36.7720   32.4650   13.2530 N.pl3 206  ARG206     -0.0865
     68  CZ       -36.4940   32.9460   12.0450 C.cat 206  ARG206      0.5346
     69  NH1      -36.3370   32.1230   11.0170 N.pl3 206  ARG206      0.1354
     70  NH2      -36.3600   34.2530   11.8650 N.pl3 206  ARG206      0.1354
     71  N        -33.6580   28.1600   16.2960 N.am  207  TYR207     -0.1962
     72  CA       -34.1700   26.8690   16.7090 C.3   207  TYR207      0.1771
     73  C        -34.8010   26.9780   18.0840 C.2   207  TYR207      0.2619
     74  O        -34.5470   27.9260   18.8320 O.2   207  TYR207     -0.2715
     75  CB       -33.0710   25.7750   16.6770 C.3   207  TYR207      0.0574
     76  CG       -31.9590   25.8620   17.7130 C.ar  207  TYR207     -0.0198
     77  CD1      -32.2100   25.6010   19.0590 C.ar  207  TYR207     -0.0009
     78  CD2      -30.6400   26.1220   17.3320 C.ar  207  TYR207     -0.0009
     79  CE1      -31.1930   25.6680   20.0150 C.ar  207  TYR207      0.0417
     80  CE2      -29.6020   26.1670   18.2890 C.ar  207  TYR207      0.0417
     81  CZ       -29.8920   25.9460   19.6220 C.ar  207  TYR207      0.1957
     82  OH       -28.9010   26.0090   20.5930 O.3   207  TYR207     -0.2866
     83  N        -35.6580   26.0100   18.3780 N.am  208  ILE208     -0.1977
     84  CA       -36.1780   25.7940   19.7190 C.3   208  ILE208      0.1596
     85  C        -35.8140   24.3660   20.1370 C.2   208  ILE208      0.2287
     86  O        -35.9610   23.4220   19.3520 O.2   208  ILE208     -0.2864
     87  CB       -37.7070   26.0070   19.7760 C.3   208  ILE208      0.0276
     88  CG1      -38.2410   25.6120   21.1490 C.3   208  ILE208      0.0022
     89  CG2      -38.4050   25.1850   18.7190 C.3   208  ILE208      0.0022
     90  CD1      -39.6970   25.9570   21.3490 C.3   208  ILE208      0.0001
     91  N        -35.9490   21.6070   16.9630 N.3   228  VAL228     -0.1231
     92  CA       -36.5750   21.9250   15.6930 C.3   228  VAL228      0.1692
     93  C        -36.0990   23.3110   15.2780 C.2   228  VAL228      0.2593
     94  O        -36.2160   24.2820   16.0350 O.2   228  VAL228     -0.2718
     95  CB       -38.1160   21.8790   15.7800 C.3   228  VAL228      0.0266
     96  CG1      -38.7240   22.3410   14.4720 C.3   228  VAL228      0.0020
     97  CG2      -38.5800   20.4670   16.0910 C.3   228  VAL228      0.0020
     98  N        -35.5320   23.4020   14.0890 N.am  229  GLY229     -0.1942
     99  CA       -34.9960   24.6720   13.6400 C.3   229  GLY229      0.2014
    100  C        -35.1000   24.8870   12.1430 C.2   229  GLY229      0.2638
    101  O        -35.4860   23.9910   11.3860 O.2   229  GLY229     -0.2714
    102  N        -34.7810   26.1010   11.7220 N.am  230  LYS230     -0.1977
    103  CA       -34.6270   26.3800   10.3050 C.3   230  LYS230      0.1596
    104  C        -33.5720   27.4450   10.1010 C.2   230  LYS230      0.2287
    105  O        -33.3480   28.2860   10.9760 O.2   230  LYS230     -0.2864
    106  CB       -35.9520   26.8040    9.6720 C.3   230  LYS230      0.0298
    107  CG       -36.7430   27.8160   10.4160 C.3   230  LYS230      0.0038
    108  CD       -38.0780   28.0180    9.6910 C.3   230  LYS230      0.0206
    109  CE       -38.7110   26.6790    9.3280 C.3   230  LYS230      0.1093
    110  NZ       -40.0430   26.8170    8.6720 N.3   230  LYS230     -0.1314
@<TRIPOS>BOND
     1   110   109    1
     2   109   108    1
     3   106   103    1
     4   106   107    1
     5   108   107    1
     6   104   103    1
     7   104   105    2
     8   103   102    1
     9    69    68    1
    10   101   100    2
    11   102   100   am
    12    70    68    1
    13    68    67    2
    14   100    99    1
    15    59    58    1
    16    67    66    1
    17    60    61    1
    18    58    56   ar
    19    58    57   ar
    20    56    54   ar
    21    65    66    1
    22    65    64    1
    23    99    98    1
    24    98    93   am
    25    63    62    2
    26    57    55   ar
    27    96    95    1
    28    64    61    1
    29    61    62    1
    30    54    53   ar
    31    62    71   am
    32    93    92    1
    33    93    94    2
    34    55    53   ar
    35    92    95    1
    36    92    91    1
    37    53    52    1
    38    95    97    1
    39    71    72    1
    40    50    49    1
    41    50    51    2
    42    75    72    1
    43    75    76    1
    44    72    73    1
    45    45    43   ar
    46    45    46   ar
    47    47    46    1
    48    49    52    1
    49    49    48    1
    50    78    76   ar
    51    78    80   ar
    52    43    41   ar
    53    46    44   ar
    54    39    38    2
    55    76    77   ar
    56    73    83   am
    57    73    74    2
    58    48    38   am
    59    80    81   ar
    60    83    84    1
    61    38    37    1
    62    89    87    1
    63    41    42   ar
    64    41    40    1
    65    44    42   ar
    66    77    79   ar
    67    86    85    2
    68    40    37    1
    69    81    79   ar
    70    81    82    1
    71    84    87    1
    72    84    85    1
    73    37    36    1
    74    87    88    1
    75     1     2    1
    76    36    27   am
    77     4     3    2
    78     5     2    1
    79     2     3    1
    80    88    90    1
    81     3     6   am
    82    27    26    1
    83    27    28    2
    84    26    29    1
    85    26    25    1
    86    32    34   ar
    87    32    30   ar
    88    29    30    1
    89     6     7    1
    90    34    35   ar
    91    30    31   ar
    92     7    10    1
    93     7     8    1
    94    10    11    1
    95    12    11    1
    96    11    13    1
    97    35    33   ar
    98    31    33   ar
    99     8    14   am
   100     8     9    2
   101    14    15    1
   102    17    16    2
   103    18    15    1
   104    18    19    1
   105    15    16    1
   106    21    19   ar
   107    21    23   ar
   108    19    20   ar
   109    23    24   ar
   110    20    22   ar
   111    24    22   ar
