@<TRIPOS>MOLECULE
tmp/4d5dB10.pdb
 84 82 0 0 0
SMALL
GASTEIGER

@<TRIPOS>ATOM
      1  N        -31.7810    9.9170   38.8120 N.3   216  PHE216     -0.1241
      2  CA       -32.1260    8.7660   39.6400 C.3   216  PHE216      0.1605
      3  C        -31.4710    8.8820   41.0000 C.2   216  PHE216      0.2264
      4  O        -30.2910    9.2190   41.0940 O.2   216  PHE216     -0.2867
      5  CB       -31.7020    7.4660   38.9560 C.3   216  PHE216      0.0534
      6  CG       -32.4760    7.1630   37.7080 C.ar  216  PHE216     -0.0203
      7  CD1      -33.6810    6.4750   37.7770 C.ar  216  PHE216     -0.0042
      8  CD2      -32.0110    7.5750   36.4670 C.ar  216  PHE216     -0.0042
      9  CE1      -34.4030    6.1920   36.6310 C.ar  216  PHE216     -0.0003
     10  CE2      -32.7320    7.3010   35.3120 C.ar  216  PHE216     -0.0003
     11  CZ       -33.9320    6.6090   35.3950 C.ar  216  PHE216     -0.0000
     12  N        -28.2650    6.9000   41.3470 N.3   219  ALA219     -0.1245
     13  CA       -27.6350    6.6390   40.0660 C.3   219  ALA219      0.1562
     14  C        -27.3930    7.9630   39.3480 C.2   219  ALA219      0.2260
     15  O        -27.1590    8.9920   39.9790 O.2   219  ALA219     -0.2867
     16  CB       -28.4950    5.6990   39.2210 C.3   219  ALA219      0.0290
     17  N        -30.4630   10.7250   33.3750 N.3   222  LEU222     -0.1245
     18  CA       -30.8950   10.4070   32.0190 C.3   222  LEU222      0.1561
     19  C        -31.5040   11.6640   31.4090 C.2   222  LEU222      0.2260
     20  O        -32.2740   12.3650   32.0710 O.2   222  LEU222     -0.2867
     21  CB       -31.9150    9.2660   32.0520 C.3   222  LEU222      0.0270
     22  CG       -32.4530    8.7310   30.7310 C.3   222  LEU222      0.0019
     23  CD1      -31.2980    8.2250   29.8550 C.3   222  LEU222      0.0001
     24  CD2      -33.4450    7.6200   31.0220 C.3   222  LEU222      0.0001
     25  N        -30.3390   11.4990   23.1300 N.3   257  VAL257     -0.1231
     26  CA       -30.5270   10.9040   24.4440 C.3   257  VAL257      0.1692
     27  C        -29.1540   10.6470   25.0480 C.2   257  VAL257      0.2593
     28  O        -28.2120   10.2620   24.3470 O.2   257  VAL257     -0.2718
     29  CB       -31.3510    9.5970   24.3840 C.3   257  VAL257      0.0266
     30  CG1      -30.7030    8.5740   23.4550 C.3   257  VAL257      0.0020
     31  CG2      -31.5410    9.0130   25.7830 C.3   257  VAL257      0.0020
     32  N        -29.0290   10.8960   26.3420 N.am  258  GLY258     -0.1942
     33  CA       -27.7660   10.6640   27.0220 C.3   258  GLY258      0.2014
     34  C        -27.9170   10.2990   28.4790 C.2   258  GLY258      0.2638
     35  O        -28.9920   10.4220   29.0810 O.2   258  GLY258     -0.2714
     36  N        -26.8070    9.8660   29.0570 N.am  259  TYR259     -0.1973
     37  CA       -26.7900    9.4680   30.4440 C.3   259  TYR259      0.1639
     38  C        -25.4480    9.8570   31.0200 C.2   259  TYR259      0.2290
     39  O        -24.4060    9.6320   30.3960 O.2   259  TYR259     -0.2864
     40  CB       -27.0450    7.9680   30.5700 C.3   259  TYR259      0.0560
     41  CG       -27.0290    7.4560   31.9880 C.ar  259  TYR259     -0.0198
     42  CD1      -28.0880    7.7190   32.8520 C.ar  259  TYR259     -0.0009
     43  CD2      -25.9510    6.7200   32.4710 C.ar  259  TYR259     -0.0009
     44  CE1      -28.0800    7.2600   34.1580 C.ar  259  TYR259      0.0417
     45  CE2      -25.9370    6.2460   33.7830 C.ar  259  TYR259      0.0417
     46  CZ       -27.0070    6.5200   34.6180 C.ar  259  TYR259      0.1957
     47  OH       -26.9980    6.0660   35.9280 O.3   259  TYR259     -0.2866
     48  N        -22.3570    9.2950   28.2630 N.3   271  ALA271     -0.1231
     49  CA       -22.5030    8.8170   26.8900 C.3   271  ALA271      0.1694
     50  C        -23.7800    9.3760   26.2910 C.2   271  ALA271      0.2592
     51  O        -24.7700    9.5730   26.9910 O.2   271  ALA271     -0.2718
     52  CB       -22.5140    7.2970   26.8340 C.3   271  ALA271      0.0304
     53  N        -23.7550    9.5940   24.9840 N.am  272  GLU272     -0.1966
     54  CA       -24.7810   10.3770   24.3230 C.3   272  GLU272      0.1733
     55  C        -24.9150    9.9380   22.8790 C.2   272  GLU272      0.2616
     56  O        -23.9110    9.6670   22.2070 O.2   272  GLU272     -0.2715
     57  CB       -24.3850   11.8490   24.4090 C.3   272  GLU272      0.0429
     58  CG       -25.3540   12.8440   23.9220 C.3   272  GLU272      0.1163
     59  CD       -24.8540   14.2460   24.2040 C.2   272  GLU272      0.3649
     60  OE1      -24.8780   14.6650   25.3870 O.co2 272  GLU272     -0.2457
     61  OE2      -24.4060   14.9070   23.2450 O.co2 272  GLU272     -0.2457
     62  N        -26.1520    9.8680   22.3960 N.am  273  TYR273     -0.1974
     63  CA       -26.4080    9.5510   21.0050 C.3   273  TYR273      0.1639
     64  C        -27.2730   10.6580   20.4300 C.2   273  TYR273      0.2290
     65  O        -28.2580   11.0550   21.0540 O.2   273  TYR273     -0.2864
     66  CB       -27.1060    8.1870   20.8480 C.3   273  TYR273      0.0560
     67  CG       -27.7620    8.0320   19.4890 C.ar  273  TYR273     -0.0198
     68  CD1      -27.0130    7.7120   18.3660 C.ar  273  TYR273     -0.0009
     69  CD2      -29.1290    8.2260   19.3280 C.ar  273  TYR273     -0.0009
     70  CE1      -27.6160    7.5980   17.1070 C.ar  273  TYR273      0.0417
     71  CE2      -29.7330    8.1100   18.0800 C.ar  273  TYR273      0.0417
     72  CZ       -28.9700    7.7890   16.9750 C.ar  273  TYR273      0.1957
     73  OH       -29.5820    7.6830   15.7310 O.3   273  TYR273     -0.2866
     74  N        -22.3040    9.3540   18.0720 N.3   301  PHE301     -0.1241
     75  CA       -22.1140    8.7890   19.4030 C.3   301  PHE301      0.1605
     76  C        -20.9900    9.5380   20.0930 C.2   301  PHE301      0.2264
     77  O        -19.9530    9.8260   19.4860 O.2   301  PHE301     -0.2867
     78  CB       -21.7870    7.3030   19.3390 C.3   301  PHE301      0.0534
     79  CG       -21.5400    6.6960   20.6930 C.ar  301  PHE301     -0.0203
     80  CD1      -22.6000    6.4410   21.5530 C.ar  301  PHE301     -0.0042
     81  CD2      -20.2510    6.4340   21.1220 C.ar  301  PHE301     -0.0042
     82  CE1      -22.3740    5.9080   22.8140 C.ar  301  PHE301     -0.0003
     83  CE2      -20.0220    5.9040   22.3770 C.ar  301  PHE301     -0.0003
     84  CZ       -21.0860    5.6420   23.2170 C.ar  301  PHE301     -0.0000
@<TRIPOS>BOND
     1    73    72    1
     2    72    70   ar
     3    72    71   ar
     4    70    68   ar
     5    74    75    1
     6    71    69   ar
     7    68    67   ar
     8    69    67   ar
     9    78    75    1
    10    78    79    1
    11    75    76    1
    12    77    76    2
    13    67    66    1
    14    64    63    1
    15    64    65    2
    16    79    81   ar
    17    79    80   ar
    18    66    63    1
    19    63    62    1
    20    81    83   ar
    21    80    82   ar
    22    56    55    2
    23    83    84   ar
    24    62    55   am
    25    82    84   ar
    26    55    54    1
    27    25    26    1
    28    61    59   ar
    29    30    29    1
    30    58    59    1
    31    58    57    1
    32    59    60   ar
    33    54    57    1
    34    54    53    1
    35    28    27    2
    36    29    26    1
    37    29    31    1
    38    26    27    1
    39    53    50   am
    40    27    32   am
    41    50    49    1
    42    50    51    2
    43    32    33    1
    44    52    49    1
    45    49    48    1
    46    33    34    1
    47    34    36   am
    48    34    35    2
    49    36    37    1
    50    23    22    1
    51    39    38    2
    52    37    40    1
    53    37    38    1
    54    40    41    1
    55    22    24    1
    56    22    21    1
    57    19    18    1
    58    19    20    2
    59    41    43   ar
    60    41    42   ar
    61    18    21    1
    62    18    17    1
    63    43    45   ar
    64    42    44   ar
    65    45    46   ar
    66    44    46   ar
    67    46    47    1
    68    10    11   ar
    69    10     8   ar
    70    11     9   ar
    71     8     6   ar
    72     9     7   ar
    73     6     7   ar
    74     6     5    1
    75     1     2    1
    76     5     2    1
    77    16    13    1
    78    14    15    2
    79    14    13    1
    80     2     3    1
    81    13    12    1
    82     3     4    2
