@<TRIPOS>MOLECULE
tmp/4d5dB09.pdb
 103 97 0 0 0
SMALL
GASTEIGER

@<TRIPOS>ATOM
      1  N        -11.0080   12.7960   29.0470 N.3    12  THR12      -0.1203
      2  CA       -10.8860   12.4910   27.6300 C.3    12  THR12       0.1994
      3  C        -12.2900   12.2040   27.1020 C.2    12  THR12       0.2619
      4  O        -13.2040   11.8870   27.8770 O.2    12  THR12      -0.2717
      5  CB       -10.0060   11.2490   27.3470 C.3    12  THR12       0.1784
      6  OG1      -10.6480   10.1030   27.9220 O.3    12  THR12      -0.2211
      7  CG2       -8.5910   11.3970   27.9510 C.3    12  THR12       0.0376
      8  N        -12.4510   12.3090   25.7910 N.am   13  SER13      -0.1937
      9  CA       -13.7040   11.9300   25.1530 C.3    13  SER13       0.2055
     10  C        -13.4480   11.4390   23.7390 C.2    13  SER13       0.2642
     11  O        -12.3580   11.6190   23.1710 O.2    13  SER13      -0.2714
     12  CB       -14.6940   13.1020   25.1230 C.3    13  SER13       0.2130
     13  OG       -14.3230   14.0350   24.1200 O.3    13  SER13      -0.2179
     14  N        -14.4650   10.8030   23.1740 N.am   14  VAL14      -0.1977
     15  CA       -14.3830   10.3310   21.8070 C.3    14  VAL14       0.1596
     16  C        -15.7300   10.5710   21.1880 C.2    14  VAL14       0.2287
     17  O        -16.7670   10.4580   21.8530 O.2    14  VAL14      -0.2864
     18  CB       -13.9930    8.8280   21.7320 C.3    14  VAL14       0.0276
     19  CG1      -15.0210    7.9730   22.4670 C.3    14  VAL14       0.0022
     20  CG2      -13.8440    8.3770   20.2740 C.3    14  VAL14       0.0022
     21  N        -10.9120   12.3520   18.6050 N.3    36  ASN36      -0.1240
     22  CA       -10.2900   11.8930   19.8320 C.3    36  ASN36       0.1653
     23  C         -9.8270   13.0780   20.6800 C.2    36  ASN36       0.2266
     24  O         -8.8310   13.7270   20.3420 O.2    36  ASN36      -0.2867
     25  CB        -9.1080   10.9930   19.4900 C.3    36  ASN36       0.1155
     26  CG        -8.6030   10.2110   20.6720 C.2    36  ASN36       0.2627
     27  OD1       -7.6640    9.4350   20.5380 O.2    36  ASN36      -0.2716
     28  ND2       -9.2290   10.3890   21.8310 N.am   36  ASN36      -0.0877
     29  N        -28.2650    6.9000   41.3470 N.3   219  ALA219     -0.1245
     30  CA       -27.6350    6.6390   40.0660 C.3   219  ALA219      0.1562
     31  C        -27.3930    7.9630   39.3480 C.2   219  ALA219      0.2260
     32  O        -27.1590    8.9920   39.9790 O.2   219  ALA219     -0.2867
     33  CB       -28.4950    5.6990   39.2210 C.3   219  ALA219      0.0290
     34  N        -26.8070    9.8660   29.0570 N.3   259  TYR259     -0.1241
     35  CA       -26.7900    9.4680   30.4440 C.3   259  TYR259      0.1605
     36  C        -25.4480    9.8570   31.0200 C.2   259  TYR259      0.2264
     37  O        -24.4060    9.6320   30.3960 O.2   259  TYR259     -0.2867
     38  CB       -27.0450    7.9680   30.5700 C.3   259  TYR259      0.0534
     39  CG       -27.0290    7.4560   31.9880 C.ar  259  TYR259     -0.0201
     40  CD1      -28.0880    7.7190   32.8520 C.ar  259  TYR259     -0.0009
     41  CD2      -25.9510    6.7200   32.4710 C.ar  259  TYR259     -0.0009
     42  CE1      -28.0800    7.2600   34.1580 C.ar  259  TYR259      0.0417
     43  CE2      -25.9370    6.2460   33.7830 C.ar  259  TYR259      0.0417
     44  CZ       -27.0070    6.5200   34.6180 C.ar  259  TYR259      0.1957
     45  OH       -26.9980    6.0660   35.9280 O.3   259  TYR259     -0.2866
     46  N        -23.1780    9.7890   34.8170 N.3   261  GLN261     -0.1245
     47  CA       -23.1710    9.3090   36.1830 C.3   261  GLN261      0.1566
     48  C        -21.8050    9.4370   36.8370 C.2   261  GLN261      0.2260
     49  O        -20.7740    9.2100   36.1990 O.2   261  GLN261     -0.2867
     50  CB       -23.6320    7.8600   36.2120 C.3   261  GLN261      0.0367
     51  CG       -23.9400    7.3540   37.5900 C.3   261  GLN261      0.0905
     52  CD       -23.8130    5.8630   37.6590 C.2   261  GLN261      0.2608
     53  OE1      -22.9610    5.3480   38.3750 O.2   261  GLN261     -0.2717
     54  NE2      -24.6450    5.1520   36.8960 N.am  261  GLN261     -0.0878
     55  N        -18.7460    9.9130   34.2500 N.3   269  ALA269     -0.1231
     56  CA       -18.7770    9.4350   32.8680 C.3   269  ALA269      0.1694
     57  C        -20.0980    9.7430   32.1850 C.2   269  ALA269      0.2592
     58  O        -21.1460    9.8040   32.8310 O.2   269  ALA269     -0.2718
     59  CB       -18.4930    7.9200   32.8340 C.3   269  ALA269      0.0304
     60  N        -20.0420    9.9340   30.8690 N.am  270  LYS270     -0.1966
     61  CA       -21.1970   10.3690   30.1010 C.3   270  LYS270      0.1728
     62  C        -21.1850    9.7210   28.7310 C.2   270  LYS270      0.2616
     63  O        -20.1270    9.6180   28.1060 O.2   270  LYS270     -0.2715
     64  CB       -21.1990   11.8960   29.9630 C.3   270  LYS270      0.0311
     65  CG       -22.2020   12.4540   28.9690 C.3   270  LYS270      0.0038
     66  CD       -22.3200   13.9670   29.1320 C.3   270  LYS270      0.0206
     67  CE       -22.2990   14.6930   27.8050 C.3   270  LYS270      0.1093
     68  NZ       -22.2590   16.1700   28.0220 N.3   270  LYS270     -0.1314
     69  N        -22.3570    9.2950   28.2630 N.am  271  ALA271     -0.1977
     70  CA       -22.5030    8.8170   26.8900 C.3   271  ALA271      0.1597
     71  C        -23.7800    9.3760   26.2910 C.2   271  ALA271      0.2287
     72  O        -24.7700    9.5730   26.9910 O.2   271  ALA271     -0.2864
     73  CB       -22.5140    7.2970   26.8340 C.3   271  ALA271      0.0319
     74  N        -22.3040    9.3540   18.0720 N.3   301  PHE301     -0.1241
     75  CA       -22.1140    8.7890   19.4030 C.3   301  PHE301      0.1605
     76  C        -20.9900    9.5380   20.0930 C.2   301  PHE301      0.2264
     77  O        -19.9530    9.8260   19.4860 O.2   301  PHE301     -0.2867
     78  CB       -21.7870    7.3030   19.3390 C.3   301  PHE301      0.0534
     79  CG       -21.5400    6.6960   20.6930 C.ar  301  PHE301     -0.0203
     80  CD1      -22.6000    6.4410   21.5530 C.ar  301  PHE301     -0.0042
     81  CD2      -20.2510    6.4340   21.1220 C.ar  301  PHE301     -0.0042
     82  CE1      -22.3740    5.9080   22.8140 C.ar  301  PHE301     -0.0003
     83  CE2      -20.0220    5.9040   22.3770 C.ar  301  PHE301     -0.0003
     84  CZ       -21.0860    5.6420   23.2170 C.ar  301  PHE301     -0.0000
     85  N        -18.7880    9.8200   23.9630 N.3   303  ALA303     -0.1231
     86  CA       -18.5540    9.3140   25.2960 C.3   303  ALA303      0.1694
     87  C        -17.4070   10.0810   25.9230 C.2   303  ALA303      0.2592
     88  O        -16.4320   10.3960   25.2430 O.2   303  ALA303     -0.2718
     89  CB       -18.2520    7.8120   25.2570 C.3   303  ALA303      0.0304
     90  N        -17.5330   10.3980   27.2090 N.am  304  GLN304     -0.1966
     91  CA       -16.4510   11.0400   27.9400 C.3   304  GLN304      0.1733
     92  C        -16.2910   10.4690   29.3550 C.2   304  GLN304      0.2616
     93  O        -17.2350    9.9410   29.9560 O.2   304  GLN304     -0.2715
     94  CB       -16.6720   12.5530   28.0170 C.3   304  GLN304      0.0408
     95  CG       -17.8470   12.9830   28.8490 C.3   304  GLN304      0.0908
     96  CD       -17.9180   14.4990   29.0070 C.2   304  GLN304      0.2608
     97  OE1      -17.4960   15.2590   28.1280 O.2   304  GLN304     -0.2717
     98  NE2      -18.4650   14.9380   30.1190 N.am  304  GLN304     -0.0878
     99  N        -15.0800   10.5800   29.8810 N.am  305  ALA305     -0.1977
    100  CA       -14.8000   10.2060   31.2620 C.3   305  ALA305      0.1597
    101  C        -13.9170   11.2930   31.8440 C.2   305  ALA305      0.2287
    102  O        -12.8930   11.6700   31.2500 O.2   305  ALA305     -0.2864
    103  CB       -14.1240    8.8180   31.3490 C.3   305  ALA305      0.0319
@<TRIPOS>BOND
     1    74    75    1
     2    21    22    1
     3    78    75    1
     4    78    79    1
     5    75    76    1
     6    77    76    2
     7    25    22    1
     8    25    26    1
     9    22    23    1
    10    20    18    1
    11    24    23    2
    12    27    26    2
    13    26    28   am
    14    79    81   ar
    15    79    80   ar
    16    81    83   ar
    17    16    15    1
    18    16    17    2
    19    80    82   ar
    20    18    15    1
    21    18    19    1
    22    15    14    1
    23    83    84   ar
    24    82    84   ar
    25    11    10    2
    26    14    10   am
    27    10     9    1
    28    85    86    1
    29    13    12    1
    30    12     9    1
    31     9     8    1
    32    88    87    2
    33    89    86    1
    34    86    87    1
    35     8     3   am
    36    87    90   am
    37    71    70    1
    38    71    72    2
    39    73    70    1
    40    70    69    1
    41     3     2    1
    42     3     4    2
    43    90    91    1
    44     5     2    1
    45     5     6    1
    46     5     7    1
    47     2     1    1
    48    67    68    1
    49    67    66    1
    50    91    94    1
    51    91    92    1
    52    94    95    1
    53    63    62    2
    54    97    96    2
    55    69    62   am
    56    62    61    1
    57    95    96    1
    58    65    66    1
    59    65    64    1
    60    96    98   am
    61    34    35    1
    62    92    99   am
    63    92    93    2
    64    99   100    1
    65    64    61    1
    66    61    60    1
    67    37    36    2
    68    35    38    1
    69    35    36    1
    70    38    39    1
    71    60    57   am
    72   102   101    2
    73   100   103    1
    74   100   101    1
    75    39    41   ar
    76    39    40   ar
    77    57    58    2
    78    57    56    1
    79    41    43   ar
    80    59    56    1
    81    40    42   ar
    82    56    55    1
    83    43    44   ar
    84    42    44   ar
    85    44    45    1
    86    46    47    1
    87    47    50    1
    88    47    48    1
    89    49    48    2
    90    50    51    1
    91    54    52   am
    92    51    52    1
    93    52    53    2
    94    33    30    1
    95    31    32    2
    96    31    30    1
    97    30    29    1
