@<TRIPOS>MOLECULE
tmp/4d5dA09.pdb
 96 97 0 0 0
SMALL
GASTEIGER

@<TRIPOS>ATOM
      1  N         25.6180    3.9910   13.5810 N.3   176  ASN176     -0.1225
      2  CA        24.3540    3.9560   14.3060 C.3   176  ASN176      0.1785
      3  C         24.5110    4.2940   15.7950 C.2   176  ASN176      0.2597
      4  O         23.5460    4.2290   16.5680 O.2   176  ASN176     -0.2718
      5  CB        23.7090    2.5790   14.1470 C.3   176  ASN176      0.1169
      6  CG        23.1970    2.3320   12.7360 C.2   176  ASN176      0.2627
      7  OD1       23.3280    3.1820   11.8590 O.2   176  ASN176     -0.2716
      8  ND2       22.6190    1.1650   12.5150 N.am  176  ASN176     -0.0877
      9  N         25.7300    4.6600   16.1810 N.am  177  TRP177     -0.1976
     10  CA        26.0640    4.9420   17.5720 C.3   177  TRP177      0.1640
     11  C         26.0040    6.4120   17.8920 C.2   177  TRP177      0.2290
     12  O         26.2970    7.2690   17.0520 O.2   177  TRP177     -0.2864
     13  CB        27.4830    4.4680   17.9160 C.3   177  TRP177      0.0576
     14  CG        27.7230    3.0070   17.8050 C.ar  177  TRP177      0.0006
     15  CD1       28.1800    2.3240   16.6990 C.ar  177  TRP177      0.0946
     16  CD2       27.5610    2.0390   18.8400 C.ar  177  TRP177      0.0152
     17  NE1       28.2980    0.9880   16.9940 N.ar  177  TRP177     -0.2442
     18  CE2       27.9240    0.7840   18.2980 C.ar  177  TRP177      0.0810
     19  CE3       27.1380    2.1050   20.1770 C.ar  177  TRP177      0.0012
     20  CZ2       27.8760   -0.3930   19.0450 C.ar  177  TRP177      0.0191
     21  CZ3       27.0930    0.9370   20.9130 C.ar  177  TRP177      0.0001
     22  CH2       27.4530   -0.2980   20.3450 C.ar  177  TRP177      0.0015
     23  N         25.5600    5.9850   26.2530 N.3   214  VAL214     -0.1231
     24  CA        25.8130    5.3110   24.9920 C.3   214  VAL214      0.1692
     25  C         24.4740    4.9250   24.3790 C.2   214  VAL214      0.2592
     26  O         23.5940    4.4300   25.0790 O.2   214  VAL214     -0.2718
     27  CB        26.6880    4.0480   25.1710 C.3   214  VAL214      0.0266
     28  CG1       26.8350    3.2980   23.8390 C.3   214  VAL214      0.0020
     29  CG2       28.0570    4.4190   25.7480 C.3   214  VAL214      0.0020
     30  N         24.3010    5.1450   23.0810 N.am  215  GLN215     -0.1966
     31  CA        23.0920    4.6340   22.4510 C.3   215  GLN215      0.1733
     32  C         23.3680    4.0510   21.0930 C.2   215  GLN215      0.2616
     33  O         24.3500    4.4020   20.4280 O.2   215  GLN215     -0.2715
     34  CB        22.0230    5.7140   22.3490 C.3   215  GLN215      0.0408
     35  CG        22.3390    6.8430   21.4440 C.3   215  GLN215      0.0908
     36  CD        21.3090    7.9490   21.5680 C.2   215  GLN215      0.2608
     37  OE1       21.1820    8.5760   22.6190 O.2   215  GLN215     -0.2717
     38  NE2       20.5590    8.1840   20.4960 N.am  215  GLN215     -0.0878
     39  N         22.4990    3.1270   20.7020 N.am  216  TYR216     -0.1974
     40  CA        22.6080    2.4650   19.4190 C.3   216  TYR216      0.1639
     41  C         21.2320    2.4220   18.7610 C.2   216  TYR216      0.2290
     42  O         20.2630    2.0060   19.3830 O.2   216  TYR216     -0.2864
     43  CB        23.1740    1.0490   19.5830 C.3   216  TYR216      0.0560
     44  CG        23.3190    0.3620   18.2400 C.ar  216  TYR216     -0.0198
     45  CD1       24.4690    0.5360   17.4810 C.ar  216  TYR216     -0.0009
     46  CD2       22.2960   -0.4200   17.7100 C.ar  216  TYR216     -0.0009
     47  CE1       24.6130   -0.0580   16.2570 C.ar  216  TYR216      0.0417
     48  CE2       22.4330   -1.0220   16.4630 C.ar  216  TYR216      0.0417
     49  CZ        23.5930   -0.8350   15.7440 C.ar  216  TYR216      0.1957
     50  OH        23.7350   -1.4240   14.5050 O.3   216  TYR216     -0.2866
     51  N         18.9820    0.7370   15.9340 N.3   218  PHE218     -0.1227
     52  CA        18.8540   -0.4140   15.0500 C.3   218  PHE218      0.1736
     53  C         18.1780    0.0060   13.7570 C.2   218  PHE218      0.2595
     54  O         17.1380    0.6750   13.8000 O.2   218  PHE218     -0.2718
     55  CB        18.0480   -1.5250   15.7270 C.3   218  PHE218      0.0547
     56  CG        18.7260   -2.1200   16.9230 C.ar  218  PHE218     -0.0202
     57  CD1       18.5230   -1.5880   18.1850 C.ar  218  PHE218     -0.0042
     58  CD2       19.5680   -3.2120   16.7810 C.ar  218  PHE218     -0.0042
     59  CE1       19.1520   -2.1380   19.2990 C.ar  218  PHE218     -0.0003
     60  CE2       20.1990   -3.7650   17.8810 C.ar  218  PHE218     -0.0003
     61  CZ        19.9910   -3.2270   19.1430 C.ar  218  PHE218     -0.0000
     62  N         18.7690   -0.3840   12.6230 N.am  219  ASP219     -0.1974
     63  CA        18.2240   -0.0660   11.3010 C.3   219  ASP219      0.1709
     64  C         16.7460   -0.4000   11.1980 C.2   219  ASP219      0.2293
     65  O         15.9460    0.4160   10.7340 O.2   219  ASP219     -0.2864
     66  CB        18.9840   -0.8140   10.1940 C.3   219  ASP219      0.1436
     67  CG        20.3760   -0.2620    9.9690 C.2   219  ASP219      0.3671
     68  OD1       20.6070    0.9290   10.2680 O.co2 219  ASP219     -0.2456
     69  OD2       21.2420   -1.0200    9.4900 O.co2 219  ASP219     -0.2456
     70  N         18.3180    1.7950   21.5130 N.3   224  LEU224     -0.1231
     71  CA        18.6370    1.2650   22.8350 C.3   224  LEU224      0.1693
     72  C         19.6830    2.1540   23.4660 C.2   224  LEU224      0.2592
     73  O         20.6270    2.5670   22.7870 O.2   224  LEU224     -0.2718
     74  CB        19.1500   -0.1740   22.7110 C.3   224  LEU224      0.0284
     75  CG        19.6410   -0.9040   23.9670 C.3   224  LEU224      0.0019
     76  CD1       18.4900   -1.1830   24.9230 C.3   224  LEU224      0.0001
     77  CD2       20.3280   -2.2090   23.5630 C.3   224  LEU224      0.0001
     78  N         19.5390    2.4630   24.7510 N.am  225  TYR225     -0.1962
     79  CA        20.5130    3.3490   25.3980 C.3   225  TYR225      0.1771
     80  C         20.7730    3.0140   26.8630 C.2   225  TYR225      0.2620
     81  O         19.9580    2.3850   27.5530 O.2   225  TYR225     -0.2715
     82  CB        20.0690    4.8180   25.2760 C.3   225  TYR225      0.0574
     83  CG        18.7350    5.1170   25.9390 C.ar  225  TYR225     -0.0198
     84  CD1       17.5390    4.9550   25.2440 C.ar  225  TYR225     -0.0009
     85  CD2       18.6730    5.5480   27.2630 C.ar  225  TYR225     -0.0009
     86  CE1       16.3190    5.2190   25.8510 C.ar  225  TYR225      0.0417
     87  CE2       17.4550    5.8100   27.8770 C.ar  225  TYR225      0.0417
     88  CZ        16.2880    5.6460   27.1650 C.ar  225  TYR225      0.1957
     89  OH        15.0860    5.9030   27.7780 O.3   225  TYR225     -0.2866
     90  N         21.9410    3.4250   27.3310 N.am  226  THR226     -0.1951
     91  CA        22.2760    3.2820   28.7400 C.3   226  THR226      0.1897
     92  C         23.0160    4.5300   29.1970 C.2   226  THR226      0.2313
     93  O         23.7660    5.1350   28.4200 O.2   226  THR226     -0.2863
     94  CB        23.1380    2.0230   29.0250 C.3   226  THR226      0.1794
     95  OG1       23.4400    1.9610   30.4330 O.3   226  THR226     -0.2208
     96  CG2       24.4360    2.0680   28.2270 C.3   226  THR226      0.0378
@<TRIPOS>BOND
     1    69    67   ar
     2    67    66    1
     3    67    68   ar
     4    66    63    1
     5    65    64    2
     6    64    63    1
     7    63    62    1
     8     7     6    2
     9     8     6   am
    10    62    53   am
    11     6     5    1
    12     1     2    1
    13    53    54    2
    14    53    52    1
    15     5     2    1
    16     2     3    1
    17    50    49    1
    18    52    55    1
    19    52    51    1
    20    55    56    1
    21    49    47   ar
    22    49    48   ar
    23     3     9   am
    24     3     4    2
    25     9    10    1
    26    47    45   ar
    27    48    46   ar
    28    15    17   ar
    29    15    14   ar
    30    58    56   ar
    31    58    60   ar
    32    56    57   ar
    33    17    18   ar
    34    12    11    2
    35    45    44   ar
    36    10    11    1
    37    10    13    1
    38    46    44   ar
    39    14    13    1
    40    14    16   ar
    41    60    61   ar
    42    57    59   ar
    43    44    43    1
    44    18    16   ar
    45    18    20   ar
    46    41    42    2
    47    41    40    1
    48    16    19   ar
    49    20    22   ar
    50    61    59   ar
    51    40    43    1
    52    40    39    1
    53    19    21   ar
    54    22    21   ar
    55    33    32    2
    56    38    36   am
    57    39    32   am
    58    32    31    1
    59    35    36    1
    60    35    34    1
    61    70    71    1
    62    36    37    2
    63    34    31    1
    64    31    30    1
    65    74    71    1
    66    74    75    1
    67    73    72    2
    68    71    72    1
    69    30    25   am
    70    72    78   am
    71    77    75    1
    72    28    27    1
    73    75    76    1
    74    25    24    1
    75    25    26    2
    76    78    79    1
    77    24    27    1
    78    24    23    1
    79    27    29    1
    80    84    86   ar
    81    84    83   ar
    82    82    79    1
    83    82    83    1
    84    79    80    1
    85    86    88   ar
    86    83    85   ar
    87    80    90   am
    88    80    81    2
    89    88    89    1
    90    88    87   ar
    91    85    87   ar
    92    90    91    1
    93    96    94    1
    94    93    92    2
    95    91    94    1
    96    91    92    1
    97    94    95    1
