@<TRIPOS>MOLECULE
tmp/4d5dB06.pdb
 71 68 0 0 0
SMALL
GASTEIGER

@<TRIPOS>ATOM
      1  N        -30.0930    7.0530   43.4340 N.3   218  ASP218     -0.1225
      2  CA       -28.7370    6.5780   43.6890 C.3   218  ASP218      0.1805
      3  C        -28.0510    6.1290   42.4080 C.2   218  ASP218      0.2597
      4  O        -27.3410    5.1220   42.3820 O.2   218  ASP218     -0.2718
      5  CB       -28.7470    5.4520   44.7230 C.3   218  ASP218      0.1424
      6  CG       -29.0280    5.9620   46.1260 C.2   218  ASP218      0.3668
      7  OD1      -28.1070    6.5520   46.7290 O.co2 218  ASP218     -0.2456
      8  OD2      -30.1660    5.7860   46.6170 O.co2 218  ASP218     -0.2456
      9  N        -28.2650    6.9000   41.3470 N.am  219  ALA219     -0.1979
     10  CA       -27.6350    6.6390   40.0660 C.3   219  ALA219      0.1597
     11  C        -27.3930    7.9630   39.3480 C.2   219  ALA219      0.2287
     12  O        -27.1590    8.9920   39.9790 O.2   219  ALA219     -0.2864
     13  CB       -28.4950    5.6990   39.2210 C.3   219  ALA219      0.0319
     14  N        -26.8070    9.8660   29.0570 N.3   259  TYR259     -0.1241
     15  CA       -26.7900    9.4680   30.4440 C.3   259  TYR259      0.1605
     16  C        -25.4480    9.8570   31.0200 C.2   259  TYR259      0.2264
     17  O        -24.4060    9.6320   30.3960 O.2   259  TYR259     -0.2867
     18  CB       -27.0450    7.9680   30.5700 C.3   259  TYR259      0.0534
     19  CG       -27.0290    7.4560   31.9880 C.ar  259  TYR259     -0.0201
     20  CD1      -28.0880    7.7190   32.8520 C.ar  259  TYR259     -0.0009
     21  CD2      -25.9510    6.7200   32.4710 C.ar  259  TYR259     -0.0009
     22  CE1      -28.0800    7.2600   34.1580 C.ar  259  TYR259      0.0417
     23  CE2      -25.9370    6.2460   33.7830 C.ar  259  TYR259      0.0417
     24  CZ       -27.0070    6.5200   34.6180 C.ar  259  TYR259      0.1957
     25  OH       -26.9980    6.0660   35.9280 O.3   259  TYR259     -0.2866
     26  N        -23.1780    9.7890   34.8170 N.3   261  GLN261     -0.1231
     27  CA       -23.1710    9.3090   36.1830 C.3   261  GLN261      0.1698
     28  C        -21.8050    9.4370   36.8370 C.2   261  GLN261      0.2593
     29  O        -20.7740    9.2100   36.1990 O.2   261  GLN261     -0.2718
     30  CB       -23.6320    7.8600   36.2120 C.3   261  GLN261      0.0381
     31  CG       -23.9400    7.3540   37.5900 C.3   261  GLN261      0.0905
     32  CD       -23.8130    5.8630   37.6590 C.2   261  GLN261      0.2608
     33  OE1      -22.9610    5.3480   38.3750 O.2   261  GLN261     -0.2717
     34  NE2      -24.6450    5.1520   36.8960 N.am  261  GLN261     -0.0878
     35  N        -21.8110    9.8300   38.1080 N.am  262  SER262     -0.1938
     36  CA       -20.6170    9.7830   38.9320 C.3   262  SER262      0.2055
     37  C        -20.2440    8.3390   39.2200 C.2   262  SER262      0.2643
     38  O        -21.1130    7.4820   39.3840 O.2   262  SER262     -0.2714
     39  CB       -20.8330   10.5340   40.2530 C.3   262  SER262      0.2130
     40  OG       -21.2150   11.8730   39.9880 O.3   262  SER262     -0.2179
     41  N        -18.9470    8.0700   39.2750 N.am  263  ILE263     -0.1963
     42  CA       -18.4650    6.7400   39.6160 C.3   263  ILE263      0.1727
     43  C        -17.4230    6.8650   40.7160 C.2   263  ILE263      0.2616
     44  O        -16.3170    7.3460   40.4750 O.2   263  ILE263     -0.2715
     45  CB       -17.8690    6.0220   38.3960 C.3   263  ILE263      0.0290
     46  CG1      -18.8770    6.0000   37.2430 C.3   263  ILE263      0.0022
     47  CG2      -17.5080    4.6010   38.7730 C.3   263  ILE263      0.0023
     48  CD1      -18.3050    5.5140   35.9230 C.3   263  ILE263      0.0001
     49  N        -17.7790    6.4490   41.9270 N.am  264  GLY264     -0.1955
     50  CA       -16.9250    6.6910   43.0760 C.3   264  GLY264      0.1869
     51  C        -16.9130    8.1810   43.3520 C.2   264  GLY264      0.2309
     52  O        -17.8250    8.9080   42.9490 O.2   264  GLY264     -0.2863
     53  N        -18.7460    9.9130   34.2500 N.3   269  ALA269     -0.1231
     54  CA       -18.7770    9.4350   32.8680 C.3   269  ALA269      0.1694
     55  C        -20.0980    9.7430   32.1850 C.2   269  ALA269      0.2592
     56  O        -21.1460    9.8040   32.8310 O.2   269  ALA269     -0.2718
     57  CB       -18.4930    7.9200   32.8340 C.3   269  ALA269      0.0304
     58  N        -20.0420    9.9340   30.8690 N.am  270  LYS270     -0.1966
     59  CA       -21.1970   10.3690   30.1010 C.3   270  LYS270      0.1728
     60  C        -21.1850    9.7210   28.7310 C.2   270  LYS270      0.2616
     61  O        -20.1270    9.6180   28.1060 O.2   270  LYS270     -0.2715
     62  CB       -21.1990   11.8960   29.9630 C.3   270  LYS270      0.0311
     63  CG       -22.2020   12.4540   28.9690 C.3   270  LYS270      0.0038
     64  CD       -22.3200   13.9670   29.1320 C.3   270  LYS270      0.0206
     65  CE       -22.2990   14.6930   27.8050 C.3   270  LYS270      0.1093
     66  NZ       -22.2590   16.1700   28.0220 N.3   270  LYS270     -0.1314
     67  N        -22.3570    9.2950   28.2630 N.am  271  ALA271     -0.1977
     68  CA       -22.5030    8.8170   26.8900 C.3   271  ALA271      0.1597
     69  C        -23.7800    9.3760   26.2910 C.2   271  ALA271      0.2287
     70  O        -24.7700    9.5730   26.9910 O.2   271  ALA271     -0.2864
     71  CB       -22.5140    7.2970   26.8340 C.3   271  ALA271      0.0319
@<TRIPOS>BOND
     1    69    68    1
     2    69    70    2
     3    71    68    1
     4    68    67    1
     5    65    66    1
     6    65    64    1
     7    61    60    2
     8    67    60   am
     9    60    59    1
    10    63    64    1
    11    63    62    1
    12    14    15    1
    13    62    59    1
    14    59    58    1
    15    17    16    2
    16    15    18    1
    17    15    16    1
    18    18    19    1
    19    58    55   am
    20    19    21   ar
    21    19    20   ar
    22    55    56    2
    23    55    54    1
    24    21    23   ar
    25    57    54    1
    26    20    22   ar
    27    54    53    1
    28    23    24   ar
    29    22    24   ar
    30    24    25    1
    31    26    27    1
    32    48    46    1
    33    27    30    1
    34    27    28    1
    35    29    28    2
    36    30    31    1
    37    28    35   am
    38    34    32   am
    39    46    45    1
    40    31    32    1
    41    32    33    2
    42    35    36    1
    43    45    47    1
    44    45    42    1
    45    36    37    1
    46    36    39    1
    47    37    41   am
    48    37    38    2
    49    13    10    1
    50    41    42    1
    51    11    12    2
    52    11    10    1
    53    42    43    1
    54    40    39    1
    55    10     9    1
    56    44    43    2
    57    43    49   am
    58     9     3   am
    59    49    50    1
    60     4     3    2
    61     3     2    1
    62    52    51    2
    63    50    51    1
    64     1     2    1
    65     2     5    1
    66     5     6    1
    67     6     8   ar
    68     6     7   ar
