@<TRIPOS>MOLECULE
tmp/4d5dB08.pdb
 92 91 0 0 0
SMALL
GASTEIGER

@<TRIPOS>ATOM
      1  N        -23.6500   37.6180   36.1320 N.3    93  THR93      -0.1203
      2  CA       -23.3190   37.9800   34.7610 C.3    93  THR93       0.1994
      3  C        -21.8600   37.6070   34.5400 C.2    93  THR93       0.2618
      4  O        -21.2010   37.0770   35.4410 O.2    93  THR93      -0.2717
      5  CB       -23.5830   39.4850   34.4930 C.3    93  THR93       0.1784
      6  OG1      -23.3960   39.7840   33.1010 O.3    93  THR93      -0.2211
      7  CG2      -22.6520   40.3690   35.3360 C.3    93  THR93       0.0376
      8  N        -21.3490   37.8500   33.3450 N.am   94  GLY94      -0.1942
      9  CA       -19.9770   37.4940   33.0950 C.3    94  GLY94       0.2014
     10  C        -19.6480   37.6260   31.6310 C.2    94  GLY94       0.2638
     11  O        -20.4850   38.0440   30.8290 O.2    94  GLY94      -0.2714
     12  N        -18.4260   37.2430   31.2910 N.am   95  LEU95      -0.1977
     13  CA       -17.9500   37.3390   29.9220 C.3    95  LEU95       0.1596
     14  C        -17.1120   36.1260   29.6050 C.2    95  LEU95       0.2287
     15  O        -16.2150   35.7600   30.3740 O.2    95  LEU95      -0.2864
     16  CB       -17.1180   38.6070   29.7190 C.3    95  LEU95       0.0297
     17  CG       -16.6250   38.8230   28.2800 C.3    95  LEU95       0.0022
     18  CD1      -17.8160   39.0040   27.3500 C.3    95  LEU95       0.0001
     19  CD2      -15.6910   40.0460   28.2410 C.3    95  LEU95       0.0001
     20  N        -20.9660   37.7170   26.2650 N.3   125  PRO125     -0.2102
     21  CA       -21.4750   38.2360   27.5410 C.3   125  PRO125      0.1504
     22  C        -22.7080   37.4350   27.9470 C.2   125  PRO125      0.2576
     23  O        -23.5040   37.0790   27.0720 O.2   125  PRO125     -0.2718
     24  CB       -21.8240   39.6920   27.2270 C.3   125  PRO125      0.0282
     25  CG       -22.0090   39.7370   25.7530 C.3   125  PRO125      0.0208
     26  CD       -21.2320   38.6160   25.1300 C.3   125  PRO125      0.0893
     27  N        -22.8710   37.1290   29.2280 N.am  126  TYR126     -0.1963
     28  CA       -24.0280   36.3200   29.6080 C.3   126  TYR126      0.1771
     29  C        -24.7120   36.8600   30.8470 C.2   126  TYR126      0.2619
     30  O        -24.1640   37.6870   31.5860 O.2   126  TYR126     -0.2715
     31  CB       -23.6270   34.8430   29.8020 C.3   126  TYR126      0.0574
     32  CG       -22.6100   34.6000   30.8970 C.ar  126  TYR126     -0.0198
     33  CD1      -23.0050   34.4190   32.2230 C.ar  126  TYR126     -0.0009
     34  CD2      -21.2570   34.5140   30.6000 C.ar  126  TYR126     -0.0009
     35  CE1      -22.0620   34.1970   33.2360 C.ar  126  TYR126      0.0417
     36  CE2      -20.3130   34.2930   31.5940 C.ar  126  TYR126      0.0417
     37  CZ       -20.7230   34.1400   32.9080 C.ar  126  TYR126      0.1957
     38  OH       -19.7840   33.9090   33.8790 O.3   126  TYR126     -0.2866
     39  N        -25.9250   36.3800   31.0700 N.am  127  LEU127     -0.1977
     40  CA       -26.7390   36.8230   32.1950 C.3   127  LEU127      0.1596
     41  C        -27.5640   35.6410   32.6880 C.2   127  LEU127      0.2287
     42  O        -28.2510   34.9710   31.9030 O.2   127  LEU127     -0.2864
     43  CB       -27.6390   37.9920   31.7790 C.3   127  LEU127      0.0297
     44  CG       -28.6420   38.5160   32.8180 C.3   127  LEU127      0.0022
     45  CD1      -27.9310   39.2750   33.9270 C.3   127  LEU127      0.0001
     46  CD2      -29.7010   39.3910   32.1620 C.3   127  LEU127      0.0001
     47  N        -28.8700   32.9400   29.7470 N.3   140  SER140     -0.1202
     48  CA       -29.0040   33.7250   28.5190 C.3   140  SER140      0.2020
     49  C        -27.6510   34.2910   28.1460 C.2   140  SER140      0.2619
     50  O        -26.8150   34.5230   29.0190 O.2   140  SER140     -0.2717
     51  CB       -30.0300   34.8550   28.6830 C.3   140  SER140      0.2103
     52  OG       -29.5450   35.9050   29.5150 O.3   140  SER140     -0.2182
     53  N        -27.4220   34.4890   26.8510 N.am  141  ASN141     -0.1960
     54  CA       -26.1810   35.1220   26.4120 C.3   141  ASN141      0.1819
     55  C        -26.3360   35.7110   25.0320 C.2   141  ASN141      0.2621
     56  O        -27.2530   35.3470   24.2800 O.2   141  ASN141     -0.2715
     57  CB       -24.9970   34.1280   26.4150 C.3   141  ASN141      0.1195
     58  CG       -25.0710   33.1110   25.2720 C.2   141  ASN141      0.2630
     59  OD1      -25.6450   32.0440   25.4280 O.2   141  ASN141     -0.2716
     60  ND2      -24.4970   33.4490   24.1220 N.am  141  ASN141     -0.0877
     61  N        -25.4360   36.6360   24.7210 N.am  142  LEU142     -0.1977
     62  CA       -25.2410   37.1180   23.3690 C.3   142  LEU142      0.1596
     63  C        -23.9150   36.5580   22.8890 C.2   142  LEU142      0.2287
     64  O        -23.1240   36.0580   23.6860 O.2   142  LEU142     -0.2864
     65  CB       -25.2300   38.6470   23.3270 C.3   142  LEU142      0.0297
     66  CG       -26.5070   39.3210   23.8250 C.3   142  LEU142      0.0022
     67  CD1      -26.3610   40.8180   23.7340 C.3   142  LEU142      0.0001
     68  CD2      -27.6920   38.8430   22.9930 C.3   142  LEU142      0.0001
     69  N        -28.0440   35.0630   19.8380 N.3   164  ALA164     -0.1231
     70  CA       -28.6650   35.2680   21.1320 C.3   164  ALA164      0.1694
     71  C        -29.2770   33.9410   21.5510 C.2   164  ALA164      0.2592
     72  O        -29.8680   33.2260   20.7290 O.2   164  ALA164     -0.2718
     73  CB       -29.7220   36.3610   21.0640 C.3   164  ALA164      0.0304
     74  N        -29.1210   33.6110   22.8270 N.am  165  LEU165     -0.1966
     75  CA       -29.6290   32.3690   23.3710 C.3   165  LEU165      0.1728
     76  C        -30.3740   32.6770   24.6610 C.2   165  LEU165      0.2616
     77  O        -29.8930   33.4380   25.5010 O.2   165  LEU165     -0.2715
     78  CB       -28.4810   31.3830   23.6070 C.3   165  LEU165      0.0311
     79  CG       -28.8030   29.9880   24.1550 C.3   165  LEU165      0.0022
     80  CD1      -27.7620   28.9910   23.6510 C.3   165  LEU165      0.0001
     81  CD2      -28.8210   29.9960   25.6680 C.3   165  LEU165      0.0001
     82  N        -31.5600   32.0980   24.8070 N.am  166  PHE166     -0.1974
     83  CA       -32.3410   32.2460   26.0350 C.3   166  PHE166      0.1639
     84  C        -32.8480   30.8720   26.4210 C.2   166  PHE166      0.2290
     85  O        -33.5390   30.2260   25.6320 O.2   166  PHE166     -0.2864
     86  CB       -33.4840   33.2360   25.8240 C.3   166  PHE166      0.0560
     87  CG       -34.4430   33.3410   26.9860 C.ar  166  PHE166     -0.0200
     88  CD1      -34.0060   33.7620   28.2340 C.ar  166  PHE166     -0.0042
     89  CD2      -35.7870   33.0600   26.8150 C.ar  166  PHE166     -0.0042
     90  CE1      -34.8950   33.8840   29.3030 C.ar  166  PHE166     -0.0003
     91  CE2      -36.6800   33.1760   27.8740 C.ar  166  PHE166     -0.0003
     92  CZ       -36.2250   33.5860   29.1250 C.ar  166  PHE166     -0.0000
@<TRIPOS>BOND
     1    69    70    1
     2    72    71    2
     3    73    70    1
     4    70    71    1
     5    71    74   am
     6    74    75    1
     7    63    62    1
     8    63    64    2
     9    68    66    1
    10    65    62    1
    11    65    66    1
    12    62    61    1
    13    75    78    1
    14    75    76    1
    15    78    79    1
    16    80    79    1
    17    67    66    1
    18    60    58   am
    19    79    81    1
    20    56    55    2
    21    76    82   am
    22    76    77    2
    23    61    55   am
    24    82    83    1
    25    55    54    1
    26    26    25    1
    27    26    20    1
    28    58    59    2
    29    58    57    1
    30    85    84    2
    31    25    24    1
    32    86    83    1
    33    86    87    1
    34    83    84    1
    35    20    21    1
    36    54    57    1
    37    54    53    1
    38    89    87   ar
    39    89    91   ar
    40    53    49   am
    41    87    88   ar
    42    23    22    2
    43    24    21    1
    44    18    17    1
    45    21    22    1
    46    91    92   ar
    47    22    27   am
    48    49    48    1
    49    49    50    2
    50    88    90   ar
    51    19    17    1
    52    17    16    1
    53    48    51    1
    54    48    47    1
    55    51    52    1
    56    92    90   ar
    57    27    28    1
    58    14    13    1
    59    14    15    2
    60    28    31    1
    61    28    29    1
    62    16    13    1
    63    31    32    1
    64    13    12    1
    65    34    32   ar
    66    34    36   ar
    67    11    10    2
    68    29    39   am
    69    29    30    2
    70    32    33   ar
    71    39    40    1
    72    12    10   am
    73    36    37   ar
    74    10     9    1
    75    43    40    1
    76    43    44    1
    77    42    41    2
    78    46    44    1
    79    40    41    1
    80    33    35   ar
    81    44    45    1
    82    37    35   ar
    83    37    38    1
    84     9     8    1
    85     6     5    1
    86     8     3   am
    87     5     2    1
    88     5     7    1
    89     3     2    1
    90     3     4    2
    91     2     1    1
