@<TRIPOS>MOLECULE
tmp/4d5dA10.pdb
 110 108 0 0 0
SMALL
GASTEIGER

@<TRIPOS>ATOM
      1  N         18.9820    0.7370   15.9340 N.3   218  PHE218     -0.1241
      2  CA        18.8540   -0.4140   15.0500 C.3   218  PHE218      0.1605
      3  C         18.1780    0.0060   13.7570 C.2   218  PHE218      0.2264
      4  O         17.1380    0.6750   13.8000 O.2   218  PHE218     -0.2867
      5  CB        18.0480   -1.5250   15.7270 C.3   218  PHE218      0.0534
      6  CG        18.7260   -2.1200   16.9230 C.ar  218  PHE218     -0.0203
      7  CD1       18.5230   -1.5880   18.1850 C.ar  218  PHE218     -0.0042
      8  CD2       19.5680   -3.2120   16.7810 C.ar  218  PHE218     -0.0042
      9  CE1       19.1520   -2.1380   19.2990 C.ar  218  PHE218     -0.0003
     10  CE2       20.1990   -3.7650   17.8810 C.ar  218  PHE218     -0.0003
     11  CZ        19.9910   -3.2270   19.1430 C.ar  218  PHE218     -0.0000
     12  N         14.5430   -0.9740   13.5730 N.3   221  ALA221     -0.1245
     13  CA        13.8420   -0.8430   14.8410 C.3   221  ALA221      0.1562
     14  C         14.1560    0.4610   15.5870 C.2   221  ALA221      0.2260
     15  O         14.3190    1.5260   14.9810 O.2   221  ALA221     -0.2867
     16  CB        14.1570   -2.0400   15.7170 C.3   221  ALA221      0.0290
     17  N         18.3180    1.7950   21.5130 N.3   224  LEU224     -0.1245
     18  CA        18.6370    1.2650   22.8350 C.3   224  LEU224      0.1561
     19  C         19.6830    2.1540   23.4660 C.2   224  LEU224      0.2260
     20  O         20.6270    2.5670   22.7870 O.2   224  LEU224     -0.2867
     21  CB        19.1500   -0.1740   22.7110 C.3   224  LEU224      0.0270
     22  CG        19.6410   -0.9040   23.9670 C.3   224  LEU224      0.0019
     23  CD1       18.4900   -1.1830   24.9230 C.3   224  LEU224      0.0001
     24  CD2       20.3280   -2.2090   23.5630 C.3   224  LEU224      0.0001
     25  N         18.8420    1.9930   31.7750 N.3   259  VAL259     -0.1231
     26  CA        18.7500    1.3330   30.4720 C.3   259  VAL259      0.1692
     27  C         17.3590    1.6140   29.9170 C.2   259  VAL259      0.2593
     28  O         16.3680    1.5080   30.6370 O.2   259  VAL259     -0.2718
     29  CB        18.9970   -0.1890   30.5660 C.3   259  VAL259      0.0266
     30  CG1       18.8520   -0.8340   29.1910 C.3   259  VAL259      0.0020
     31  CG2       20.3970   -0.4680   31.0960 C.3   259  VAL259      0.0020
     32  N         17.2850    2.0120   28.6530 N.am  260  GLY260     -0.1942
     33  CA        16.0090    2.3560   28.0650 C.3   260  GLY260      0.2014
     34  C         15.9430    1.9960   26.6010 C.2   260  GLY260      0.2638
     35  O         16.9640    1.7520   25.9610 O.2   260  GLY260     -0.2714
     36  N         14.7320    1.9690   26.0640 N.am  261  TYR261     -0.1973
     37  CA        14.5310    1.6480   24.6600 C.3   261  TYR261      0.1639
     38  C         13.3490    2.4250   24.1530 C.2   261  TYR261      0.2290
     39  O         12.3090    2.4880   24.8140 O.2   261  TYR261     -0.2864
     40  CB        14.2990    0.1430   24.4610 C.3   261  TYR261      0.0560
     41  CG        14.0660   -0.2530   23.0150 C.ar  261  TYR261     -0.0198
     42  CD1       15.1290   -0.3080   22.1130 C.ar  261  TYR261     -0.0009
     43  CD2       12.7890   -0.5720   22.5470 C.ar  261  TYR261     -0.0009
     44  CE1       14.9330   -0.6920   20.7760 C.ar  261  TYR261      0.0417
     45  CE2       12.5800   -0.9470   21.2010 C.ar  261  TYR261      0.0417
     46  CZ        13.6650   -1.0090   20.3330 C.ar  261  TYR261      0.1957
     47  OH        13.4900   -1.3650   19.0170 O.3   261  TYR261     -0.2866
     48  N         11.0440    3.1860   20.4850 N.3   263  GLN263     -0.1245
     49  CA        10.8080    2.7910   19.1020 C.3   263  GLN263      0.1566
     50  C          9.5710    3.4510   18.5090 C.2   263  GLN263      0.2260
     51  O          8.5620    3.6160   19.1950 O.2   263  GLN263     -0.2867
     52  CB        10.6750    1.2690   19.0100 C.3   263  GLN263      0.0367
     53  CG        10.5730    0.7820   17.5660 C.3   263  GLN263      0.0905
     54  CD        10.3570   -0.7040   17.4600 C.2   263  GLN263      0.2608
     55  OE1       10.8420   -1.4740   18.2890 O.2   263  GLN263     -0.2717
     56  NE2        9.6260   -1.1210   16.4340 N.am  263  GLN263     -0.0878
     57  N         10.3930    2.7990   27.0310 N.3   273  ALA273     -0.1231
     58  CA        10.4060    2.1850   28.3520 C.3   273  ALA273      0.1694
     59  C         11.8010    2.3260   28.9170 C.2   273  ALA273      0.2592
     60  O         12.7880    2.2350   28.1770 O.2   273  ALA273     -0.2718
     61  CB         9.9960    0.7010   28.2900 C.3   273  ALA273      0.0304
     62  N         11.8820    2.5220   30.2300 N.am  274  GLU274     -0.1966
     63  CA        13.1500    2.7850   30.8610 C.3   274  GLU274      0.1733
     64  C         13.1740    2.2580   32.2920 C.2   274  GLU274      0.2616
     65  O         12.1580    2.3160   32.9950 O.2   274  GLU274     -0.2715
     66  CB        13.4160    4.2990   30.8180 C.3   274  GLU274      0.0429
     67  CG        14.6230    4.7490   31.5670 C.3   274  GLU274      0.1163
     68  CD        14.8010    6.2520   31.4850 C.2   274  GLU274      0.3649
     69  OE1       14.9320    6.7680   30.3540 O.co2 274  GLU274     -0.2457
     70  OE2       14.7870    6.9060   32.5490 O.co2 274  GLU274     -0.2457
     71  N         14.3290    1.7300   32.6980 N.am  275  TYR275     -0.1974
     72  CA        14.5730    1.2860   34.0830 C.3   275  TYR275      0.1639
     73  C         15.7560    2.0630   34.6220 C.2   275  TYR275      0.2290
     74  O         16.7650    2.2070   33.9310 O.2   275  TYR275     -0.2864
     75  CB        14.8700   -0.2300   34.1640 C.3   275  TYR275      0.0560
     76  CG        15.5320   -0.6180   35.4760 C.ar  275  TYR275     -0.0198
     77  CD1       14.7820   -0.7330   36.6380 C.ar  275  TYR275     -0.0009
     78  CD2       16.9080   -0.8160   35.5640 C.ar  275  TYR275     -0.0009
     79  CE1       15.3810   -1.0420   37.8570 C.ar  275  TYR275      0.0417
     80  CE2       17.5150   -1.1320   36.7800 C.ar  275  TYR275      0.0417
     81  CZ        16.7450   -1.2460   37.9210 C.ar  275  TYR275      0.1957
     82  OH        17.3280   -1.5480   39.1410 O.3   275  TYR275     -0.2866
     83  N         10.7150    2.5470   37.2630 N.3   303  PHE303     -0.1227
     84  CA        10.2270    1.9970   36.0020 C.3   303  PHE303      0.1736
     85  C          9.3940    3.0480   35.3160 C.2   303  PHE303      0.2595
     86  O          8.5340    3.6740   35.9430 O.2   303  PHE303     -0.2718
     87  CB         9.3980    0.7310   36.2520 C.3   303  PHE303      0.0547
     88  CG        10.0610   -0.2230   37.1850 C.ar  303  PHE303     -0.0202
     89  CD1       10.0390   -0.0010   38.5610 C.ar  303  PHE303     -0.0042
     90  CD2       10.7430   -1.3190   36.6960 C.ar  303  PHE303     -0.0042
     91  CE1       10.6850   -0.8630   39.4290 C.ar  303  PHE303     -0.0003
     92  CE2       11.3780   -2.1850   37.5600 C.ar  303  PHE303     -0.0003
     93  CZ        11.3480   -1.9540   38.9250 C.ar  303  PHE303     -0.0000
     94  N          9.6450    3.2570   34.0320 N.am  304  TYR304     -0.1962
     95  CA         9.0170    4.3690   33.3290 C.3   304  TYR304      0.1771
     96  C          8.5640    3.8930   31.9580 C.2   304  TYR304      0.2619
     97  O          9.3130    3.2050   31.2690 O.2   304  TYR304     -0.2715
     98  CB         9.9960    5.5420   33.2070 C.3   304  TYR304      0.0574
     99  CG         9.4820    6.6940   32.3800 C.ar  304  TYR304     -0.0198
    100  CD1        8.6140    7.6320   32.9360 C.ar  304  TYR304     -0.0009
    101  CD2        9.8610    6.8520   31.0480 C.ar  304  TYR304     -0.0009
    102  CE1        8.1350    8.6900   32.1980 C.ar  304  TYR304      0.0417
    103  CE2        9.3840    7.9310   30.2870 C.ar  304  TYR304      0.0417
    104  CZ         8.5210    8.8380   30.8780 C.ar  304  TYR304      0.1957
    105  OH         8.0390    9.8940   30.1600 O.3   304  TYR304     -0.2866
    106  N          7.3370    4.2330   31.5770 N.am  305  ALA305     -0.1977
    107  CA         6.8470    3.9150   30.2400 C.3   305  ALA305      0.1597
    108  C          6.0420    5.0850   29.6990 C.2   305  ALA305      0.2287
    109  O          5.2870    5.7320   30.4310 O.2   305  ALA305     -0.2864
    110  CB         6.0060    2.6440   30.2490 C.3   305  ALA305      0.0319
@<TRIPOS>BOND
     1    12    13    1
     2     3     4    2
     3     3     2    1
     4    13    14    1
     5    13    16    1
     6    15    14    2
     7     2     5    1
     8     2     1    1
     9     5     6    1
    10    56    54   am
    11     8     6   ar
    12     8    10   ar
    13     6     7   ar
    14    54    53    1
    15    54    55    2
    16    53    52    1
    17    10    11   ar
    18     7     9   ar
    19    50    49    1
    20    50    51    2
    21    52    49    1
    22    47    46    1
    23    49    48    1
    24    11     9   ar
    25    46    44   ar
    26    46    45   ar
    27    44    42   ar
    28    45    43   ar
    29    17    18    1
    30    42    41   ar
    31    43    41   ar
    32    21    18    1
    33    21    22    1
    34    20    19    2
    35    18    19    1
    36    41    40    1
    37    24    22    1
    38    22    23    1
    39    38    37    1
    40    38    39    2
    41    40    37    1
    42    37    36    1
    43    35    34    2
    44    36    34   am
    45    34    33    1
    46    57    58    1
    47    33    32    1
    48    60    59    2
    49    61    58    1
    50    58    59    1
    51    32    27   am
    52    59    62   am
    53    30    29    1
    54   108   107    1
    55   108   109    2
    56    27    26    1
    57    27    28    2
    58   105   104    1
    59    62    63    1
    60   107   110    1
    61   107   106    1
    62   103   104   ar
    63   103   101   ar
    64    69    68   ar
    65    26    29    1
    66    26    25    1
    67    29    31    1
    68    66    63    1
    69    66    67    1
    70    63    64    1
    71   104   102   ar
    72   101    99   ar
    73    97    96    2
    74    68    67    1
    75    68    70   ar
    76   106    96   am
    77    96    95    1
    78   102   100   ar
    79    64    71   am
    80    64    65    2
    81    99   100   ar
    82    99    98    1
    83    71    72    1
    84    98    95    1
    85    95    94    1
    86    74    73    2
    87    94    85   am
    88    72    75    1
    89    72    73    1
    90    75    76    1
    91    85    86    2
    92    85    84    1
    93    76    78   ar
    94    76    77   ar
    95    78    80   ar
    96    84    87    1
    97    84    83    1
    98    87    88    1
    99    77    79   ar
   100    90    88   ar
   101    90    92   ar
   102    80    81   ar
   103    88    89   ar
   104    92    93   ar
   105    79    81   ar
   106    81    82    1
   107    89    91   ar
   108    93    91   ar
