@<TRIPOS>MOLECULE
tmp/4d5dB04.pdb
 186 176 0 0 0
SMALL
GASTEIGER

@<TRIPOS>ATOM
      1  N        -28.1070   17.6270   -4.1270 N.3    24  PHE24      -0.1227
      2  CA       -28.8740   18.0350   -5.2980 C.3    24  PHE24       0.1736
      3  C        -28.5670   17.1730   -6.5140 C.2    24  PHE24       0.2595
      4  O        -29.3110   17.1950   -7.4930 O.2    24  PHE24      -0.2718
      5  CB       -28.5980   19.4950   -5.6320 C.3    24  PHE24       0.0547
      6  CG       -28.9680   20.4470   -4.5310 C.ar   24  PHE24      -0.0202
      7  CD1      -30.2910   20.8130   -4.3310 C.ar   24  PHE24      -0.0042
      8  CD2      -27.9940   20.9730   -3.6960 C.ar   24  PHE24      -0.0042
      9  CE1      -30.6360   21.6950   -3.3210 C.ar   24  PHE24      -0.0003
     10  CE2      -28.3320   21.8500   -2.6840 C.ar   24  PHE24      -0.0003
     11  CZ       -29.6580   22.2130   -2.4960 C.ar   24  PHE24      -0.0000
     12  N        -27.4600   16.4390   -6.4570 N.am   25  ASN25      -0.1974
     13  CA       -27.1140   15.4950   -7.5090 C.3    25  ASN25       0.1688
     14  C        -27.8100   14.1590   -7.3000 C.2    25  ASN25       0.2292
     15  O        -27.6310   13.2350   -8.0830 O.2    25  ASN25      -0.2864
     16  CB       -25.6030   15.2870   -7.5670 C.3    25  ASN25       0.1181
     17  CG       -24.9760   15.0680   -6.1740 C.2    25  ASN25       0.2629
     18  OD1      -25.6720   14.8200   -5.1820 O.2    25  ASN25      -0.2716
     19  ND2      -23.6520   15.1690   -6.1090 N.am   25  ASN25      -0.0877
     20  N        -23.1440   11.3280   -0.4770 N.3    29  LYS29      -0.1245
     21  CA       -21.8270   11.6340    0.0350 C.3    29  LYS29       0.1561
     22  C        -21.7690   11.1070    1.4640 C.2    29  LYS29       0.2260
     23  O        -22.5280   11.5470    2.3300 O.2    29  LYS29      -0.2867
     24  CB       -21.5470   13.1360   -0.0110 C.3    29  LYS29       0.0271
     25  CG       -20.2370   13.5120    0.6480 C.3    29  LYS29       0.0035
     26  CD       -19.9180   14.9950    0.5090 C.3    29  LYS29       0.0206
     27  CE       -20.9450   15.8670    1.2000 C.3    29  LYS29       0.1093
     28  NZ       -20.4670   17.2780    1.2770 N.3    29  LYS29      -0.1314
     29  N        -14.2980   10.9350    3.6250 N.3    63  GLN63      -0.1245
     30  CA       -15.4400   11.2010    2.7490 C.3    63  GLN63       0.1566
     31  C        -15.3750   10.2750    1.5510 C.2    63  GLN63       0.2260
     32  O        -14.3050   10.1060    0.9650 O.2    63  GLN63      -0.2867
     33  CB       -15.4240   12.6640    2.2930 C.3    63  GLN63       0.0367
     34  CG       -16.4330   13.0550    1.2130 C.3    63  GLN63       0.0905
     35  CD       -16.2290   14.4970    0.7410 C.2    63  GLN63       0.2608
     36  OE1      -15.6800   15.3210    1.4690 O.2    63  GLN63      -0.2717
     37  NE2      -16.6560   14.7970   -0.4810 N.am   63  GLN63      -0.0878
     38  N        -17.8080    9.0800   -2.0710 N.3    65  GLU65      -0.1245
     39  CA       -18.9710    9.2980   -2.9180 C.3    65  GLU65       0.1567
     40  C        -18.6190    8.7620   -4.3060 C.2    65  GLU65       0.2260
     41  O        -17.4670    8.3890   -4.5280 O.2    65  GLU65      -0.2867
     42  CB       -19.3500   10.7780   -2.9500 C.3    65  GLU65       0.0388
     43  CG       -18.2950   11.6820   -3.5180 C.3    65  GLU65       0.1160
     44  CD       -18.7370   13.1300   -3.4990 C.2    65  GLU65       0.3649
     45  OE1      -19.3710   13.5810   -4.4800 O.co2  65  GLU65      -0.2457
     46  OE2      -18.4640   13.8110   -2.4940 O.co2  65  GLU65      -0.2457
     47  N        -15.1570    9.8660   -6.1910 N.3    68  TYR68      -0.1241
     48  CA       -14.3600   10.8020   -5.4010 C.3    68  TYR68       0.1605
     49  C        -14.2200   10.3460   -3.9580 C.2    68  TYR68       0.2264
     50  O        -15.1200    9.7120   -3.4110 O.2    68  TYR68      -0.2867
     51  CB       -14.9820   12.2060   -5.4290 C.3    68  TYR68       0.0534
     52  CG       -14.1610   13.2660   -4.7070 C.ar   68  TYR68      -0.0201
     53  CD1      -12.9650   13.7260   -5.2460 C.ar   68  TYR68      -0.0009
     54  CD2      -14.5890   13.8190   -3.4980 C.ar   68  TYR68      -0.0009
     55  CE1      -12.2100   14.6920   -4.6080 C.ar   68  TYR68       0.0417
     56  CE2      -13.8400   14.7910   -2.8500 C.ar   68  TYR68       0.0417
     57  CZ       -12.6480   15.2210   -3.4120 C.ar   68  TYR68       0.1957
     58  OH       -11.8880   16.1770   -2.7800 O.3    68  TYR68      -0.2866
     59  N        -12.1170   11.8270   -0.0900 N.3    70  GLU70      -0.1245
     60  CA       -11.3940   12.8920    0.5590 C.3    70  GLU70       0.1567
     61  C        -11.1110   12.4620    1.9830 C.2    70  GLU70       0.2260
     62  O        -12.0280   12.0300    2.6860 O.2    70  GLU70      -0.2867
     63  CB       -12.2270   14.1770    0.5240 C.3    70  GLU70       0.0388
     64  CG       -11.5240   15.4040    0.9990 C.3    70  GLU70       0.1160
     65  CD       -12.3580   16.6430    0.7890 C.2    70  GLU70       0.3649
     66  OE1      -12.6400   16.9870   -0.3880 O.co2  70  GLU70      -0.2457
     67  OE2      -12.7370   17.2630    1.8040 O.co2  70  GLU70      -0.2457
     68  N         -6.9300   14.5590   -6.1900 N.3   110  ASP110     -0.1239
     69  CA        -6.4250   15.7750   -6.8270 C.3   110  ASP110      0.1674
     70  C         -5.4670   16.5970   -5.9690 C.2   110  ASP110      0.2266
     71  O         -4.7310   17.4240   -6.4980 O.2   110  ASP110     -0.2867
     72  CB        -7.5940   16.6570   -7.2440 C.3   110  ASP110      0.1410
     73  CG        -8.6140   15.9030   -8.0530 C.2   110  ASP110      0.3668
     74  OD1       -8.2050   15.1820   -8.9870 O.co2 110  ASP110     -0.2456
     75  OD2       -9.8160   16.0110   -7.7420 O.co2 110  ASP110     -0.2456
     76  N         -7.6220   28.1390    3.1620 N.3   151  ARG151     -0.1245
     77  CA        -7.5030   26.8220    2.5380 C.3   151  ARG151      0.1563
     78  C         -6.5060   26.8550    1.3990 C.2   151  ARG151      0.2260
     79  O         -6.5910   26.0650    0.4660 O.2   151  ARG151     -0.2867
     80  CB        -8.8710   26.3400    2.0430 C.3   151  ARG151      0.0307
     81  CG        -9.9740   26.5570    3.0870 C.3   151  ARG151      0.0489
     82  CD       -11.1970   25.7000    2.8040 C.3   151  ARG151      0.2205
     83  NE       -12.1270   26.3430    1.8850 N.pl3 151  ARG151     -0.0865
     84  CZ       -13.3740   26.6810    2.1970 C.cat 151  ARG151      0.5346
     85  NH1      -13.8530   26.4340    3.4070 N.pl3 151  ARG151      0.1354
     86  NH2      -14.1440   27.2570    1.2900 N.pl3 151  ARG151      0.1354
     87  N         -7.4090   26.5140   -2.2950 N.3   154  TRP154     -0.1241
     88  CA        -8.8660   26.5050   -2.3760 C.3   154  TRP154      0.1605
     89  C         -9.4970   27.8090   -1.8680 C.2   154  TRP154      0.2264
     90  O        -10.7170   27.9180   -1.7770 O.2   154  TRP154     -0.2867
     91  CB        -9.4240   25.3120   -1.5980 C.3   154  TRP154      0.0550
     92  CG        -9.1730   23.9930   -2.2710 C.ar  154  TRP154      0.0003
     93  CD1       -8.6620   23.7910   -3.5310 C.ar  154  TRP154      0.0946
     94  CD2       -9.4320   22.6930   -1.7290 C.ar  154  TRP154      0.0152
     95  NE1       -8.5850   22.4400   -3.7970 N.ar  154  TRP154     -0.2442
     96  CE2       -9.0510   21.7470   -2.7080 C.ar  154  TRP154      0.0810
     97  CE3       -9.9510   22.2350   -0.5090 C.ar  154  TRP154      0.0012
     98  CZ2       -9.1750   20.3760   -2.5080 C.ar  154  TRP154      0.0191
     99  CZ3      -10.0690   20.8700   -0.3080 C.ar  154  TRP154      0.0001
    100  CH2       -9.6790   19.9540   -1.3050 C.ar  154  TRP154      0.0015
    101  N        -16.4440   34.2600    0.8720 N.3   190  GLU190     -0.1245
    102  CA       -15.4660   33.2860    0.4290 C.3   190  GLU190      0.1567
    103  C        -14.8610   33.6890   -0.9090 C.2   190  GLU190      0.2260
    104  O        -15.5820   34.0010   -1.8720 O.2   190  GLU190     -0.2867
    105  CB       -16.0960   31.8980    0.3230 C.3   190  GLU190      0.0388
    106  CG       -15.0640   30.8330    0.0210 C.3   190  GLU190      0.1160
    107  CD       -15.6650   29.4600   -0.1740 C.2   190  GLU190      0.3649
    108  OE1      -16.4500   29.0070    0.6820 O.co2 190  GLU190     -0.2457
    109  OE2      -15.3390   28.8320   -1.1930 O.co2 190  GLU190     -0.2457
    110  N        -11.5490   33.0720   -3.9400 N.3   192  GLN192     -0.1245
    111  CA       -10.4210   32.3370   -4.5010 C.3   192  GLN192      0.1566
    112  C         -9.1310   33.1150   -4.2490 C.2   192  GLN192      0.2260
    113  O         -9.1930   34.2960   -3.9110 O.2   192  GLN192     -0.2867
    114  CB       -10.6310   32.1050   -6.0010 C.3   192  GLN192      0.0367
    115  CG       -11.8200   31.2060   -6.3020 C.3   192  GLN192      0.0905
    116  CD       -12.0960   31.1030   -7.7790 C.2   192  GLN192      0.2608
    117  OE1      -11.1770   31.1640   -8.5940 O.2   192  GLN192     -0.2717
    118  NE2      -13.3660   30.9640   -8.1390 N.am  192  GLN192     -0.0878
    119  N        -16.3960   33.4370   -4.5340 N.3   198  ASN198     -0.1225
    120  CA       -17.1580   32.2010   -4.5230 C.3   198  ASN198      0.1785
    121  C        -18.5290   32.4410   -3.9010 C.2   198  ASN198      0.2597
    122  O        -19.5610   32.0550   -4.4510 O.2   198  ASN198     -0.2718
    123  CB       -16.4150   31.1130   -3.7430 C.3   198  ASN198      0.1169
    124  CG       -15.2460   30.5360   -4.5190 C.2   198  ASN198      0.2627
    125  OD1      -15.1830   30.6450   -5.7430 O.2   198  ASN198     -0.2716
    126  ND2      -14.3130   29.9090   -3.8050 N.am  198  ASN198     -0.0877
    127  N        -18.5240   33.0790   -2.7370 N.am  199  GLU199     -0.1979
    128  CA       -19.7580   33.3400   -2.0190 C.3   199  GLU199      0.1602
    129  C        -19.7290   34.6870   -1.3110 C.2   199  GLU199      0.2287
    130  O        -18.7460   35.0700   -0.6720 O.2   199  GLU199     -0.2864
    131  CB       -20.0360   32.2270   -0.9970 C.3   199  GLU199      0.0415
    132  CG       -21.3440   32.4190   -0.2190 C.3   199  GLU199      0.1163
    133  CD       -21.7280   31.1970    0.6050 C.2   199  GLU199      0.3649
    134  OE1      -20.8560   30.3290    0.8230 O.co2 199  GLU199     -0.2457
    135  OE2      -22.9010   31.1050    1.0320 O.co2 199  GLU199     -0.2457
    136  N        -20.5070   33.4450   -6.6570 N.3   240  GLY240     -0.1210
    137  CA       -20.1490   32.7020   -7.8510 C.3   240  GLY240      0.1956
    138  C        -20.7510   31.3070   -7.8640 C.2   240  GLY240      0.2612
    139  O        -21.6470   31.0040   -7.0800 O.2   240  GLY240     -0.2717
    140  N        -20.2640   30.4610   -8.7670 N.am  241  GLY241     -0.1956
    141  CA       -20.7020   29.0790   -8.8450 C.3   241  GLY241      0.1869
    142  C        -22.1540   28.8890   -9.2400 C.2   241  GLY241      0.2309
    143  O        -22.7280   27.8270   -9.0050 O.2   241  GLY241     -0.2863
    144  N        -24.4910   30.7000   -7.9270 N.3   243  ASN243     -0.1240
    145  CA       -25.2880   31.0030   -6.7490 C.3   243  ASN243      0.1653
    146  C        -25.6920   32.4660   -6.6120 C.2   243  ASN243      0.2266
    147  O        -26.2680   32.8450   -5.6020 O.2   243  ASN243     -0.2867
    148  CB       -24.5370   30.5510   -5.4940 C.3   243  ASN243      0.1155
    149  CG       -24.6500   29.0640   -5.2790 C.2   243  ASN243      0.2627
    150  OD1      -25.7500   28.5100   -5.3170 O.2   243  ASN243     -0.2716
    151  ND2      -23.5180   28.4010   -5.0830 N.am  243  ASN243     -0.0877
    152  N        -31.0070   29.6060   -0.0950 N.3   248  TYR248     -0.1241
    153  CA       -31.1050   28.2490    0.4170 C.3   248  TYR248      0.1605
    154  C        -31.9200   28.2530    1.7060 C.2   248  TYR248      0.2264
    155  O        -31.7030   29.0870    2.5770 O.2   248  TYR248     -0.2867
    156  CB       -29.7120   27.6510    0.6830 C.3   248  TYR248      0.0534
    157  CG       -28.8960   27.3480   -0.5580 C.ar  248  TYR248     -0.0201
    158  CD1      -28.3480   28.3720   -1.3310 C.ar  248  TYR248     -0.0009
    159  CD2      -28.6470   26.0330   -0.9430 C.ar  248  TYR248     -0.0009
    160  CE1      -27.5950   28.0950   -2.4660 C.ar  248  TYR248      0.0417
    161  CE2      -27.8880   25.7470   -2.0670 C.ar  248  TYR248      0.0417
    162  CZ       -27.3690   26.7810   -2.8250 C.ar  248  TYR248      0.1957
    163  OH       -26.6170   26.4900   -3.9370 O.3   248  TYR248     -0.2866
    164  N        -33.3070   25.0090   -2.6510 N.3   282  LYS282     -0.1245
    165  CA       -32.9560   26.2960   -3.2470 C.3   282  LYS282      0.1561
    166  C        -34.1870   27.0110   -3.7750 C.2   282  LYS282      0.2260
    167  O        -35.2020   26.3770   -4.0960 O.2   282  LYS282     -0.2867
    168  CB       -31.9840   26.1400   -4.4210 C.3   282  LYS282      0.0271
    169  CG       -30.7960   25.2510   -4.2170 C.3   282  LYS282      0.0035
    170  CD       -29.9170   25.3240   -5.4610 C.3   282  LYS282      0.0206
    171  CE       -28.7290   24.4100   -5.3210 C.3   282  LYS282      0.1093
    172  NZ       -27.7690   24.5300   -6.4520 N.3   282  LYS282     -0.1314
    173  N        -27.5350   21.9600  -13.3720 N.3   288  TRP288     -0.1241
    174  CA       -26.7640   20.7310  -13.2300 C.3   288  TRP288      0.1605
    175  C        -27.4350   19.7810  -12.2390 C.2   288  TRP288      0.2264
    176  O        -27.1700   18.5810  -12.2510 O.2   288  TRP288     -0.2867
    177  CB       -25.3290   21.0380  -12.7760 C.3   288  TRP288      0.0550
    178  CG       -25.2810   21.8280  -11.5020 C.ar  288  TRP288      0.0003
    179  CD1      -25.1980   23.1880  -11.3790 C.ar  288  TRP288      0.0946
    180  CD2      -25.3340   21.3070  -10.1690 C.ar  288  TRP288      0.0152
    181  NE1      -25.1910   23.5440  -10.0480 N.ar  288  TRP288     -0.2442
    182  CE2      -25.2730   22.4100   -9.2850 C.ar  288  TRP288      0.0810
    183  CE3      -25.4210   20.0170   -9.6330 C.ar  288  TRP288      0.0012
    184  CZ2      -25.3000   22.2610   -7.8920 C.ar  288  TRP288      0.0191
    185  CZ3      -25.4440   19.8700   -8.2450 C.ar  288  TRP288      0.0001
    186  CH2      -25.3840   20.9880   -7.3940 C.ar  288  TRP288      0.0015
@<TRIPOS>BOND
     1   173   174    1
     2   174   177    1
     3   174   175    1
     4   177   178    1
     5   176   175    2
     6   178   179   ar
     7   178   180   ar
     8   179   181   ar
     9   180   183   ar
    10   180   182   ar
    11   181   182   ar
    12   183   185   ar
    13   182   184   ar
    14   142   143    2
    15   142   141    1
    16    74    73   ar
    17   141   140    1
    18   140   138   am
    19   117   116    2
    20   185   186   ar
    21   118   116   am
    22    15    14    2
    23    73    75   ar
    24    73    72    1
    25   144   145    1
    26   184   186   ar
    27   138   137    1
    28   138   139    2
    29   137   136    1
    30   116   115    1
    31    16    13    1
    32    16    17    1
    33    13    14    1
    34    13    12    1
    35     4     3    2
    36    72    69    1
    37    69    68    1
    38    69    70    1
    39   145   146    1
    40   145   148    1
    41   146   147    2
    42     3    12   am
    43     3     2    1
    44    71    70    2
    45   172   171    1
    46   115   114    1
    47    47    48    1
    48    17    19   am
    49    17    18    2
    50   114   111    1
    51   125   124    2
    52     5     2    1
    53     5     6    1
    54   148   149    1
    55   170   171    1
    56   170   169    1
    57    51    48    1
    58    51    52    1
    59    48    49    1
    60   150   149    2
    61     2     1    1
    62   149   151   am
    63    53    52   ar
    64    53    55   ar
    65    52    54   ar
    66    55    57   ar
    67   119   120    1
    68     6     7   ar
    69     6     8   ar
    70    41    40    2
    71   120   121    1
    72   120   123    1
    73   124   126   am
    74   124   123    1
    75   111   112    1
    76   111   110    1
    77    45    44   ar
    78   122   121    2
    79   168   169    1
    80   168   165    1
    81     7     9   ar
    82    40    39    1
    83   112   113    2
    84   167   166    2
    85    49    50    2
    86   163   162    1
    87   121   127   am
    88    95    93   ar
    89    95    96   ar
    90   166   165    1
    91     8    10   ar
    92    93    92   ar
    93    43    44    1
    94    43    42    1
    95    44    46   ar
    96    54    56   ar
    97    57    56   ar
    98    57    58    1
    99     9    11   ar
   100   165   164    1
   101    42    39    1
   102    39    38    1
   103   162   160   ar
   104   162   161   ar
   105   127   128    1
   106    96    98   ar
   107    96    94   ar
   108    10    11   ar
   109    98   100   ar
   110   160   158   ar
   111    88    87    1
   112    88    89    1
   113    88    91    1
   114    92    94   ar
   115    92    91    1
   116   161   159   ar
   117   128   129    1
   118   128   131    1
   119   104   103    2
   120    89    90    2
   121    94    97   ar
   122   158   157   ar
   123   129   130    2
   124   100    99   ar
   125   109   107   ar
   126   131   132    1
   127   159   157   ar
   128   103   102    1
   129   157   156    1
   130    97    99   ar
   131    37    35   am
   132    20    21    1
   133    66    65   ar
   134   132   133    1
   135   107   106    1
   136   107   108   ar
   137   152   153    1
   138    59    60    1
   139    24    21    1
   140    24    25    1
   141   106   105    1
   142    21    22    1
   143   105   102    1
   144   153   156    1
   145   153   154    1
   146   102   101    1
   147    79    78    2
   148    26    25    1
   149    26    27    1
   150    63    60    1
   151    63    64    1
   152    60    61    1
   153   133   134   ar
   154   133   135   ar
   155    35    34    1
   156    35    36    2
   157    65    64    1
   158    65    67   ar
   159    32    31    2
   160    27    28    1
   161    34    33    1
   162    86    84    1
   163    78    77    1
   164    22    23    2
   165    31    30    1
   166   154   155    2
   167    83    84    2
   168    83    82    1
   169    61    62    2
   170    80    77    1
   171    80    81    1
   172    84    85    1
   173    33    30    1
   174    77    76    1
   175    30    29    1
   176    82    81    1
