@<TRIPOS>MOLECULE
tmp/4d5dA05.pdb
 80 79 0 0 0
SMALL
GASTEIGER

@<TRIPOS>ATOM
      1  N         21.5420   29.4170   20.2530 N.3    95  THR95      -0.1218
      2  CA        21.4260   29.8400   21.6400 C.3    95  THR95       0.1862
      3  C         19.9610   30.0260   21.9460 C.2    95  THR95       0.2287
      4  O         19.1150   29.8670   21.0690 O.2    95  THR95      -0.2866
      5  CB        22.2240   31.1360   21.9240 C.3    95  THR95       0.1770
      6  OG1       22.2520   31.3880   23.3360 O.3    95  THR95      -0.2211
      7  CG2       21.6180   32.3470   21.2040 C.3    95  THR95       0.0375
      8  N         19.5450   30.0190   30.2980 N.3   127  PRO127     -0.2102
      9  CA        20.1660   30.3970   29.0260 C.3   127  PRO127      0.1504
     10  C         20.9860   29.2100   28.5390 C.2   127  PRO127      0.2576
     11  O         21.6140   28.5350   29.3570 O.2   127  PRO127     -0.2718
     12  CB        21.0480   31.5950   29.3870 C.3   127  PRO127      0.0282
     13  CG        21.2730   31.4810   30.8680 C.3   127  PRO127      0.0208
     14  CD        20.0840   30.7650   31.4470 C.3   127  PRO127      0.0893
     15  N         20.9660   28.9290   27.2420 N.am  128  TYR128     -0.1963
     16  CA        21.7140   27.7830   26.7460 C.3   128  TYR128      0.1771
     17  C         22.4600   28.1170   25.4610 C.2   128  TYR128      0.2619
     18  O         22.1640   29.1040   24.7730 O.2   128  TYR128     -0.2715
     19  CB        20.7910   26.5720   26.5250 C.3   128  TYR128      0.0574
     20  CG        19.7100   26.7930   25.4950 C.ar  128  TYR128     -0.0198
     21  CD1       19.9610   26.5620   24.1410 C.ar  128  TYR128     -0.0009
     22  CD2       18.4280   27.2090   25.8690 C.ar  128  TYR128     -0.0009
     23  CE1       18.9750   26.7570   23.1720 C.ar  128  TYR128      0.0417
     24  CE2       17.4220   27.4050   24.9040 C.ar  128  TYR128      0.0417
     25  CZ        17.7110   27.1750   23.5590 C.ar  128  TYR128      0.1957
     26  OH        16.7530   27.3560   22.5930 O.3   128  TYR128     -0.2866
     27  N         23.4330   27.2700   25.1610 N.am  129  LEU129     -0.1977
     28  CA        24.3050   27.4300   24.0030 C.3   129  LEU129      0.1596
     29  C         24.5580   26.0390   23.4270 C.2   129  LEU129      0.2287
     30  O         25.0060   25.1280   24.1410 O.2   129  LEU129     -0.2864
     31  CB        25.6140   28.1140   24.4040 C.3   129  LEU129      0.0297
     32  CG        26.6560   28.2530   23.2870 C.3   129  LEU129      0.0022
     33  CD1       26.1790   29.2460   22.2290 C.3   129  LEU129      0.0001
     34  CD2       27.9980   28.6740   23.8480 C.3   129  LEU129      0.0001
     35  N         24.9550   22.9230   26.1060 N.3   142  SER142     -0.1202
     36  CA        25.4120   23.5130   27.3610 C.3   142  SER142      0.2020
     37  C         24.3760   24.5090   27.8710 C.2   142  SER142      0.2619
     38  O         23.6360   25.0890   27.0820 O.2   142  SER142     -0.2717
     39  CB        26.7730   24.1960   27.1780 C.3   142  SER142      0.2103
     40  OG        26.6400   25.4240   26.4950 O.3   142  SER142     -0.2182
     41  N         24.3090   24.6880   29.1870 N.am  143  ASN143     -0.1960
     42  CA        23.4230   25.6860   29.7410 C.3   143  ASN143      0.1819
     43  C         23.8500   26.1150   31.1370 C.2   143  ASN143      0.2621
     44  O         24.6200   25.4310   31.8130 O.2   143  ASN143     -0.2715
     45  CB        21.9720   25.1750   29.7810 C.3   143  ASN143      0.1195
     46  CG        21.7460   24.1310   30.8550 C.2   143  ASN143      0.2630
     47  OD1       21.8800   22.9420   30.6040 O.2   143  ASN143     -0.2716
     48  ND2       21.4010   24.5740   32.0600 N.am  143  ASN143     -0.0877
     49  N         23.3430   27.2680   31.5350 N.am  144  LEU144     -0.1977
     50  CA        23.4090   27.7200   32.9110 C.3   144  LEU144      0.1596
     51  C         21.9870   27.6850   33.4270 C.2   144  LEU144      0.2287
     52  O         21.0520   27.5430   32.6450 O.2   144  LEU144     -0.2864
     53  CB        23.9850   29.1310   33.0060 C.3   144  LEU144      0.0297
     54  CG        25.3940   29.2810   32.4280 C.3   144  LEU144      0.0022
     55  CD1       25.8290   30.7390   32.4890 C.3   144  LEU144      0.0001
     56  CD2       26.3570   28.3760   33.1880 C.3   144  LEU144      0.0001
     57  N         25.2010   24.4840   36.2120 N.3   166  ALA166     -0.1231
     58  CA        25.8220   24.5450   34.9050 C.3   166  ALA166      0.1694
     59  C         25.9000   23.1270   34.3670 C.2   166  ALA166      0.2592
     60  O         26.1760   22.1780   35.1100 O.2   166  ALA166     -0.2718
     61  CB        27.2020   25.1660   34.9900 C.3   166  ALA166      0.0304
     62  N         25.6450   22.9810   33.0800 N.am  167  LEU167     -0.1966
     63  CA        25.6840   21.6670   32.4470 C.3   167  LEU167      0.1728
     64  C         26.4300   21.7660   31.1330 C.2   167  LEU167      0.2616
     65  O         26.2380   22.7150   30.3670 O.2   167  LEU167     -0.2715
     66  CB        24.2710   21.1270   32.2250 C.3   167  LEU167      0.0311
     67  CG        24.1280   19.7410   31.5790 C.3   167  LEU167      0.0022
     68  CD1       22.9550   18.9850   32.1970 C.3   167  LEU167      0.0001
     69  CD2       23.9100   19.8800   30.0780 C.3   167  LEU167      0.0001
     70  N         27.2750   20.7760   30.8760 N.am  168  PHE168     -0.1974
     71  CA        28.0230   20.6930   29.6230 C.3   168  PHE168      0.1639
     72  C         27.9720   19.2610   29.1380 C.2   168  PHE168      0.2290
     73  O         28.3840   18.3360   29.8520 O.2   168  PHE168     -0.2864
     74  CB        29.4760   21.1530   29.8150 C.3   168  PHE168      0.0560
     75  CG        30.3570   20.9520   28.5910 C.ar  168  PHE168     -0.0200
     76  CD1       30.1060   21.6460   27.4190 C.ar  168  PHE168     -0.0042
     77  CD2       31.4490   20.0880   28.6300 C.ar  168  PHE168     -0.0042
     78  CE1       30.9170   21.4780   26.2970 C.ar  168  PHE168     -0.0003
     79  CE2       32.2620   19.9160   27.5120 C.ar  168  PHE168     -0.0003
     80  CZ        31.9880   20.6040   26.3450 C.ar  168  PHE168     -0.0000
@<TRIPOS>BOND
     1     1     2    1
     2     4     3    2
     3     7     5    1
     4     2     5    1
     5     2     3    1
     6     5     6    1
     7    33    32    1
     8    26    25    1
     9    23    25   ar
    10    23    21   ar
    11    32    34    1
    12    32    31    1
    13    29    28    1
    14    29    30    2
    15    25    24   ar
    16    28    31    1
    17    28    27    1
    18    21    20   ar
    19    18    17    2
    20    24    22   ar
    21    27    17   am
    22    17    16    1
    23    20    22   ar
    24    20    19    1
    25    35    36    1
    26    78    80   ar
    27    78    76   ar
    28    80    79   ar
    29    40    39    1
    30    19    16    1
    31    16    15    1
    32    38    37    2
    33    39    36    1
    34    15    10   am
    35    36    37    1
    36    76    75   ar
    37    79    77   ar
    38    37    41   am
    39    10     9    1
    40    10    11    2
    41    75    77   ar
    42    75    74    1
    43     9    12    1
    44     9     8    1
    45    72    71    1
    46    72    73    2
    47    41    42    1
    48    12    13    1
    49    71    74    1
    50    71    70    1
    51    42    45    1
    52    42    43    1
    53    45    46    1
    54    69    67    1
    55     8    14    1
    56    65    64    2
    57    47    46    2
    58    46    48   am
    59    13    14    1
    60    70    64   am
    61    64    63    1
    62    43    49   am
    63    43    44    2
    64    49    50    1
    65    67    68    1
    66    67    66    1
    67    66    63    1
    68    54    55    1
    69    54    53    1
    70    54    56    1
    71    63    62    1
    72    52    51    2
    73    50    53    1
    74    50    51    1
    75    62    59   am
    76    59    58    1
    77    59    60    2
    78    58    61    1
    79    58    57    1
