@<TRIPOS>MOLECULE
tmp/4d5dB05.pdb
 189 174 0 0 0
SMALL
GASTEIGER

@<TRIPOS>ATOM
      1  N        -11.6660   21.4840   39.4930 N.3     8  GLY8       -0.1210
      2  CA       -11.9490   21.2620   38.0840 C.3     8  GLY8        0.1956
      3  C        -11.9250   19.7920   37.7270 C.2     8  GLY8        0.2611
      4  O        -12.2310   18.9520   38.5690 O.2     8  GLY8       -0.2717
      5  N        -11.5530   19.4840   36.4860 N.am    9  HIS9       -0.1975
      6  CA       -11.4430   18.1040   36.0370 C.3     9  HIS9        0.1656
      7  C        -10.4310   17.9730   34.9050 C.2     9  HIS9        0.2291
      8  O        -10.1430   18.9430   34.2000 O.2     9  HIS9       -0.2864
      9  CB       -12.8220   17.5510   35.5870 C.3     9  HIS9        0.0771
     10  CG       -13.3280   18.0930   34.2790 C.ar    9  HIS9        0.0820
     11  ND1      -14.5220   18.7780   34.1700 N.ar    9  HIS9       -0.2267
     12  CD2      -12.8290   18.0180   33.0150 C.ar    9  HIS9        0.1154
     13  CE1      -14.7310   19.1130   32.9090 C.ar    9  HIS9        0.1986
     14  NE2      -13.7120   18.6640   32.1870 N.ar    9  HIS9       -0.2212
     15  N         -9.1500   17.0430   28.0540 N.3    40  ASN40      -0.1240
     16  CA       -10.3080   17.9000   28.3150 C.3    40  ASN40       0.1653
     17  C        -10.0480   18.4510   29.7150 C.2    40  ASN40       0.2266
     18  O        -10.1350   17.7100   30.6860 O.2    40  ASN40      -0.2867
     19  CB       -11.6070   17.0660   28.2330 C.3    40  ASN40       0.1155
     20  CG       -12.8790   17.8640   28.5360 C.2    40  ASN40       0.2627
     21  OD1      -12.9670   18.5820   29.5270 O.2    40  ASN40      -0.2716
     22  ND2      -13.8920   17.6910   27.6880 N.am   40  ASN40      -0.0877
     23  N        -10.7340   21.2990   32.6410 N.3    42  PHE42      -0.1241
     24  CA       -11.6000   22.3350   33.1770 C.3    42  PHE42       0.1605
     25  C        -11.0210   22.7910   34.5000 C.2    42  PHE42       0.2264
     26  O        -10.6620   21.9660   35.3390 O.2    42  PHE42      -0.2867
     27  CB       -13.0250   21.8060   33.3450 C.3    42  PHE42       0.0534
     28  CG       -13.9280   22.7130   34.1510 C.ar   42  PHE42      -0.0203
     29  CD1      -14.3160   23.9480   33.6610 C.ar   42  PHE42      -0.0042
     30  CD2      -14.3990   22.3190   35.3990 C.ar   42  PHE42      -0.0042
     31  CE1      -15.1540   24.7810   34.4160 C.ar   42  PHE42      -0.0003
     32  CE2      -15.2370   23.1500   36.1500 C.ar   42  PHE42      -0.0003
     33  CZ       -15.6080   24.3700   35.6560 C.ar   42  PHE42      -0.0000
     34  N        -13.3940   30.7340   35.5310 N.3    51  MET51      -0.1245
     35  CA       -13.3800   29.3640   35.0360 C.3    51  MET51       0.1570
     36  C        -12.6140   29.3660   33.7260 C.2    51  MET51       0.2261
     37  O        -12.7620   30.2920   32.9290 O.2    51  MET51      -0.2867
     38  CB       -14.7950   28.8180   34.7850 C.3    51  MET51       0.0387
     39  CG       -15.7150   28.6880   35.9830 C.3    51  MET51       0.0595
     40  SD       -17.3130   27.9900   35.4710 S.3    51  MET51      -0.1393
     41  CE       -18.1120   27.8590   37.0670 C.3    51  MET51       0.0692
     42  N        -11.0470   26.6740   30.3910 N.3    53  PHE53      -0.1241
     43  CA       -11.1570   25.3800   29.7520 C.3    53  PHE53       0.1605
     44  C        -10.1110   25.2550   28.6450 C.2    53  PHE53       0.2264
     45  O         -9.8190   26.2260   27.9580 O.2    53  PHE53      -0.2867
     46  CB       -12.5730   25.1850   29.2020 C.3    53  PHE53       0.0534
     47  CG       -12.7970   23.8290   28.6020 C.ar   53  PHE53      -0.0203
     48  CD1      -12.8840   22.7090   29.4150 C.ar   53  PHE53      -0.0042
     49  CD2      -12.9100   23.6660   27.2300 C.ar   53  PHE53      -0.0042
     50  CE1      -13.0790   21.4450   28.8720 C.ar   53  PHE53      -0.0003
     51  CE2      -13.1100   22.3990   26.6790 C.ar   53  PHE53      -0.0003
     52  CZ       -13.1930   21.2910   27.5040 C.ar   53  PHE53      -0.0000
     53  N        -27.4630   35.3600   33.9780 N.3   128  THR128     -0.1218
     54  CA       -28.1830   34.2350   34.5480 C.3   128  THR128      0.1862
     55  C        -29.0470   34.6740   35.7120 C.2   128  THR128      0.2287
     56  O        -28.7500   35.6410   36.4050 O.2   128  THR128     -0.2866
     57  CB       -27.2350   33.1150   35.0320 C.3   128  THR128      0.1770
     58  OG1      -26.4500   33.5980   36.1230 O.3   128  THR128     -0.2211
     59  CG2      -26.2950   32.6700   33.9010 C.3   128  THR128      0.0375
     60  N        -30.6930   30.6910   31.7350 N.3   139  TYR139     -0.1241
     61  CA       -29.3910   31.0690   31.2170 C.3   139  TYR139      0.1605
     62  C        -29.6480   31.8870   29.9500 C.2   139  TYR139      0.2264
     63  O        -30.5430   31.5620   29.1540 O.2   139  TYR139     -0.2867
     64  CB       -28.5230   29.8380   30.9050 C.3   139  TYR139      0.0534
     65  CG       -27.1320   30.2110   30.4470 C.ar  139  TYR139     -0.0201
     66  CD1      -26.1110   30.3960   31.3690 C.ar  139  TYR139     -0.0009
     67  CD2      -26.8490   30.4170   29.0910 C.ar  139  TYR139     -0.0009
     68  CE1      -24.8350   30.7550   30.9660 C.ar  139  TYR139      0.0417
     69  CE2      -25.5700   30.7810   28.6740 C.ar  139  TYR139      0.0417
     70  CZ       -24.5710   30.9430   29.6200 C.ar  139  TYR139      0.1957
     71  OH       -23.2950   31.2840   29.2370 O.3   139  TYR139     -0.2866
     72  N        -32.4770   30.4150   27.6190 N.3   167  LYS167     -0.1245
     73  CA       -32.8580   29.0890   28.0950 C.3   167  LYS167      0.1561
     74  C        -33.5140   29.1380   29.4690 C.2   167  LYS167      0.2260
     75  O        -32.8310   29.0190   30.4780 O.2   167  LYS167     -0.2867
     76  CB       -31.6470   28.1500   28.1650 C.3   167  LYS167      0.0271
     77  CG       -32.0610   26.6880   28.4400 C.3   167  LYS167      0.0035
     78  CD       -30.9080   25.7720   28.8500 C.3   167  LYS167      0.0206
     79  CE       -31.4640   24.4310   29.3700 C.3   167  LYS167      0.1093
     80  NZ       -30.4210   23.3770   29.6490 N.3   167  LYS167     -0.1314
     81  N        -35.5030   27.4310   32.5240 N.3   169  TYR169     -0.1241
     82  CA       -35.6200   26.0570   32.9760 C.3   169  TYR169      0.1605
     83  C        -36.1710   25.9910   34.3830 C.2   169  TYR169      0.2264
     84  O        -36.2100   26.9930   35.1050 O.2   169  TYR169     -0.2867
     85  CB       -34.2700   25.3340   32.8950 C.3   169  TYR169      0.0534
     86  CG       -33.1880   25.9060   33.7880 C.ar  169  TYR169     -0.0201
     87  CD1      -32.4960   27.0610   33.4260 C.ar  169  TYR169     -0.0009
     88  CD2      -32.8440   25.2870   34.9780 C.ar  169  TYR169     -0.0009
     89  CE1      -31.5060   27.5870   34.2370 C.ar  169  TYR169      0.0417
     90  CE2      -31.8500   25.8060   35.7980 C.ar  169  TYR169      0.0417
     91  CZ       -31.1840   26.9520   35.4200 C.ar  169  TYR169      0.1957
     92  OH       -30.2010   27.4690   36.2350 O.3   169  TYR169     -0.2866
     93  N        -36.7360   23.1340   37.9540 N.3   171  ARG171     -0.1245
     94  CA       -36.4290   21.8770   38.6120 C.3   171  ARG171      0.1563
     95  C        -37.5340   21.5420   39.6110 C.2   171  ARG171      0.2260
     96  O        -38.0730   22.4180   40.2730 O.2   171  ARG171     -0.2867
     97  CB       -35.0600   21.9510   39.3060 C.3   171  ARG171      0.0307
     98  CG       -33.9000   22.1360   38.3170 C.3   171  ARG171      0.0489
     99  CD       -32.5850   22.5000   38.9890 C.3   171  ARG171      0.2205
    100  NE       -32.1370   21.4890   39.9410 N.pl3 171  ARG171     -0.0865
    101  CZ       -31.4140   20.4200   39.6170 C.cat 171  ARG171      0.5346
    102  NH1      -31.0640   20.2090   38.3560 N.pl3 171  ARG171      0.1354
    103  NH2      -31.0480   19.5540   40.5540 N.pl3 171  ARG171      0.1354
    104  N        -35.7200   17.9780   35.7270 N.3   176  GLU176     -0.1245
    105  CA       -35.4250   19.3080   35.2390 C.3   176  GLU176      0.1567
    106  C        -35.9410   19.4010   33.8250 C.2   176  GLU176      0.2260
    107  O        -35.7540   18.4820   33.0240 O.2   176  GLU176     -0.2867
    108  CB       -33.9320   19.6190   35.2750 C.3   176  GLU176      0.0388
    109  CG       -33.6100   20.9760   34.6590 C.3   176  GLU176      0.1160
    110  CD       -32.1770   21.4030   34.9060 C.2   176  GLU176      0.3649
    111  OE1      -31.6370   21.0570   35.9740 O.co2 176  GLU176     -0.2457
    112  OE2      -31.5930   22.0670   34.0240 O.co2 176  GLU176     -0.2457
    113  N        -34.3830   25.6840   25.1790 N.3   180  GLU180     -0.1245
    114  CA       -33.3950   26.6010   24.6390 C.3   180  GLU180      0.1567
    115  C        -33.9460   27.2870   23.3890 C.2   180  GLU180      0.2260
    116  O        -34.3930   26.6010   22.4630 O.2   180  GLU180     -0.2867
    117  CB       -32.1100   25.8210   24.3390 C.3   180  GLU180      0.0388
    118  CG       -30.8580   26.6390   24.1900 C.3   180  GLU180      0.1160
    119  CD       -29.6420   25.7460   24.1220 C.2   180  GLU180      0.3649
    120  OE1      -29.1380   25.3400   25.1890 O.co2 180  GLU180     -0.2457
    121  OE2      -29.2200   25.4180   22.9970 O.co2 180  GLU180     -0.2457
    122  N        -34.6200   16.2020   31.8000 N.3   213  GLN213     -0.1245
    123  CA       -33.6320   15.3990   32.5150 C.3   213  GLN213      0.1566
    124  C        -34.2750   14.7660   33.7240 C.2   213  GLN213      0.2260
    125  O        -35.1130   15.3930   34.3820 O.2   213  GLN213     -0.2867
    126  CB       -32.4310   16.2450   32.9790 C.3   213  GLN213      0.0367
    127  CG       -31.8650   17.1710   31.9240 C.3   213  GLN213      0.0905
    128  CD       -30.7410   18.0410   32.4560 C.2   213  GLN213      0.2608
    129  OE1      -30.1750   17.7660   33.5130 O.2   213  GLN213     -0.2717
    130  NE2      -30.4130   19.0970   31.7230 N.am  213  GLN213     -0.0878
    131  N        -25.4710   10.4660   32.1970 N.3   260  GLU260     -0.1245
    132  CA       -24.2340   10.7990   32.8830 C.3   260  GLU260      0.1567
    133  C        -24.2910   10.3070   34.3130 C.2   260  GLU260      0.2260
    134  O        -25.3290   10.3930   34.9560 O.2   260  GLU260     -0.2867
    135  CB       -23.9780   12.3080   32.8650 C.3   260  GLU260      0.0388
    136  CG       -22.7950   12.7150   33.7390 C.3   260  GLU260      0.1160
    137  CD       -22.3120   14.1270   33.4690 C.2   260  GLU260      0.3649
    138  OE1      -23.0380   15.0820   33.8060 O.co2 260  GLU260     -0.2457
    139  OE2      -21.2000   14.2740   32.9220 O.co2 260  GLU260     -0.2457
    140  N        -21.8110    9.8300   38.1080 N.3   262  SER262     -0.1217
    141  CA       -20.6170    9.7830   38.9320 C.3   262  SER262      0.1889
    142  C        -20.2440    8.3390   39.2200 C.2   262  SER262      0.2288
    143  O        -21.1130    7.4820   39.3840 O.2   262  SER262     -0.2866
    144  CB       -20.8330   10.5340   40.2530 C.3   262  SER262      0.2089
    145  OG       -21.2150   11.8730   39.9880 O.3   262  SER262     -0.2183
    146  N        -16.5670   11.0360   36.6630 N.3   268  VAL268     -0.1245
    147  CA       -17.8940   11.2140   36.1080 C.3   268  VAL268      0.1561
    148  C        -17.8500   10.8120   34.6410 C.2   268  VAL268      0.2260
    149  O        -17.0250   11.3180   33.8710 O.2   268  VAL268     -0.2867
    150  CB       -18.4070   12.6800   36.2370 C.3   268  VAL268      0.0252
    151  CG1      -19.8740   12.7640   35.8260 C.3   268  VAL268      0.0019
    152  CG2      -18.2320   13.1950   37.6540 C.3   268  VAL268      0.0019
    153  N        -20.0420    9.9340   30.8690 N.3   270  LYS270     -0.1245
    154  CA       -21.1970   10.3690   30.1010 C.3   270  LYS270      0.1561
    155  C        -21.1850    9.7210   28.7310 C.2   270  LYS270      0.2260
    156  O        -20.1270    9.6180   28.1060 O.2   270  LYS270     -0.2867
    157  CB       -21.1990   11.8960   29.9630 C.3   270  LYS270      0.0271
    158  CG       -22.2020   12.4540   28.9690 C.3   270  LYS270      0.0035
    159  CD       -22.3200   13.9670   29.1320 C.3   270  LYS270      0.0206
    160  CE       -22.2990   14.6930   27.8050 C.3   270  LYS270      0.1093
    161  NZ       -22.2590   16.1700   28.0220 N.3   270  LYS270     -0.1314
    162  N        -17.5330   10.3980   27.2090 N.3   304  GLN304     -0.1245
    163  CA       -16.4510   11.0400   27.9400 C.3   304  GLN304      0.1566
    164  C        -16.2910   10.4690   29.3550 C.2   304  GLN304      0.2260
    165  O        -17.2350    9.9410   29.9560 O.2   304  GLN304     -0.2867
    166  CB       -16.6720   12.5530   28.0170 C.3   304  GLN304      0.0367
    167  CG       -17.8470   12.9830   28.8490 C.3   304  GLN304      0.0905
    168  CD       -17.9180   14.4990   29.0070 C.2   304  GLN304      0.2608
    169  OE1      -17.4960   15.2590   28.1280 O.2   304  GLN304     -0.2717
    170  NE2      -18.4650   14.9380   30.1190 N.am  304  GLN304     -0.0878
    171  N        -14.3460   11.8380   32.9710 N.3   306  LEU306     -0.1245
    172  CA       -13.6990   13.0120   33.5640 C.3   306  LEU306      0.1561
    173  C        -13.2860   12.6990   34.9830 C.2   306  LEU306      0.2260
    174  O        -14.0520   12.1090   35.7420 O.2   306  LEU306     -0.2867
    175  CB       -14.6310   14.2200   33.5850 C.3   306  LEU306      0.0270
    176  CG       -14.7910   15.1660   32.3980 C.3   306  LEU306      0.0019
    177  CD1      -14.3470   14.5820   31.0790 C.3   306  LEU306      0.0001
    178  CD2      -16.2250   15.6640   32.3390 C.3   306  LEU306      0.0001
    179  N        -12.4010   14.4360   38.4370 N.3   308  ARG308     -0.1245
    180  CA       -12.5330   15.7010   39.1530 C.3   308  ARG308      0.1563
    181  C        -11.4700   15.8470   40.2360 C.2   308  ARG308      0.2260
    182  O        -11.0800   14.8740   40.8790 O.2   308  ARG308     -0.2867
    183  CB       -13.9320   15.8190   39.7750 C.3   308  ARG308      0.0307
    184  CG       -15.0560   15.9840   38.7550 C.3   308  ARG308      0.0489
    185  CD       -16.4260   16.0690   39.4260 C.3   308  ARG308      0.2205
    186  NE       -16.7670   14.8230   40.1070 N.pl3 308  ARG308     -0.0865
    187  CZ       -17.8880   14.6260   40.7930 C.cat 308  ARG308      0.5346
    188  NH1      -18.7820   15.5980   40.8990 N.pl3 308  ARG308      0.1354
    189  NH2      -18.1150   13.4580   41.3740 N.pl3 308  ARG308      0.1354
@<TRIPOS>BOND
     1   116   115    2
     2   121   119   ar
     3   115   114    1
     4   119   118    1
     5   119   120   ar
     6   118   117    1
     7   117   114    1
     8   114   113    1
     9    51    49   ar
    10    51    52   ar
    11   162   163    1
    12    49    47   ar
    13    52    50   ar
    14    72    73    1
    15    22    20   am
    16   160   161    1
    17   160   159    1
    18   163   166    1
    19   163   164    1
    20    45    44    2
    21   166   167    1
    22    15    16    1
    23    73    76    1
    24    73    74    1
    25   156   155    2
    26   169   168    2
    27    76    77    1
    28    19    16    1
    29    19    20    1
    30    16    17    1
    31    77    78    1
    32    20    21    2
    33    47    46    1
    34    47    48   ar
    35    44    43    1
    36    69    67   ar
    37    69    70   ar
    38   155   154    1
    39   167   168    1
    40    78    79    1
    41    50    48   ar
    42   158   159    1
    43   158   157    1
    44   168   170   am
    45    67    65   ar
    46    63    62    2
    47    46    43    1
    48    71    70    1
    49   164   165    2
    50    79    80    1
    51    74    75    2
    52    70    68   ar
    53    17    18    2
    54    43    42    1
    55    62    61    1
    56   157   154    1
    57   154   153    1
    58    65    64    1
    59    65    66   ar
    60    64    61    1
    61    68    66   ar
    62   177   176    1
    63    61    60    1
    64   130   128   am
    65   122   123    1
    66   127   128    1
    67   127   126    1
    68    14    13   ar
    69    14    12   ar
    70   131   132    1
    71   178   176    1
    72   176   175    1
    73   128   129    2
    74   123   126    1
    75   123   124    1
    76    81    82    1
    77    23    24    1
    78   135   132    1
    79   135   136    1
    80   132   133    1
    81    85    82    1
    82    85    86    1
    83    13    11   ar
    84   139   137   ar
    85    37    36    2
    86   171   172    1
    87    82    83    1
    88    12    10   ar
    89   107   106    2
    90    24    27    1
    91    24    25    1
    92    27    28    1
    93    87    86   ar
    94    87    89   ar
    95   137   136    1
    96   137   138   ar
    97   172   175    1
    98   172   173    1
    99    29    28   ar
   100    29    31   ar
   101   124   125    2
   102    36    35    1
   103    86    88   ar
   104   106   105    1
   105   149   148    2
   106    59    57    1
   107    53    54    1
   108   112   110   ar
   109    28    30   ar
   110    11    10   ar
   111     8     7    2
   112    89    91   ar
   113    10     9    1
   114   133   134    2
   115    83    84    2
   116    31    33   ar
   117    25    26    2
   118    54    57    1
   119    54    55    1
   120   148   147    1
   121   109   110    1
   122   109   108    1
   123    38    35    1
   124    38    39    1
   125     7     6    1
   126   110   111   ar
   127    88    90   ar
   128   173   174    2
   129    57    58    1
   130    35    34    1
   131   105   108    1
   132   105   104    1
   133    30    32   ar
   134    91    90   ar
   135    91    92    1
   136    40    39    1
   137    40    41    1
   138     9     6    1
   139    33    32   ar
   140    55    56    2
   141   151   150    1
   142     6     5    1
   143   147   150    1
   144   147   146    1
   145   150   152    1
   146     5     3   am
   147     3     2    1
   148     3     4    2
   149    93    94    1
   150     2     1    1
   151   140   141    1
   152    98    99    1
   153    98    97    1
   154   102   101    1
   155   179   180    1
   156    94    97    1
   157    94    95    1
   158   184   185    1
   159   184   183    1
   160   141   142    1
   161   141   144    1
   162    99   100    1
   163   180   183    1
   164   180   181    1
   165   142   143    2
   166   185   186    1
   167    95    96    2
   168   101   100    2
   169   101   103    1
   170   145   144    1
   171   186   187    2
   172   181   182    2
   173   187   188    1
   174   187   189    1
