@<TRIPOS>MOLECULE
tmp/4d5dA06.pdb
 110 111 0 0 0
SMALL
GASTEIGER

@<TRIPOS>ATOM
      1  N         25.2010   24.4840   36.2120 N.3   166  ALA166     -0.1231
      2  CA        25.8220   24.5450   34.9050 C.3   166  ALA166      0.1694
      3  C         25.9000   23.1270   34.3670 C.2   166  ALA166      0.2592
      4  O         26.1760   22.1780   35.1100 O.2   166  ALA166     -0.2718
      5  CB        27.2020   25.1660   34.9900 C.3   166  ALA166      0.0304
      6  N         25.6450   22.9810   33.0800 N.am  167  LEU167     -0.1966
      7  CA        25.6840   21.6670   32.4470 C.3   167  LEU167      0.1728
      8  C         26.4300   21.7660   31.1330 C.2   167  LEU167      0.2616
      9  O         26.2380   22.7150   30.3670 O.2   167  LEU167     -0.2715
     10  CB        24.2710   21.1270   32.2250 C.3   167  LEU167      0.0311
     11  CG        24.1280   19.7410   31.5790 C.3   167  LEU167      0.0022
     12  CD1       22.9550   18.9850   32.1970 C.3   167  LEU167      0.0001
     13  CD2       23.9100   19.8800   30.0780 C.3   167  LEU167      0.0001
     14  N         27.2750   20.7760   30.8760 N.am  168  PHE168     -0.1974
     15  CA        28.0230   20.6930   29.6230 C.3   168  PHE168      0.1639
     16  C         27.9720   19.2610   29.1380 C.2   168  PHE168      0.2290
     17  O         28.3840   18.3360   29.8520 O.2   168  PHE168     -0.2864
     18  CB        29.4760   21.1530   29.8150 C.3   168  PHE168      0.0560
     19  CG        30.3570   20.9520   28.5910 C.ar  168  PHE168     -0.0200
     20  CD1       30.1060   21.6460   27.4190 C.ar  168  PHE168     -0.0042
     21  CD2       31.4490   20.0880   28.6300 C.ar  168  PHE168     -0.0042
     22  CE1       30.9170   21.4780   26.2970 C.ar  168  PHE168     -0.0003
     23  CE2       32.2620   19.9160   27.5120 C.ar  168  PHE168     -0.0003
     24  CZ        31.9880   20.6040   26.3450 C.ar  168  PHE168     -0.0000
     25  N         28.3580   16.5980   32.0470 N.3   183  PHE183     -0.1227
     26  CA        29.0590   17.1320   33.2090 C.3   183  PHE183      0.1736
     27  C         28.1320   18.1310   33.8760 C.2   183  PHE183      0.2595
     28  O         27.5740   18.9840   33.1930 O.2   183  PHE183     -0.2718
     29  CB        30.3580   17.8240   32.8160 C.3   183  PHE183      0.0547
     30  CG        31.3580   16.9220   32.1580 C.ar  183  PHE183     -0.0202
     31  CD1       31.3570   16.7610   30.7760 C.ar  183  PHE183     -0.0042
     32  CD2       32.3250   16.2640   32.9130 C.ar  183  PHE183     -0.0042
     33  CE1       32.2900   15.9390   30.1530 C.ar  183  PHE183     -0.0003
     34  CE2       33.2580   15.4410   32.2970 C.ar  183  PHE183     -0.0003
     35  CZ        33.2370   15.2800   30.9180 C.ar  183  PHE183     -0.0000
     36  N         27.9870   18.0500   35.1940 N.am  184  TYR184     -0.1962
     37  CA        26.9890   18.8770   35.8890 C.3   184  TYR184      0.1771
     38  C         27.5360   19.3950   37.2080 C.2   184  TYR184      0.2619
     39  O         28.2170   18.6790   37.9390 O.2   184  TYR184     -0.2715
     40  CB        25.7190   18.0730   36.1430 C.3   184  TYR184      0.0574
     41  CG        24.6250   18.7930   36.9340 C.ar  184  TYR184     -0.0198
     42  CD1       23.7350   19.6600   36.3000 C.ar  184  TYR184     -0.0009
     43  CD2       24.4540   18.5610   38.2980 C.ar  184  TYR184     -0.0009
     44  CE1       22.7220   20.3000   37.0150 C.ar  184  TYR184      0.0417
     45  CE2       23.4340   19.1820   39.0150 C.ar  184  TYR184      0.0417
     46  CZ        22.5650   20.0370   38.3610 C.ar  184  TYR184      0.1957
     47  OH        21.5580   20.6610   39.0680 O.3   184  TYR184     -0.2866
     48  N         27.2420   20.6530   37.4940 N.am  185  TYR185     -0.1974
     49  CA        27.6160   21.2680   38.7650 C.3   185  TYR185      0.1639
     50  C         26.4640   22.1350   39.2630 C.2   185  TYR185      0.2290
     51  O         25.9060   22.9240   38.5060 O.2   185  TYR185     -0.2864
     52  CB        28.8810   22.1090   38.6140 C.3   185  TYR185      0.0560
     53  CG        29.3840   22.6500   39.9440 C.ar  185  TYR185     -0.0198
     54  CD1       29.8350   21.7870   40.9360 C.ar  185  TYR185     -0.0009
     55  CD2       29.4040   24.0120   40.2070 C.ar  185  TYR185     -0.0009
     56  CE1       30.2890   22.2660   42.1580 C.ar  185  TYR185      0.0417
     57  CE2       29.8680   24.5000   41.4250 C.ar  185  TYR185      0.0417
     58  CZ        30.3040   23.6200   42.3940 C.ar  185  TYR185      0.1957
     59  OH        30.7630   24.0940   43.6060 O.3   185  TYR185     -0.2866
     60  N         28.0280   17.7000   42.1530 N.3   208  ARG208     -0.1231
     61  CA        28.6340   17.5100   40.8370 C.3   208  ARG208      0.1694
     62  C         28.3930   16.0740   40.3810 C.2   208  ARG208      0.2592
     63  O         28.3380   15.1690   41.2080 O.2   208  ARG208     -0.2718
     64  CB        30.1330   17.8100   40.8780 C.3   208  ARG208      0.0321
     65  CG        30.8830   16.9120   41.8550 C.3   208  ARG208      0.0489
     66  CD        32.3790   17.1640   41.8710 C.3   208  ARG208      0.2205
     67  NE        32.7220   18.5590   42.1220 N.pl3 208  ARG208     -0.0865
     68  CZ        32.6840   19.1360   43.3190 C.cat 208  ARG208      0.5346
     69  NH1       32.2970   18.4430   44.3800 N.pl3 208  ARG208      0.1354
     70  NH2       33.0240   20.4130   43.4550 N.pl3 208  ARG208      0.1354
     71  N         28.2420   15.8530   39.0790 N.am  209  TYR209     -0.1962
     72  CA        28.2520   14.4840   38.5800 C.3   209  TYR209      0.1771
     73  C         28.7990   14.4630   37.1670 C.2   209  TYR209      0.2619
     74  O         28.8950   15.4930   36.4870 O.2   209  TYR209     -0.2715
     75  CB        26.8440   13.8080   38.6540 C.3   209  TYR209      0.0574
     76  CG        25.7600   14.3390   37.7100 C.ar  209  TYR209     -0.0198
     77  CD1       25.7970   14.0550   36.3470 C.ar  209  TYR209     -0.0009
     78  CD2       24.6760   15.0760   38.1940 C.ar  209  TYR209     -0.0009
     79  CE1       24.8110   14.5250   35.4800 C.ar  209  TYR209      0.0417
     80  CE2       23.6650   15.5400   37.3310 C.ar  209  TYR209      0.0417
     81  CZ        23.7560   15.2650   35.9750 C.ar  209  TYR209      0.1957
     82  OH        22.7970   15.7210   35.0910 O.3   209  TYR209     -0.2866
     83  N         29.1900   13.2730   36.7510 N.am  210  ILE210     -0.1977
     84  CA        29.5520   13.0150   35.3700 C.3   210  ILE210      0.1596
     85  C         28.7220   11.8120   34.9360 C.2   210  ILE210      0.2287
     86  O         28.5910   10.8400   35.6720 O.2   210  ILE210     -0.2864
     87  CB        31.0390   12.7310   35.2150 C.3   210  ILE210      0.0276
     88  CG1       31.3130   12.1590   33.8240 C.3   210  ILE210      0.0022
     89  CG2       31.4930   11.7350   36.2530 C.3   210  ILE210      0.0022
     90  CD1       32.7760   12.0450   33.5070 C.3   210  ILE210      0.0001
     91  N         28.0230    8.9310   38.0320 N.3   230  VAL230     -0.1231
     92  CA        28.7670    8.9340   39.2900 C.3   230  VAL230      0.1692
     93  C         28.8250   10.3820   39.7660 C.2   230  VAL230      0.2593
     94  O         29.2210   11.2750   39.0140 O.2   230  VAL230     -0.2718
     95  CB        30.1920    8.3540   39.1340 C.3   230  VAL230      0.0266
     96  CG1       31.0280    8.6100   40.4080 C.3   230  VAL230      0.0020
     97  CG2       30.1310    6.8570   38.8020 C.3   230  VAL230      0.0020
     98  N         28.4040   10.6230   40.9970 N.am  231  GLY231     -0.1942
     99  CA        28.4180   11.9720   41.5140 C.3   231  GLY231      0.2014
    100  C         28.5920   12.0490   43.0060 C.2   231  GLY231      0.2638
    101  O         28.6840   11.0260   43.7030 O.2   231  GLY231     -0.2714
    102  N         28.6290   13.2820   43.4930 N.am  232  LYS232     -0.1977
    103  CA        28.7510   13.5580   44.9210 C.3   232  LYS232      0.1596
    104  C         28.0170   14.8390   45.2290 C.2   232  LYS232      0.2287
    105  O         27.9760   15.7430   44.3930 O.2   232  LYS232     -0.2864
    106  CB        30.2120   13.7120   45.3500 C.3   232  LYS232      0.0298
    107  CG        31.0180   12.4370   45.4100 C.3   232  LYS232      0.0038
    108  CD        32.4180   12.7170   45.9600 C.3   232  LYS232      0.0206
    109  CE        33.2520   11.4400   46.0560 C.3   232  LYS232      0.1093
    110  NZ        34.6280   11.7310   46.5340 N.3   232  LYS232     -0.1314
@<TRIPOS>BOND
     1    22    24   ar
     2    22    20   ar
     3    24    23   ar
     4    20    19   ar
     5    23    21   ar
     6    19    21   ar
     7    19    18    1
     8    16    15    1
     9    16    17    2
    10    15    18    1
    11    15    14    1
    12    13    11    1
    13    33    31   ar
    14    33    35   ar
    15     9     8    2
    16    31    30   ar
    17    14     8   am
    18    35    34   ar
    19     8     7    1
    20    11    12    1
    21    11    10    1
    22    25    26    1
    23    30    29    1
    24    30    32   ar
    25    10     7    1
    26    34    32   ar
    27     7     6    1
    28    29    26    1
    29     6     3   am
    30    28    27    2
    31    26    27    1
    32    90    88    1
    33    88    87    1
    34    27    36   am
    35     3     2    1
    36     3     4    2
    37     2     5    1
    38     2     1    1
    39    85    84    1
    40    85    86    2
    41    82    81    1
    42    36    37    1
    43    87    84    1
    44    87    89    1
    45    84    83    1
    46    79    81   ar
    47    79    77   ar
    48    37    40    1
    49    37    38    1
    50    81    80   ar
    51    40    41    1
    52    42    41   ar
    53    42    44   ar
    54    77    76   ar
    55    74    73    2
    56    83    73   am
    57    41    43   ar
    58    44    46   ar
    59    73    72    1
    60    38    48   am
    61    38    39    2
    62    80    78   ar
    63    48    49    1
    64    76    78   ar
    65    76    75    1
    66    91    92    1
    67    43    45   ar
    68    46    45   ar
    69    46    47    1
    70    51    50    2
    71    72    75    1
    72    72    71    1
    73    52    49    1
    74    52    53    1
    75    49    50    1
    76    97    95    1
    77    94    93    2
    78    71    62   am
    79    95    92    1
    80    95    96    1
    81    92    93    1
    82    93    98   am
    83    53    55   ar
    84    53    54   ar
    85    55    57   ar
    86    62    61    1
    87    62    63    2
    88    61    64    1
    89    61    60    1
    90    64    65    1
    91    54    56   ar
    92    98    99    1
    93    57    58   ar
    94    99   100    1
    95    65    66    1
    96    66    67    1
    97    67    68    2
    98    56    58   ar
    99    58    59    1
   100   100   102   am
   101   100   101    2
   102    68    70    1
   103    68    69    1
   104   102   103    1
   105   105   104    2
   106   103   104    1
   107   103   106    1
   108   106   107    1
   109   107   108    1
   110   108   109    1
   111   109   110    1
