@<TRIPOS>MOLECULE
tmp/4d5eA05.pdb
 80 76 0 0 0
SMALL
GASTEIGER

@<TRIPOS>ATOM
      1  N         -8.8000  -22.7340   17.0690 N.3   201  LEU201     -0.1231
      2  CA        -7.7210  -23.6480   16.8290 C.3   201  LEU201      0.1693
      3  C         -6.4610  -23.2170   17.5390 C.2   201  LEU201      0.2592
      4  O         -5.7000  -24.0260   18.1370 O.2   201  LEU201     -0.2718
      5  CB        -7.3390  -23.7530   15.3770 C.3   201  LEU201      0.0284
      6  CG        -7.9800  -24.7440   14.5270 C.3   201  LEU201      0.0019
      7  CD1       -7.5910  -24.5140   13.0730 C.3   201  LEU201      0.0001
      8  CD2       -7.6250  -26.1980   14.9500 C.3   201  LEU201      0.0001
      9  N         -6.1740  -21.8960   17.4480 N.am  202  VAL202     -0.1966
     10  CA        -4.9660  -21.3430   18.1180 C.3   202  VAL202      0.1727
     11  C         -5.0740  -21.3530   19.6140 C.2   202  VAL202      0.2616
     12  O         -4.0010  -21.6440   20.2630 O.2   202  VAL202     -0.2715
     13  CB        -4.7250  -19.8950   17.5620 C.3   202  VAL202      0.0290
     14  CG1       -3.5510  -19.2680   18.3010 C.3   202  VAL202      0.0023
     15  CG2       -4.3620  -19.9680   16.1130 C.3   202  VAL202      0.0023
     16  N         -6.2290  -21.0800   20.1570 N.am  203  ALA203     -0.1963
     17  CA        -6.4290  -20.9720   21.6150 C.3   203  ALA203      0.1728
     18  C         -6.4260  -22.3770   22.3030 C.2   203  ALA203      0.2616
     19  O         -6.2480  -22.4450   23.5130 O.2   203  ALA203     -0.2715
     20  CB        -7.6640  -20.1950   22.0210 C.3   203  ALA203      0.0334
     21  N         -6.7610  -23.4360   21.5650 N.am  204  ALA204     -0.1963
     22  CA        -6.8770  -24.7380   22.1720 C.3   204  ALA204      0.1728
     23  C         -5.5650  -25.2310   22.7150 C.2   204  ALA204      0.2616
     24  O         -4.5080  -25.0600   22.1000 O.2   204  ALA204     -0.2715
     25  CB        -7.3080  -25.7390   21.0770 C.3   204  ALA204      0.0334
     26  N         -5.6300  -25.9520   23.8190 N.am  205  LYS205     -0.1977
     27  CA        -4.4540  -26.6410   24.3780 C.3   205  LYS205      0.1596
     28  C         -4.0880  -27.9940   23.7330 C.2   205  LYS205      0.2287
     29  O         -2.9220  -28.3690   23.5580 O.2   205  LYS205     -0.2864
     30  CB        -4.6400  -26.8080   25.9010 C.3   205  LYS205      0.0297
     31  CG        -3.4410  -27.3520   26.6430 C.3   205  LYS205      0.0022
     32  CD        -4.0020  -27.3730   28.1570 C.3   205  LYS205      0.0001
     33  CE        -2.6760  -27.6500   28.8870 C.3   205  LYS205      0.0000
     34  NZ        -3.0950  -29.4790   28.2500 N.3   205  LYS205      0.0000
     35  N         -5.8920  -29.3510   20.5070 N.3   207  PRO207     -0.2116
     36  CA        -6.8090  -29.4040   19.3530 C.3   207  PRO207      0.1372
     37  C         -6.6530  -30.7210   18.5790 C.2   207  PRO207      0.2244
     38  O         -5.5980  -31.3930   18.6310 O.2   207  PRO207     -0.2868
     39  CB        -6.3400  -28.1940   18.5160 C.3   207  PRO207      0.0268
     40  CG        -4.9260  -28.0850   18.7990 C.3   207  PRO207      0.0207
     41  CD        -4.7670  -28.4010   20.2330 C.3   207  PRO207      0.0892
     42  N         -0.5410  -25.0130   12.0580 N.3   231  VAL231     -0.1231
     43  CA        -1.0840  -24.8710   13.3900 C.3   231  VAL231      0.1692
     44  C         -0.4460  -25.8220   14.3850 C.2   231  VAL231      0.2592
     45  O         -0.3910  -25.4750   15.5960 O.2   231  VAL231     -0.2718
     46  CB        -2.6340  -25.0930   13.3640 C.3   231  VAL231      0.0266
     47  CG1       -3.2720  -25.1230   14.7540 C.3   231  VAL231      0.0020
     48  CG2       -3.3050  -23.9920   12.5840 C.3   231  VAL231      0.0020
     49  N          0.0680  -26.9840   13.9330 N.am  232  GLY232     -0.1957
     50  CA         0.7150  -28.0340   14.7430 C.3   232  GLY232      0.1869
     51  C         -0.3810  -28.8090   15.4930 C.2   232  GLY232      0.2309
     52  O         -0.6490  -28.5560   16.6610 O.2   232  GLY232     -0.2863
     53  N          5.6940  -27.5700   19.1480 N.3   346  ARG346     -0.1231
     54  CA         4.4880  -27.1950   19.8540 C.3   346  ARG346      0.1694
     55  C          4.3190  -27.9880   21.1200 C.2   346  ARG346      0.2592
     56  O          4.8450  -29.1270   21.2120 O.2   346  ARG346     -0.2718
     57  CB         3.2330  -27.4220   18.9940 C.3   346  ARG346      0.0321
     58  CG         3.2240  -26.7090   17.6780 C.3   346  ARG346      0.0489
     59  CD         2.8350  -25.2340   17.8200 C.3   346  ARG346      0.2205
     60  NE         2.5890  -24.6110   16.5320 N.pl3 346  ARG346     -0.0865
     61  CZ         2.3460  -23.3140   16.3930 C.cat 346  ARG346      0.5346
     62  NH1        2.3650  -22.5120   17.4800 N.pl3 346  ARG346      0.1354
     63  NH2        2.0790  -22.8070   15.1950 N.pl3 346  ARG346      0.1354
     64  N          3.6250  -27.4020   22.0520 N.am  347  GLU347     -0.1966
     65  CA         3.4660  -28.0150   23.4110 C.3   347  GLU347      0.1733
     66  C          2.6440  -29.3020   23.3700 C.2   347  GLU347      0.2616
     67  O          2.7300  -30.1060   24.2770 O.2   347  GLU347     -0.2715
     68  CB         2.8080  -27.0690   24.4020 C.3   347  GLU347      0.0429
     69  CG         3.6850  -25.8140   24.6010 C.3   347  GLU347      0.1163
     70  CD         3.1060  -24.8050   25.5820 C.2   347  GLU347      0.3649
     71  OE1        2.0240  -24.9940   26.1680 O.co2 347  GLU347     -0.2457
     72  OE2        3.7950  -23.7940   25.8000 O.co2 347  GLU347     -0.2457
     73  N          1.7790  -29.4570   22.3420 N.am  348  ASN348     -0.1972
     74  CA         0.8450  -30.6180   22.2320 C.3   348  ASN348      0.1688
     75  C          1.4710  -31.8020   21.4850 C.2   348  ASN348      0.2292
     76  O          0.8160  -32.8850   21.4160 O.2   348  ASN348     -0.2864
     77  CB        -0.4460  -30.1610   21.5470 C.3   348  ASN348      0.1181
     78  CG        -0.2340  -29.6420   20.1890 C.2   348  ASN348      0.2629
     79  OD1        0.8250  -29.0480   19.8230 O.2   348  ASN348     -0.2716
     80  ND2       -1.2270  -29.8650   19.3180 N.am  348  ASN348     -0.0877
@<TRIPOS>BOND
     1    42    43    1
     2    48    46    1
     3     7     6    1
     4    46    43    1
     5    46    47    1
     6    43    44    1
     7    49    44   am
     8    49    50    1
     9    44    45    2
    10     6     8    1
    11     6     5    1
    12    50    51    1
    13    63    61    1
    14     5     2    1
    15    51    52    2
    16    15    13    1
    17    61    60    2
    18    61    62    1
    19    60    59    1
    20     2     1    1
    21     2     3    1
    22     9     3   am
    23     9    10    1
    24     3     4    2
    25    13    10    1
    26    13    14    1
    27    58    59    1
    28    58    57    1
    29    10    11    1
    30    39    40    1
    31    39    36    1
    32    37    38    2
    33    37    36    1
    34    40    41    1
    35    57    54    1
    36    53    54    1
    37    80    78   am
    38    36    35    1
    39    11    16   am
    40    11    12    2
    41    79    78    2
    42    54    55    1
    43    16    17    1
    44    78    77    1
    45    41    35    1
    46    25    22    1
    47    55    56    2
    48    55    64   am
    49    76    75    2
    50    75    74    1
    51    77    74    1
    52    21    22    1
    53    21    18   am
    54    17    20    1
    55    17    18    1
    56    64    65    1
    57    24    23    2
    58    22    23    1
    59    74    73    1
    60    18    19    2
    61    73    66   am
    62    23    26   am
    63    66    65    1
    64    66    67    2
    65    65    68    1
    66    29    28    2
    67    28    27    1
    68    26    27    1
    69    27    30    1
    70    68    69    1
    71    69    70    1
    72    70    72   ar
    73    70    71   ar
    74    30    31    1
    75    31    32    1
    76    32    33    1
