@<TRIPOS>MOLECULE
tmp/4d5eB04.pdb
 94 89 0 0 0
SMALL
GASTEIGER

@<TRIPOS>ATOM
      1  N        -52.0920  -67.0290    5.2510 N.3   150  GLU150     -0.1231
      2  CA       -52.8060  -68.2830    4.9940 C.3   150  GLU150      0.1699
      3  C        -54.2420  -68.0870    4.5980 C.2   150  GLU150      0.2593
      4  O        -55.0140  -69.0650    4.5560 O.2   150  GLU150     -0.2718
      5  CB       -52.6660  -69.1840    6.2470 C.3   150  GLU150      0.0402
      6  CG       -51.1840  -69.6280    6.4810 C.3   150  GLU150      0.1161
      7  CD       -50.9770  -70.5060    7.7010 C.2   150  GLU150      0.3649
      8  OE1      -51.9000  -70.4320    8.6100 O.co2 150  GLU150     -0.2457
      9  OE2      -49.8850  -71.1060    7.8370 O.co2 150  GLU150     -0.2457
     10  N        -54.5990  -66.8660    4.2550 N.am  151  GLY151     -0.1942
     11  CA       -55.9210  -66.5860    3.7270 C.3   151  GLY151      0.2014
     12  C        -56.0740  -66.9350    2.2670 C.2   151  GLY151      0.2638
     13  O        -55.2380  -67.6760    1.6970 O.2   151  GLY151     -0.2714
     14  N        -57.1530  -66.4010    1.6590 N.am  152  HIS152     -0.1973
     15  CA       -57.4220  -66.5510    0.2130 C.3   152  HIS152      0.1656
     16  C        -57.4930  -65.1550   -0.3000 C.2   152  HIS152      0.2291
     17  O        -58.4520  -64.4510   -0.0100 O.2   152  HIS152     -0.2864
     18  CB       -58.7530  -67.3000    0.0550 C.3   152  HIS152      0.0771
     19  CG       -58.6650  -68.7610    0.2140 C.ar  152  HIS152      0.0820
     20  ND1      -58.6780  -69.4820    1.4010 N.ar  152  HIS152     -0.2267
     21  CD2      -58.5020  -69.6880   -0.7590 C.ar  152  HIS152      0.1154
     22  CE1      -58.5460  -70.7670    1.1280 C.ar  152  HIS152      0.1986
     23  NE2      -58.4390  -70.8910   -0.1890 N.ar  152  HIS152     -0.2212
     24  N        -60.0530  -71.3520   12.7560 N.3   182  ARG182     -0.1231
     25  CA       -60.3050  -70.6180   11.5200 C.3   182  ARG182      0.1694
     26  C        -61.6290  -71.0300   10.8650 C.2   182  ARG182      0.2592
     27  O        -62.0740  -72.1520   11.0530 O.2   182  ARG182     -0.2718
     28  CB       -59.1770  -70.8760   10.5310 C.3   182  ARG182      0.0321
     29  CG       -59.0460  -72.2680    9.9580 C.3   182  ARG182      0.0489
     30  CD       -57.9240  -72.2810    8.9310 C.3   182  ARG182      0.2205
     31  NE       -56.7110  -71.7350    9.5010 N.pl3 182  ARG182     -0.0865
     32  CZ       -55.8590  -72.4800   10.1670 C.cat 182  ARG182      0.5346
     33  NH1      -56.1490  -73.7570   10.2930 N.pl3 182  ARG182      0.1354
     34  NH2      -54.7390  -71.9920   10.6870 N.pl3 182  ARG182      0.1354
     35  N        -62.2320  -70.1240   10.0880 N.am  183  ALA183     -0.1966
     36  CA       -63.4140  -70.4540    9.2770 C.3   183  ALA183      0.1728
     37  C        -63.0740  -71.5570    8.2660 C.2   183  ALA183      0.2616
     38  O        -61.9660  -71.5470    7.7630 O.2   183  ALA183     -0.2715
     39  CB       -63.9040  -69.2210    8.5070 C.3   183  ALA183      0.0334
     40  N        -64.0310  -72.4120    8.0240 N.am  184  LYS184     -0.1963
     41  CA       -63.8580  -73.4690    6.9880 C.3   184  LYS184      0.1728
     42  C        -63.7300  -72.7870    5.6180 C.2   184  LYS184      0.2616
     43  O        -64.3290  -71.7320    5.3530 O.2   184  LYS184     -0.2715
     44  CB       -65.0160  -74.4530    6.9890 C.3   184  LYS184      0.0311
     45  CG       -65.0790  -75.3900    8.2060 C.3   184  LYS184      0.0038
     46  CD       -66.4110  -76.1120    8.1830 C.3   184  LYS184      0.0206
     47  CE       -66.6000  -77.1990    9.2380 C.3   184  LYS184      0.1093
     48  NZ       -67.0270  -76.5610   10.5120 N.3   184  LYS184     -0.1314
     49  N        -62.9760  -73.4110    4.7170 N.am  185  SER185     -0.1950
     50  CA       -62.8290  -72.8670    3.3650 C.3   185  SER185      0.1924
     51  C        -63.6070  -73.7280    2.3490 C.2   185  SER185      0.2314
     52  O        -63.5130  -73.4480    1.1220 O.2   185  SER185     -0.2863
     53  CB       -61.3750  -72.7490    2.9490 C.3   185  SER185      0.2116
     54  OG       -60.8480  -73.9800    3.1620 O.3   185  SER185     -0.2180
     55  N        -66.4310  -73.5860    0.8850 N.3   187  LEU187     -0.1245
     56  CA       -67.4970  -72.7330    0.4800 C.3   187  LEU187      0.1561
     57  C        -68.3090  -73.4500   -0.6590 C.2   187  LEU187      0.2260
     58  O        -67.7700  -73.9280   -1.6690 O.2   187  LEU187     -0.2867
     59  CB       -66.9970  -71.3760   -0.0720 C.3   187  LEU187      0.0270
     60  CG       -66.7000  -70.1750    0.9020 C.3   187  LEU187      0.0019
     61  CD1      -65.6550  -70.5280    1.9300 C.3   187  LEU187      0.0001
     62  CD2      -66.2450  -68.9780    0.0530 C.3   187  LEU187      0.0001
     63  N        -54.6930  -76.8640   -3.7550 N.3   217  ARG217     -0.1245
     64  CA       -54.8850  -76.3200   -2.3880 C.3   217  ARG217      0.1563
     65  C        -56.1560  -76.9110   -1.7820 C.2   217  ARG217      0.2260
     66  O        -56.2280  -77.1720   -0.5710 O.2   217  ARG217     -0.2867
     67  CB       -54.9790  -74.7590   -2.4030 C.3   217  ARG217      0.0307
     68  CG       -54.9760  -74.2200   -1.0120 C.3   217  ARG217      0.0489
     69  CD       -54.9610  -72.6870   -0.9410 C.3   217  ARG217      0.2205
     70  NE       -55.0580  -72.2600    0.4610 N.pl3 217  ARG217     -0.0865
     71  CZ       -55.0800  -71.0260    0.8870 C.cat 217  ARG217      0.5346
     72  NH1      -55.0390  -70.0320    0.0690 N.pl3 217  ARG217      0.1354
     73  NH2      -55.1100  -70.8100    2.2070 N.pl3 217  ARG217      0.1354
     74  N        -62.1500  -69.4280   -4.9930 N.3   302  THR302     -0.1218
     75  CA       -62.4030  -68.8400   -3.6700 C.3   302  THR302      0.1862
     76  C        -62.1170  -67.3910   -3.5290 C.2   302  THR302      0.2287
     77  O        -62.5410  -66.7490   -2.5720 O.2   302  THR302     -0.2866
     78  CB       -61.5740  -69.5320   -2.5970 C.3   302  THR302      0.1770
     79  OG1      -60.2420  -69.6440   -3.0690 O.3   302  THR302     -0.2211
     80  CG2      -62.1370  -70.9410   -2.3420 C.3   302  THR302      0.0375
     81  N        -62.7500  -63.8210   -5.1130 N.3   304  PRO304     -0.2116
     82  CA       -63.5410  -63.0290   -6.0930 C.3   304  PRO304      0.1372
     83  C        -62.7800  -62.0870   -6.9290 C.2   304  PRO304      0.2244
     84  O        -63.1680  -61.7450   -8.0350 O.2   304  PRO304     -0.2868
     85  CB       -64.6010  -62.2970   -5.2170 C.3   304  PRO304      0.0268
     86  CG       -64.4740  -62.8540   -3.9160 C.3   304  PRO304      0.0207
     87  CD       -63.1880  -63.5680   -3.7410 C.3   304  PRO304      0.0892
     88  N        -68.1640  -68.0080   -6.6340 N.3   318  VAL318     -0.1245
     89  CA       -67.3090  -68.0220   -5.4440 C.3   318  VAL318      0.1561
     90  C        -67.5420  -69.3460   -4.7060 C.2   318  VAL318      0.2260
     91  O        -68.5870  -69.5250   -4.0430 O.2   318  VAL318     -0.2867
     92  CB       -67.4750  -66.8280   -4.5100 C.3   318  VAL318      0.0252
     93  CG1      -66.4950  -66.8690   -3.3490 C.3   318  VAL318      0.0019
     94  CG2      -67.3050  -65.5560   -5.2890 C.3   318  VAL318      0.0019
@<TRIPOS>BOND
     1    84    83    2
     2    83    82    1
     3    88    89    1
     4    82    85    1
     5    82    81    1
     6    89    90    1
     7    89    92    1
     8    94    92    1
     9    85    86    1
    10    81    87    1
    11    74    75    1
    12    90    91    2
    13    92    93    1
    14    86    87    1
    15    63    64    1
    16    75    76    1
    17    75    78    1
    18    76    77    2
    19    79    78    1
    20    78    80    1
    21    67    64    1
    22    67    68    1
    23    64    65    1
    24    65    66    2
    25    58    57    2
    26    68    69    1
    27    69    70    1
    28    21    23   ar
    29    21    19   ar
    30    57    56    1
    31    16    17    2
    32    16    15    1
    33    23    22   ar
    34    59    56    1
    35    59    60    1
    36    62    60    1
    37    18    15    1
    38    18    19    1
    39    72    71    1
    40    15    14    1
    41    19    20   ar
    42    70    71    2
    43    56    55    1
    44    71    73    1
    45    60    61    1
    46    52    51    2
    47    22    20   ar
    48    14    12   am
    49    13    12    2
    50    12    11    1
    51    51    50    1
    52    53    54    1
    53    53    50    1
    54    50    49    1
    55    11    10    1
    56    10     3   am
    57     4     3    2
    58     3     2    1
    59    49    42   am
    60     2     1    1
    61     2     5    1
    62    43    42    2
    63    42    41    1
    64     5     6    1
    65     6     7    1
    66    41    44    1
    67    41    40    1
    68    44    45    1
    69     7     9   ar
    70     7     8   ar
    71    38    37    2
    72    40    37   am
    73    46    45    1
    74    46    47    1
    75    37    36    1
    76    39    36    1
    77    30    31    1
    78    30    29    1
    79    47    48    1
    80    36    35    1
    81    31    32    2
    82    29    28    1
    83    35    26   am
    84    32    33    1
    85    32    34    1
    86    28    25    1
    87    26    27    2
    88    26    25    1
    89    25    24    1
