@<TRIPOS>MOLECULE
tmp/4d5eB05.pdb
 110 108 0 0 0
SMALL
GASTEIGER

@<TRIPOS>ATOM
      1  N        -37.6440  -90.0880  -15.3970 N.3   384  ARG384     -0.1231
      2  CA       -38.8990  -90.7810  -15.2270 C.3   384  ARG384      0.1694
      3  C        -38.7030  -92.2710  -14.8530 C.2   384  ARG384      0.2592
      4  O        -39.5590  -92.8250  -14.1900 O.2   384  ARG384     -0.2718
      5  CB       -39.7740  -90.6410  -16.4380 C.3   384  ARG384      0.0321
      6  CG       -40.3650  -89.2490  -16.6350 C.3   384  ARG384      0.0489
      7  CD       -41.5690  -89.1890  -17.5440 C.3   384  ARG384      0.2205
      8  NE       -41.2970  -89.7140  -18.8620 N.pl3 384  ARG384     -0.0865
      9  CZ       -40.7450  -89.0750  -19.8750 C.cat 384  ARG384      0.5346
     10  NH1      -40.4410  -87.7870  -19.8360 N.pl3 384  ARG384      0.1354
     11  NH2      -40.4560  -89.7240  -20.9730 N.pl3 384  ARG384      0.1354
     12  N        -37.6190  -92.8230  -15.3630 N.am  385  LYS385     -0.1966
     13  CA       -37.3060  -94.2780  -15.1010 C.3   385  LYS385      0.1728
     14  C        -36.9940  -94.5270  -13.6270 C.2   385  LYS385      0.2616
     15  O        -37.0800  -95.6420  -13.1640 O.2   385  LYS385     -0.2715
     16  CB       -36.1710  -94.7530  -15.9500 C.3   385  LYS385      0.0311
     17  CG       -36.5580  -94.8350  -17.3950 C.3   385  LYS385      0.0038
     18  CD       -35.3980  -95.3820  -18.2220 C.3   385  LYS385      0.0206
     19  CE       -35.6260  -95.0700  -19.6810 C.3   385  LYS385      0.1093
     20  NZ       -34.6530  -95.9340  -20.3820 N.3   385  LYS385     -0.1314
     21  N        -36.6370  -93.4980  -12.8460 N.am  386  VAL386     -0.1963
     22  CA       -36.2560  -93.6280  -11.4430 C.3   386  VAL386      0.1727
     23  C        -37.1830  -92.7890  -10.5370 C.2   386  VAL386      0.2616
     24  O        -36.8210  -92.5120   -9.3760 O.2   386  VAL386     -0.2715
     25  CB       -34.7870  -93.2500  -11.1860 C.3   386  VAL386      0.0290
     26  CG1      -33.8820  -94.2880  -11.8940 C.3   386  VAL386      0.0023
     27  CG2      -34.3540  -91.8570  -11.6160 C.3   386  VAL386      0.0023
     28  N        -38.2980  -92.3280  -11.0570 N.am  387  GLN387     -0.1963
     29  CA       -39.1840  -91.3680  -10.3910 C.3   387  GLN387      0.1733
     30  C        -40.4130  -92.0010   -9.8270 C.2   387  GLN387      0.2616
     31  O        -41.1090  -92.7420  -10.5350 O.2   387  GLN387     -0.2715
     32  CB       -39.6380  -90.3040  -11.4030 C.3   387  GLN387      0.0408
     33  CG       -40.4010  -89.1230  -10.8480 C.3   387  GLN387      0.0908
     34  CD       -40.9160  -88.2120  -11.9360 C.2   387  GLN387      0.2608
     35  OE1      -40.3980  -88.2310  -13.0390 O.2   387  GLN387     -0.2717
     36  NE2      -41.9250  -87.4000  -11.6150 N.am  387  GLN387     -0.0878
     37  N        -40.7360  -91.7670   -8.5870 N.am  388  ARG388     -0.1964
     38  CA       -41.9190  -92.3350   -7.9260 C.3   388  ARG388      0.1714
     39  C        -43.0490  -91.3100   -7.8720 C.2   388  ARG388      0.2458
     40  O        -42.7760  -90.1110   -8.0560 O.2   388  ARG388     -0.2730
     41  CB       -41.5280  -92.6790   -6.4910 C.3   388  ARG388      0.0347
     42  CG       -40.4310  -93.7180   -6.3900 C.3   388  ARG388      0.0492
     43  CD       -39.9400  -93.9240   -4.9310 C.3   388  ARG388      0.2205
     44  NE       -39.5090  -92.6150   -4.3110 N.pl3 388  ARG388     -0.0865
     45  CZ       -39.2840  -92.4230   -3.0390 C.cat 388  ARG388      0.5346
     46  NH1      -39.2830  -93.4570   -2.1840 N.pl3 388  ARG388      0.1354
     47  NH2      -39.0050  -91.2070   -2.6230 N.pl3 388  ARG388      0.1354
     48  N        -44.2780  -91.6910   -7.5760 N.am  389  PRO389     -0.2727
     49  CA       -45.3670  -90.7210   -7.5800 C.3   389  PRO389      0.1402
     50  C        -45.2160  -89.5650   -6.5730 C.2   389  PRO389      0.2269
     51  O        -45.7220  -88.4610   -6.8190 O.2   389  PRO389     -0.2865
     52  CB       -46.6040  -91.5860   -7.2040 C.3   389  PRO389      0.0296
     53  CG       -46.1900  -92.9500   -7.6950 C.3   389  PRO389      0.0237
     54  CD       -44.7690  -93.1170   -7.4180 C.3   389  PRO389      0.0939
     55  N        -37.2700  -80.2900   -0.3160 N.3   436  GLN436     -0.1245
     56  CA       -36.6240  -81.4900    0.3070 C.3   436  GLN436      0.1566
     57  C        -36.7750  -81.4690    1.7790 C.2   436  GLN436      0.2260
     58  O        -37.0150  -82.4950    2.4330 O.2   436  GLN436     -0.2867
     59  CB       -35.1610  -81.5780   -0.1020 C.3   436  GLN436      0.0367
     60  CG       -34.4840  -82.8070    0.4330 C.3   436  GLN436      0.0905
     61  CD       -34.9230  -84.1000   -0.2410 C.2   436  GLN436      0.2608
     62  OE1      -34.3120  -84.5110   -1.1990 O.2   436  GLN436     -0.2717
     63  NE2      -35.9900  -84.6710    0.2100 N.am  436  GLN436     -0.0878
     64  N        -38.8370  -84.9650    3.5900 N.3   440  PRO440     -0.2102
     65  CA       -37.5470  -85.5640    3.6950 C.3   440  PRO440      0.1504
     66  C        -37.3740  -86.9190    3.0180 C.2   440  PRO440      0.2576
     67  O        -36.2760  -87.2670    2.6350 O.2   440  PRO440     -0.2718
     68  CB       -37.2710  -85.6930    5.2190 C.3   440  PRO440      0.0282
     69  CG       -38.2330  -84.8080    5.8010 C.3   440  PRO440      0.0208
     70  CD       -39.3720  -84.4820    4.9030 C.3   440  PRO440      0.0893
     71  N        -38.4610  -87.6330    2.8860 N.am  441  ASN441     -0.1961
     72  CA       -38.4530  -88.9890    2.2740 C.3   441  ASN441      0.1819
     73  C        -38.9250  -88.9870    0.8440 C.2   441  ASN441      0.2622
     74  O        -38.9070  -90.0480    0.2420 O.2   441  ASN441     -0.2715
     75  CB       -39.2710  -89.9130    3.1530 C.3   441  ASN441      0.1195
     76  CG       -38.6720  -90.0590    4.5400 C.2   441  ASN441      0.2630
     77  OD1      -37.4750  -90.0510    4.7180 O.2   441  ASN441     -0.2716
     78  ND2      -39.5770  -90.1920    5.5120 N.am  441  ASN441     -0.0877
     79  N        -39.1990  -87.8140    0.2440 N.am  442  SER442     -0.1936
     80  CA       -39.3810  -87.6860   -1.2070 C.3   442  SER442      0.2055
     81  C        -38.0490  -87.4520   -1.8820 C.2   442  SER442      0.2642
     82  O        -37.1400  -86.8770   -1.2740 O.2   442  SER442     -0.2714
     83  CB       -40.3310  -86.5400   -1.5240 C.3   442  SER442      0.2130
     84  OG       -41.6330  -86.8110   -0.9730 O.3   442  SER442     -0.2179
     85  N        -37.8690  -87.9700   -3.0870 N.am  443  ARG443     -0.1977
     86  CA       -36.7620  -87.6100   -3.8910 C.3   443  ARG443      0.1597
     87  C        -37.1120  -86.3450   -4.7270 C.2   443  ARG443      0.2287
     88  O        -38.2340  -86.2030   -5.1940 O.2   443  ARG443     -0.2864
     89  CB       -36.3030  -88.7490   -4.8060 C.3   443  ARG443      0.0334
     90  CG       -35.0720  -88.5640   -5.6060 C.3   443  ARG443      0.0492
     91  CD       -34.3180  -89.8230   -5.9910 C.3   443  ARG443      0.2205
     92  NE       -33.6900  -90.4170   -4.8270 N.pl3 443  ARG443     -0.0865
     93  CZ       -34.0480  -91.5570   -4.2770 C.cat 443  ARG443      0.5346
     94  NH1      -34.9990  -92.2760   -4.7010 N.pl3 443  ARG443      0.1354
     95  NH2      -33.3820  -91.9440   -3.2100 N.pl3 443  ARG443      0.1354
     96  N        -30.5250  -84.6550   -0.1960 N.3   469  PRO469     -0.2116
     97  CA       -29.9560  -85.3590   -1.3460 C.3   469  PRO469      0.1372
     98  C        -30.7380  -84.9810   -2.6170 C.2   469  PRO469      0.2244
     99  O        -31.1460  -85.8630   -3.4110 O.2   469  PRO469     -0.2868
    100  CB       -30.1310  -86.8090   -0.9580 C.3   469  PRO469      0.0268
    101  CG       -31.3770  -86.8350   -0.1690 C.3   469  PRO469      0.0207
    102  CD       -31.3540  -85.5530    0.6230 C.3   469  PRO469      0.0892
    103  N        -28.0880  -91.0280   -6.9630 N.3   532  ILE532     -0.1245
    104  CA       -29.0110  -91.5790   -5.9750 C.3   532  ILE532      0.1561
    105  C        -28.3050  -92.4730   -4.9350 C.2   532  ILE532      0.2260
    106  O        -28.5160  -92.2920   -3.7040 O.2   532  ILE532     -0.2867
    107  CB       -30.1460  -92.3280   -6.6390 C.3   532  ILE532      0.0252
    108  CG1      -31.0080  -91.3560   -7.4450 C.3   532  ILE532      0.0019
    109  CG2      -30.9680  -93.1400   -5.6230 C.3   532  ILE532      0.0019
    110  CD1      -32.0220  -91.9750   -8.3510 C.3   532  ILE532      0.0001
@<TRIPOS>BOND
     1    11     9    1
     2    20    19    1
     3     9    10    1
     4     9     8    2
     5    19    18    1
     6     8     7    1
     7    18    17    1
     8     7     6    1
     9    17    16    1
    10     6     5    1
    11     5     2    1
    12    16    13    1
    13     1     2    1
    14    12    13    1
    15    12     3   am
    16     2     3    1
    17    13    14    1
    18     3     4    2
    19    14    15    2
    20    14    21   am
    21    35    34    2
    22    21    22    1
    23    34    36   am
    24    34    33    1
    25    26    25    1
    26    27    25    1
    27    22    25    1
    28    22    23    1
    29    32    33    1
    30    32    29    1
    31    28    23   am
    32    28    29    1
    33    23    24    2
    34    31    30    2
    35    29    30    1
    36    30    37   am
    37    37    38    1
    38   110   108    1
    39    40    39    2
    40    38    39    1
    41    38    41    1
    42    39    48   am
    43    53    54    1
    44    53    52    1
    45    49    48    1
    46    49    52    1
    47    49    50    1
    48    48    54    1
    49   108   107    1
    50   103   104    1
    51    51    50    2
    52   107   104    1
    53   107   109    1
    54    41    42    1
    55    42    43    1
    56    91    90    1
    57    91    92    1
    58   104   105    1
    59    90    89    1
    60    88    87    2
    61   105   106    2
    62    43    44    1
    63    92    93    2
    64    89    86    1
    65    87    86    1
    66    94    93    1
    67    44    45    2
    68    93    95    1
    69    86    85    1
    70    99    98    2
    71    85    81   am
    72    45    47    1
    73    45    46    1
    74    98    97    1
    75    81    82    2
    76    81    80    1
    77    83    80    1
    78    83    84    1
    79    97   100    1
    80    97    96    1
    81    80    79    1
    82    62    61    2
    83   100   101    1
    84    55    56    1
    85    61    63   am
    86    61    60    1
    87    96   102    1
    88   101   102    1
    89    59    56    1
    90    59    60    1
    91    74    73    2
    92    79    73   am
    93    56    57    1
    94    73    72    1
    95    57    58    2
    96    72    71    1
    97    72    75    1
    98    67    66    2
    99    71    66   am
   100    66    65    1
   101    75    76    1
   102    64    65    1
   103    64    70    1
   104    65    68    1
   105    76    77    2
   106    76    78   am
   107    70    69    1
   108    68    69    1
