@<TRIPOS>MOLECULE
tmp/4d5gB08.pdb
 83 81 0 0 0
SMALL
GASTEIGER

@<TRIPOS>ATOM
      1  N        -35.0490  -55.0720   13.1990 N.3   102  ASN102     -0.1240
      2  CA       -34.4150  -53.8360   12.8480 C.3   102  ASN102      0.1653
      3  C        -33.4490  -53.3880   13.9380 C.2   102  ASN102      0.2266
      4  O        -33.3650  -53.9710   14.9830 O.2   102  ASN102     -0.2867
      5  CB       -35.4640  -52.7640   12.5050 C.3   102  ASN102      0.1155
      6  CG       -35.0400  -51.8480   11.3770 C.2   102  ASN102      0.2627
      7  OD1      -33.8480  -51.5640   11.1820 O.2   102  ASN102     -0.2716
      8  ND2      -36.0130  -51.4250   10.5610 N.am  102  ASN102     -0.0877
      9  N        -33.7410  -44.7250   15.5180 N.3   108  ALA108     -0.1231
     10  CA       -34.5650  -44.6280   14.3160 C.3   108  ALA108      0.1694
     11  C        -34.8360  -43.1510   13.9800 C.2   108  ALA108      0.2592
     12  O        -35.0180  -42.3210   14.8780 O.2   108  ALA108     -0.2718
     13  CB       -35.8680  -45.3840   14.5370 C.3   108  ALA108      0.0304
     14  N        -34.7960  -42.8220   12.7010 N.am  109  GLY109     -0.1957
     15  CA       -35.0460  -41.4710   12.2150 C.3   109  GLY109      0.1869
     16  C        -33.8150  -40.5830   12.3380 C.2   109  GLY109      0.2309
     17  O        -33.8730  -39.4230   11.9770 O.2   109  GLY109     -0.2863
     18  N        -30.3560  -48.8770    9.9560 N.3   116  GLN116     -0.1231
     19  CA       -31.7900  -48.5960   10.1420 C.3   116  GLN116      0.1698
     20  C        -32.4890  -48.9660    8.8260 C.2   116  GLN116      0.2592
     21  O        -32.4060  -48.2230    7.8340 O.2   116  GLN116     -0.2718
     22  CB       -32.0570  -47.1660   10.5260 C.3   116  GLN116      0.0381
     23  CG       -31.6290  -46.8540   11.9360 C.3   116  GLN116      0.0905
     24  CD       -32.5000  -47.5100   13.0230 C.2   116  GLN116      0.2608
     25  OE1      -33.6990  -47.7250   12.8340 O.2   116  GLN116     -0.2717
     26  NE2      -31.9210  -47.6820   14.2190 N.am  116  GLN116     -0.0878
     27  N        -33.1520  -50.1060    8.7990 N.am  117  VAL117     -0.1966
     28  CA       -33.6870  -50.6110    7.5080 C.3   117  VAL117      0.1712
     29  C        -35.0180  -50.0090    7.1450 C.2   117  VAL117      0.2458
     30  O        -35.8910  -49.8850    7.9950 O.2   117  VAL117     -0.2730
     31  CB       -33.7650  -52.1420    7.5430 C.3   117  VAL117      0.0289
     32  CG1      -34.5920  -52.7220    6.3920 C.3   117  VAL117      0.0023
     33  CG2      -32.3590  -52.6820    7.6200 C.3   117  VAL117      0.0023
     34  N        -35.1730  -49.6220    5.8630 N.am  118  PRO118     -0.2716
     35  CA       -36.3670  -48.9800    5.4190 C.3   118  PRO118      0.1536
     36  C        -37.4190  -50.0320    5.1720 C.2   118  PRO118      0.2599
     37  O        -37.5430  -50.4970    4.0600 O.2   118  PRO118     -0.2715
     38  CB       -35.9210  -48.2220    4.1380 C.3   118  PRO118      0.0310
     39  CG       -34.7890  -48.9930    3.6710 C.3   118  PRO118      0.0237
     40  CD       -34.1190  -49.5880    4.8530 C.3   118  PRO118      0.0939
     41  N        -38.0920  -50.4520    6.2670 N.am  119  TRP119     -0.1960
     42  CA       -39.1660  -51.4430    6.1850 C.3   119  TRP119      0.1771
     43  C        -40.2610  -51.0380    5.2010 C.2   119  TRP119      0.2619
     44  O        -40.9850  -51.9280    4.6880 O.2   119  TRP119     -0.2715
     45  CB       -39.7900  -51.7130    7.5580 C.3   119  TRP119      0.0590
     46  CG       -40.2640  -50.4680    8.2420 C.ar  119  TRP119      0.0006
     47  CD1      -39.5320  -49.6690    9.1030 C.ar  119  TRP119      0.0946
     48  CD2      -41.5590  -49.8440    8.1140 C.ar  119  TRP119      0.0152
     49  NE1      -40.2640  -48.6080    9.4700 N.ar  119  TRP119     -0.2442
     50  CE2      -41.5100  -48.6540    8.8910 C.ar  119  TRP119      0.0810
     51  CE3      -42.7160  -50.1370    7.3940 C.ar  119  TRP119      0.0012
     52  CZ2      -42.5700  -47.7860    8.9790 C.ar  119  TRP119      0.0191
     53  CZ3      -43.8250  -49.2470    7.4940 C.ar  119  TRP119      0.0001
     54  CH2      -43.7430  -48.1030    8.2770 C.ar  119  TRP119      0.0015
     55  N        -40.3920  -49.7380    4.9260 N.am  120  GLN120     -0.1977
     56  CA       -41.3610  -49.2300    3.9590 C.3   120  GLN120      0.1601
     57  C        -41.1140  -49.7650    2.5380 C.2   120  GLN120      0.2287
     58  O        -42.0260  -49.7860    1.7000 O.2   120  GLN120     -0.2864
     59  CB       -41.4440  -47.6820    3.9980 C.3   120  GLN120      0.0394
     60  CG       -41.8310  -47.0980    5.4080 C.3   120  GLN120      0.0908
     61  CD       -42.5700  -45.7370    5.4150 C.2   120  GLN120      0.2608
     62  OE1      -43.6090  -45.5520    4.7590 O.2   120  GLN120     -0.2717
     63  NE2      -42.1120  -44.8160    6.2870 N.am  120  GLN120     -0.0878
     64  N        -44.7590  -52.4970   11.0210 N.3   131  ARG131     -0.1245
     65  CA       -43.6560  -52.0500   11.8930 C.3   131  ARG131      0.1563
     66  C        -44.2400  -52.0400   13.2760 C.2   131  ARG131      0.2260
     67  O        -45.1860  -51.3280   13.5530 O.2   131  ARG131     -0.2867
     68  CB       -43.1760  -50.6380   11.4760 C.3   131  ARG131      0.0307
     69  CG       -42.3480  -49.8850   12.4960 C.3   131  ARG131      0.0489
     70  CD       -41.0050  -50.5220   12.7660 C.3   131  ARG131      0.2205
     71  NE       -40.2460  -49.6750   13.6910 N.pl3 131  ARG131     -0.0865
     72  CZ       -38.9310  -49.6540   13.7970 C.cat 131  ARG131      0.5346
     73  NH1      -38.1570  -50.4270   13.0180 N.pl3 131  ARG131      0.1354
     74  NH2      -38.3860  -48.8110   14.6490 N.pl3 131  ARG131      0.1354
     75  N        -44.1590  -51.0740   17.0310 N.3   133  GLU133     -0.1245
     76  CA       -43.6470  -49.9770   17.8480 C.3   133  GLU133      0.1567
     77  C        -43.4590  -50.3490   19.3170 C.2   133  GLU133      0.2260
     78  O        -42.6020  -49.7590   20.0130 O.2   133  GLU133     -0.2867
     79  CB       -44.6120  -48.7810   17.8320 C.3   133  GLU133      0.0388
     80  CG       -44.8140  -48.2080   16.4270 C.3   133  GLU133      0.1160
     81  CD       -45.7460  -47.0190   16.3660 C.2   133  GLU133      0.3649
     82  OE1      -46.6940  -46.9730   17.1700 O.co2 133  GLU133     -0.2457
     83  OE2      -45.5590  -46.1650   15.4720 O.co2 133  GLU133     -0.2457
@<TRIPOS>BOND
     1    58    57    2
     2    57    56    1
     3    39    38    1
     4    39    40    1
     5    56    59    1
     6    56    55    1
     7    59    60    1
     8    37    36    2
     9    38    35    1
    10    44    43    2
    11    62    61    2
    12    40    34    1
    13    55    43   am
    14    36    35    1
    15    36    41   am
    16    43    42    1
    17    60    61    1
    18    61    63   am
    19    35    34    1
    20    34    29   am
    21    42    41    1
    22    42    45    1
    23    32    31    1
    24    29    28    1
    25    29    30    2
    26    51    53   ar
    27    51    48   ar
    28    53    54   ar
    29    28    31    1
    30    28    27    1
    31    31    33    1
    32    45    46    1
    33    21    20    2
    34    48    46   ar
    35    48    50   ar
    36    46    47   ar
    37    54    52   ar
    38    27    20   am
    39    20    19    1
    40    50    52   ar
    41    50    49   ar
    42    47    49   ar
    43    18    19    1
    44    19    22    1
    45    22    23    1
    46     8     6   am
    47    64    65    1
    48     7     6    2
    49     6     5    1
    50    68    65    1
    51    68    69    1
    52    65    66    1
    53    23    24    1
    54    17    16    2
    55    15    16    1
    56    15    14    1
    57    69    70    1
    58     5     2    1
    59    14    11   am
    60    70    71    1
    61    25    24    2
    62     2     1    1
    63     2     3    1
    64    73    72    1
    65    24    26   am
    66    66    67    2
    67    71    72    2
    68    72    74    1
    69     3     4    2
    70    11    10    1
    71    11    12    2
    72    10    13    1
    73    10     9    1
    74    83    81   ar
    75    81    80    1
    76    81    82   ar
    77    80    79    1
    78    75    76    1
    79    79    76    1
    80    76    77    1
    81    77    78    2
