@<TRIPOS>MOLECULE
tmp/4d5gB05.pdb
 94 89 0 0 0
SMALL
GASTEIGER

@<TRIPOS>ATOM
      1  N        -51.8220  -66.8440    5.2390 N.3   150  GLU150     -0.1231
      2  CA       -52.5320  -68.1180    4.9520 C.3   150  GLU150      0.1699
      3  C        -54.0290  -67.9280    4.6040 C.2   150  GLU150      0.2593
      4  O        -54.8080  -68.8810    4.6540 O.2   150  GLU150     -0.2718
      5  CB       -52.3910  -69.0480    6.1730 C.3   150  GLU150      0.0402
      6  CG       -50.9300  -69.4780    6.3790 C.3   150  GLU150      0.1161
      7  CD       -50.7520  -70.2940    7.6760 C.2   150  GLU150      0.3649
      8  OE1      -51.7020  -70.3750    8.5200 O.co2 150  GLU150     -0.2457
      9  OE2      -49.6760  -70.8560    7.8170 O.co2 150  GLU150     -0.2457
     10  N        -54.3940  -66.6790    4.3250 N.am  151  GLY151     -0.1942
     11  CA       -55.6570  -66.2960    3.7220 C.3   151  GLY151      0.2014
     12  C        -55.8090  -66.6900    2.2570 C.2   151  GLY151      0.2638
     13  O        -54.9750  -67.4150    1.6720 O.2   151  GLY151     -0.2714
     14  N        -56.8740  -66.1720    1.6560 N.am  152  HIS152     -0.1973
     15  CA       -57.1510  -66.3290    0.2100 C.3   152  HIS152      0.1656
     16  C        -57.1820  -64.9160   -0.2940 C.2   152  HIS152      0.2291
     17  O        -58.0700  -64.1740    0.0610 O.2   152  HIS152     -0.2864
     18  CB       -58.4990  -67.0360    0.0000 C.3   152  HIS152      0.0771
     19  CG       -58.4090  -68.5090    0.1130 C.ar  152  HIS152      0.0820
     20  ND1      -58.4050  -69.1690    1.3300 N.ar  152  HIS152     -0.2267
     21  CD2      -58.2010  -69.4560   -0.8250 C.ar  152  HIS152      0.1154
     22  CE1      -58.2110  -70.4630    1.1350 C.ar  152  HIS152      0.1986
     23  NE2      -58.1120  -70.6620   -0.1750 N.ar  152  HIS152     -0.2212
     24  N        -59.6700  -70.9790   12.7770 N.3   182  ARG182     -0.1231
     25  CA       -59.9200  -70.2240   11.5570 C.3   182  ARG182      0.1694
     26  C        -61.2320  -70.6490   10.9130 C.2   182  ARG182      0.2592
     27  O        -61.7460  -71.7110   11.2040 O.2   182  ARG182     -0.2718
     28  CB       -58.7900  -70.4200   10.5320 C.3   182  ARG182      0.0321
     29  CG       -58.7070  -71.8140    9.9030 C.3   182  ARG182      0.0489
     30  CD       -57.2950  -72.0800    9.3800 C.3   182  ARG182      0.2205
     31  NE       -56.3290  -72.0030   10.4790 N.pl3 182  ARG182     -0.0865
     32  CZ       -55.0130  -71.7950   10.3550 C.cat 182  ARG182      0.5346
     33  NH1      -54.4440  -71.6510    9.1490 N.pl3 182  ARG182      0.1354
     34  NH2      -54.2490  -71.7200   11.4600 N.pl3 182  ARG182      0.1354
     35  N        -61.7600  -69.8070   10.0290 N.am  183  ALA183     -0.1966
     36  CA       -62.9400  -70.1120    9.2570 C.3   183  ALA183      0.1728
     37  C        -62.6280  -71.2370    8.2800 C.2   183  ALA183      0.2616
     38  O        -61.5000  -71.3200    7.7710 O.2   183  ALA183     -0.2715
     39  CB       -63.3750  -68.8710    8.4790 C.3   183  ALA183      0.0334
     40  N        -63.6110  -72.0980    8.0130 N.am  184  LYS184     -0.1963
     41  CA       -63.4220  -73.0940    6.9560 C.3   184  LYS184      0.1728
     42  C        -63.3520  -72.3830    5.5810 C.2   184  LYS184      0.2616
     43  O        -63.9240  -71.2860    5.3950 O.2   184  LYS184     -0.2715
     44  CB       -64.5280  -74.1490    6.9580 C.3   184  LYS184      0.0311
     45  CG       -64.3780  -75.2130    8.0040 C.3   184  LYS184      0.0038
     46  CD       -65.6650  -76.0260    8.0550 C.3   184  LYS184      0.0206
     47  CE       -65.7310  -76.9090    9.2890 C.3   184  LYS184      0.1093
     48  NZ       -66.4950  -76.2350   10.3830 N.3   184  LYS184     -0.1314
     49  N        -62.6380  -73.0120    4.6470 N.am  185  SER185     -0.1950
     50  CA       -62.4980  -72.4810    3.3060 C.3   185  SER185      0.1924
     51  C        -63.2690  -73.2990    2.2640 C.2   185  SER185      0.2314
     52  O        -63.0990  -73.0590    1.0830 O.2   185  SER185     -0.2863
     53  CB       -61.0170  -72.3230    2.9270 C.3   185  SER185      0.2116
     54  OG       -60.3710  -73.5700    2.9250 O.3   185  SER185     -0.2180
     55  N        -66.2100  -73.0440    0.9160 N.3   187  LEU187     -0.1245
     56  CA       -67.2950  -72.2730    0.4210 C.3   187  LEU187      0.1561
     57  C        -68.0750  -73.0940   -0.6150 C.2   187  LEU187      0.2260
     58  O        -67.4570  -73.6440   -1.5360 O.2   187  LEU187     -0.2867
     59  CB       -66.7560  -70.9580   -0.2150 C.3   187  LEU187      0.0270
     60  CG       -66.5320  -69.8150    0.7600 C.3   187  LEU187      0.0019
     61  CD1      -65.4340  -70.1640    1.7330 C.3   187  LEU187      0.0001
     62  CD2      -66.1780  -68.5250    0.0370 C.3   187  LEU187      0.0001
     63  N        -54.4170  -76.6300   -3.7770 N.3   217  ARG217     -0.1245
     64  CA       -54.6930  -76.0640   -2.4320 C.3   217  ARG217      0.1563
     65  C        -55.9980  -76.6260   -1.8180 C.2   217  ARG217      0.2260
     66  O        -56.0590  -76.9140   -0.6220 O.2   217  ARG217     -0.2867
     67  CB       -54.6960  -74.5150   -2.4710 C.3   217  ARG217      0.0307
     68  CG       -54.6560  -73.9840   -1.0760 C.3   217  ARG217      0.0489
     69  CD       -54.5990  -72.4710   -0.9650 C.3   217  ARG217      0.2205
     70  NE       -54.7090  -72.1260    0.4650 N.pl3 217  ARG217     -0.0865
     71  CZ       -54.7810  -70.8900    0.9180 C.cat 217  ARG217      0.5346
     72  NH1      -54.7390  -69.8770    0.0870 N.pl3 217  ARG217      0.1354
     73  NH2      -54.9050  -70.6640    2.2000 N.pl3 217  ARG217      0.1354
     74  N        -61.9420  -69.1070   -4.9820 N.3   302  THR302     -0.1218
     75  CA       -62.2000  -68.5400   -3.6510 C.3   302  THR302      0.1862
     76  C        -61.8860  -67.0300   -3.5600 C.2   302  THR302      0.2287
     77  O        -62.2960  -66.3830   -2.6300 O.2   302  THR302     -0.2866
     78  CB       -61.3380  -69.2550   -2.6010 C.3   302  THR302      0.1770
     79  OG1      -59.9720  -69.3910   -3.0820 O.3   302  THR302     -0.2211
     80  CG2      -61.9110  -70.5880   -2.2770 C.3   302  THR302      0.0375
     81  N        -62.4190  -63.5270   -5.0250 N.3   304  PRO304     -0.2116
     82  CA       -63.1890  -62.7520   -6.0180 C.3   304  PRO304      0.1372
     83  C        -62.3760  -61.8210   -6.8910 C.2   304  PRO304      0.2244
     84  O        -62.8480  -61.4910   -7.9470 O.2   304  PRO304     -0.2868
     85  CB       -64.1610  -61.9130   -5.1510 C.3   304  PRO304      0.0268
     86  CG       -64.2390  -62.6650   -3.9080 C.3   304  PRO304      0.0207
     87  CD       -62.8410  -63.2240   -3.6680 C.3   304  PRO304      0.0892
     88  N        -67.8740  -67.6530   -6.6170 N.3   318  VAL318     -0.1245
     89  CA       -67.0190  -67.7400   -5.4770 C.3   318  VAL318      0.1561
     90  C        -67.2780  -69.0470   -4.7230 C.2   318  VAL318      0.2260
     91  O        -68.2940  -69.1800   -4.0340 O.2   318  VAL318     -0.2867
     92  CB       -67.1660  -66.5250   -4.5320 C.3   318  VAL318      0.0252
     93  CG1      -66.0890  -66.5350   -3.4460 C.3   318  VAL318      0.0019
     94  CG2      -67.0960  -65.2550   -5.3110 C.3   318  VAL318      0.0019
@<TRIPOS>BOND
     1    84    83    2
     2    83    82    1
     3    88    89    1
     4    82    85    1
     5    82    81    1
     6    89    90    1
     7    89    92    1
     8    94    92    1
     9    85    86    1
    10    81    87    1
    11    74    75    1
    12    90    91    2
    13    92    93    1
    14    86    87    1
    15    63    64    1
    16    75    76    1
    17    75    78    1
    18    76    77    2
    19    79    78    1
    20    78    80    1
    21    67    64    1
    22    67    68    1
    23    64    65    1
    24    65    66    2
    25    58    57    2
    26    68    69    1
    27    69    70    1
    28    21    23   ar
    29    21    19   ar
    30    57    56    1
    31    16    17    2
    32    16    15    1
    33    59    56    1
    34    59    60    1
    35    23    22   ar
    36    18    19    1
    37    18    15    1
    38    62    60    1
    39    72    71    1
    40    19    20   ar
    41    15    14    1
    42    56    55    1
    43    70    71    2
    44    60    61    1
    45    71    73    1
    46    52    51    2
    47    22    20   ar
    48    14    12   am
    49    13    12    2
    50    12    11    1
    51    51    50    1
    52    54    53    1
    53    53    50    1
    54    50    49    1
    55    11    10    1
    56    10     3   am
    57     3     4    2
    58     3     2    1
    59    49    42   am
    60     2     1    1
    61     2     5    1
    62    43    42    2
    63    42    41    1
    64     5     6    1
    65     6     7    1
    66    41    44    1
    67    41    40    1
    68    44    45    1
    69     7     9   ar
    70     7     8   ar
    71    38    37    2
    72    45    46    1
    73    40    37   am
    74    46    47    1
    75    37    36    1
    76    39    36    1
    77    33    32    1
    78    36    35    1
    79    47    48    1
    80    30    29    1
    81    30    31    1
    82    29    28    1
    83    35    26   am
    84    32    31    2
    85    32    34    1
    86    28    25    1
    87    26    27    2
    88    26    25    1
    89    25    24    1
