@<TRIPOS>MOLECULE
tmp/4d5gB06.pdb
 85 83 0 0 0
SMALL
GASTEIGER

@<TRIPOS>ATOM
      1  N        -48.5760  -70.6630   15.9390 N.3    16  TYR16      -0.1241
      2  CA       -49.2780  -70.6300   14.6630 C.3    16  TYR16       0.1605
      3  C        -48.7600  -71.6810   13.6600 C.2    16  TYR16       0.2264
      4  O        -49.0770  -71.5930   12.4820 O.2    16  TYR16      -0.2867
      5  CB       -49.3240  -69.1800   14.0530 C.3    16  TYR16       0.0534
      6  CG       -49.7640  -68.1930   15.0820 C.ar   16  TYR16      -0.0201
      7  CD1      -50.8770  -68.4430   15.8500 C.ar   16  TYR16      -0.0009
      8  CD2      -49.0140  -67.0470   15.3620 C.ar   16  TYR16      -0.0009
      9  CE1      -51.2490  -67.5900   16.8560 C.ar   16  TYR16       0.0417
     10  CE2      -49.4270  -66.1290   16.3340 C.ar   16  TYR16       0.0417
     11  CZ       -50.5250  -66.4170   17.0890 C.ar   16  TYR16       0.1957
     12  OH       -50.9090  -65.5640   18.1070 O.3    16  TYR16      -0.2866
     13  N        -49.5680  -62.7440   14.9620 N.3   143  HIS143     -0.1241
     14  CA       -50.8610  -63.3400   14.6910 C.3   143  HIS143      0.1621
     15  C        -51.4930  -62.8130   13.3980 C.2   143  HIS143      0.2264
     16  O        -51.9680  -63.5990   12.5440 O.2   143  HIS143     -0.2867
     17  CB       -51.7690  -63.0920   15.8690 C.3   143  HIS143      0.0745
     18  CG       -53.2030  -63.4810   15.6390 C.ar  143  HIS143      0.0817
     19  ND1      -54.2140  -62.5640   15.6250 N.ar  143  HIS143     -0.2268
     20  CD2      -53.7950  -64.6890   15.5140 C.ar  143  HIS143      0.1154
     21  CE1      -55.3610  -63.1750   15.4340 C.ar  143  HIS143      0.1986
     22  NE2      -55.1350  -64.4690   15.4270 N.ar  143  HIS143     -0.2212
     23  N        -49.6870  -64.1770   10.1630 N.3   146  PHE146     -0.1227
     24  CA       -50.1530  -65.5060    9.7530 C.3   146  PHE146      0.1736
     25  C        -51.5750  -65.4550    9.1580 C.2   146  PHE146      0.2595
     26  O        -51.8850  -66.1560    8.2050 O.2   146  PHE146     -0.2718
     27  CB       -50.0940  -66.5030   10.9050 C.3   146  PHE146      0.0547
     28  CG       -48.6960  -67.1230   11.1000 C.ar  146  PHE146     -0.0202
     29  CD1      -47.7370  -66.4770   11.8000 C.ar  146  PHE146     -0.0042
     30  CD2      -48.3780  -68.3330   10.5060 C.ar  146  PHE146     -0.0042
     31  CE1      -46.4910  -67.0500   11.9870 C.ar  146  PHE146     -0.0003
     32  CE2      -47.1050  -68.9180   10.6500 C.ar  146  PHE146     -0.0003
     33  CZ       -46.1370  -68.2460   11.3510 C.ar  146  PHE146     -0.0000
     34  N        -52.4370  -64.6500    9.7390 N.am  147  ARG147     -0.1980
     35  CA       -53.7900  -64.5000    9.1790 C.3   147  ARG147      0.1597
     36  C        -53.7510  -64.0550    7.7070 C.2   147  ARG147      0.2287
     37  O        -54.4120  -64.6300    6.8820 O.2   147  ARG147     -0.2864
     38  CB       -54.6410  -63.4660    9.9700 C.3   147  ARG147      0.0334
     39  CG       -55.1850  -64.0320   11.2430 C.3   147  ARG147      0.0492
     40  CD       -55.9320  -62.9770   12.0310 C.3   147  ARG147      0.2205
     41  NE       -56.9780  -62.3640   11.1990 N.pl3 147  ARG147     -0.0865
     42  CZ       -58.1590  -62.8800   11.0080 C.cat 147  ARG147      0.5346
     43  NH1      -58.4770  -64.0090   11.6660 N.pl3 147  ARG147      0.1354
     44  NH2      -59.0450  -62.2400   10.2450 N.pl3 147  ARG147      0.1354
     45  N        -51.8220  -66.8440    5.2390 N.3   150  GLU150     -0.1231
     46  CA       -52.5320  -68.1180    4.9520 C.3   150  GLU150      0.1699
     47  C        -54.0290  -67.9280    4.6040 C.2   150  GLU150      0.2592
     48  O        -54.8080  -68.8810    4.6540 O.2   150  GLU150     -0.2718
     49  CB       -52.3910  -69.0480    6.1730 C.3   150  GLU150      0.0402
     50  CG       -50.9300  -69.4780    6.3790 C.3   150  GLU150      0.1161
     51  CD       -50.7520  -70.2940    7.6760 C.2   150  GLU150      0.3649
     52  OE1      -51.7020  -70.3750    8.5200 O.co2 150  GLU150     -0.2457
     53  OE2      -49.6760  -70.8560    7.8170 O.co2 150  GLU150     -0.2457
     54  N        -54.3940  -66.6790    4.3250 N.am  151  GLY151     -0.1957
     55  CA       -55.6570  -66.2960    3.7220 C.3   151  GLY151      0.1869
     56  C        -55.8090  -66.6900    2.2570 C.2   151  GLY151      0.2309
     57  O        -54.9750  -67.4150    1.6720 O.2   151  GLY151     -0.2863
     58  N        -57.3730  -69.5890   18.6250 N.3   180  ALA180     -0.1231
     59  CA       -58.2760  -69.3230   17.4390 C.3   180  ALA180      0.1694
     60  C        -58.5090  -70.5710   16.6170 C.2   180  ALA180      0.2593
     61  O        -57.5590  -71.3320   16.3640 O.2   180  ALA180     -0.2718
     62  CB       -57.6960  -68.2980   16.5000 C.3   180  ALA180      0.0304
     63  N        -59.7620  -70.7340   16.1770 N.am  181  THR181     -0.1939
     64  CA       -60.0830  -71.6580   15.1010 C.3   181  THR181      0.2028
     65  C        -60.4540  -70.8420   13.8280 C.2   181  THR181      0.2642
     66  O        -61.3800  -70.0470   13.8220 O.2   181  THR181     -0.2714
     67  CB       -61.1110  -72.7320   15.5570 C.3   181  THR181      0.1808
     68  OG1      -61.5950  -73.4540   14.4190 O.3   181  THR181     -0.2208
     69  CG2      -62.2860  -72.1260   16.2910 C.3   181  THR181      0.0379
     70  N        -59.6700  -70.9790   12.7770 N.am  182  ARG182     -0.1963
     71  CA       -59.9200  -70.2240   11.5570 C.3   182  ARG182      0.1729
     72  C        -61.2320  -70.6490   10.9130 C.2   182  ARG182      0.2616
     73  O        -61.7460  -71.7110   11.2040 O.2   182  ARG182     -0.2715
     74  CB       -58.7900  -70.4200   10.5320 C.3   182  ARG182      0.0348
     75  CG       -58.7070  -71.8140    9.9030 C.3   182  ARG182      0.0492
     76  CD       -57.2950  -72.0800    9.3800 C.3   182  ARG182      0.2205
     77  NE       -56.3290  -72.0030   10.4790 N.pl3 182  ARG182     -0.0865
     78  CZ       -55.0130  -71.7950   10.3550 C.cat 182  ARG182      0.5346
     79  NH1      -54.4440  -71.6510    9.1490 N.pl3 182  ARG182      0.1354
     80  NH2      -54.2490  -71.7200   11.4600 N.pl3 182  ARG182      0.1354
     81  N        -61.7600  -69.8070   10.0290 N.am  183  ALA183     -0.1977
     82  CA       -62.9400  -70.1120    9.2570 C.3   183  ALA183      0.1597
     83  C        -62.6280  -71.2370    8.2800 C.2   183  ALA183      0.2287
     84  O        -61.5000  -71.3200    7.7710 O.2   183  ALA183     -0.2864
     85  CB       -63.3750  -68.8710    8.4790 C.3   183  ALA183      0.0319
@<TRIPOS>BOND
     1    57    56    2
     2    56    55    1
     3    55    54    1
     4    54    47   am
     5    47    48    2
     6    47    46    1
     7    46    45    1
     8    46    49    1
     9    49    50    1
    10    50    51    1
    11    37    36    2
    12    51    53   ar
    13    51    52   ar
    14    36    35    1
    15    84    83    2
    16    26    25    2
    17    83    82    1
    18    85    82    1
    19    79    78    1
    20    25    34   am
    21    25    24    1
    22    35    34    1
    23    35    38    1
    24    82    81    1
    25    76    75    1
    26    76    77    1
    27    24    23    1
    28    24    27    1
    29    75    74    1
    30    38    39    1
    31    81    72   am
    32    44    42    1
    33    78    77    2
    34    78    80    1
    35    30    32   ar
    36    30    28   ar
    37    74    71    1
    38    32    33   ar
    39    27    28    1
    40    72    73    2
    41    72    71    1
    42    42    41    2
    43    42    43    1
    44    28    29   ar
    45    41    40    1
    46    39    40    1
    47    33    31   ar
    48    71    70    1
    49    29    31   ar
    50     4     3    2
    51    16    15    2
    52    70    65   am
    53    15    14    1
    54     3     2    1
    55    66    65    2
    56    65    64    1
    57     5     2    1
    58     5     6    1
    59    68    67    1
    60     2     1    1
    61    14    13    1
    62    14    17    1
    63     6     8   ar
    64     6     7   ar
    65    64    67    1
    66    64    63    1
    67     8    10   ar
    68    22    21   ar
    69    22    20   ar
    70    21    19   ar
    71    20    18   ar
    72    67    69    1
    73    19    18   ar
    74    18    17    1
    75     7     9   ar
    76    63    60   am
    77    10    11   ar
    78    61    60    2
    79    62    59    1
    80    60    59    1
    81     9    11   ar
    82    11    12    1
    83    59    58    1
