@<TRIPOS>MOLECULE
tmp/4d5gB04.pdb
 110 108 0 0 0
SMALL
GASTEIGER

@<TRIPOS>ATOM
      1  N        -37.4780  -89.7920  -15.4500 N.3   384  ARG384     -0.1231
      2  CA       -38.7120  -90.5040  -15.3330 C.3   384  ARG384      0.1694
      3  C        -38.4670  -91.9850  -14.9930 C.2   384  ARG384      0.2592
      4  O        -39.2850  -92.5640  -14.2590 O.2   384  ARG384     -0.2718
      5  CB       -39.6080  -90.3830  -16.5980 C.3   384  ARG384      0.0321
      6  CG       -40.1740  -88.9480  -16.7950 C.3   384  ARG384      0.0489
      7  CD       -41.4740  -88.9210  -17.6000 C.3   384  ARG384      0.2205
      8  NE       -41.1860  -89.5230  -18.8620 N.pl3 384  ARG384     -0.0865
      9  CZ       -40.5680  -88.9440  -19.8720 C.cat 384  ARG384      0.5346
     10  NH1      -40.2290  -87.6320  -19.8490 N.pl3 384  ARG384      0.1354
     11  NH2      -40.3070  -89.6720  -20.9580 N.pl3 384  ARG384      0.1354
     12  N        -37.3880  -92.5770  -15.5030 N.am  385  LYS385     -0.1966
     13  CA       -37.0900  -93.9880  -15.1550 C.3   385  LYS385      0.1728
     14  C        -36.7760  -94.2180  -13.6790 C.2   385  LYS385      0.2616
     15  O        -36.9950  -95.3080  -13.1830 O.2   385  LYS385     -0.2715
     16  CB       -36.0230  -94.5570  -16.0380 C.3   385  LYS385      0.0311
     17  CG       -36.4730  -94.6310  -17.5010 C.3   385  LYS385      0.0038
     18  CD       -35.2970  -95.0970  -18.3320 C.3   385  LYS385      0.0206
     19  CE       -35.6060  -95.0330  -19.8310 C.3   385  LYS385      0.1093
     20  NZ       -34.2950  -95.0400  -20.5460 N.3   385  LYS385     -0.1314
     21  N        -36.3890  -93.1810  -12.9550 N.am  386  VAL386     -0.1963
     22  CA       -36.0050  -93.3170  -11.5650 C.3   386  VAL386      0.1727
     23  C        -36.9310  -92.5580  -10.5910 C.2   386  VAL386      0.2616
     24  O        -36.6220  -92.4050   -9.3710 O.2   386  VAL386     -0.2715
     25  CB       -34.4800  -93.0080  -11.3580 C.3   386  VAL386      0.0290
     26  CG1      -33.5860  -94.0910  -12.0240 C.3   386  VAL386      0.0023
     27  CG2      -34.0780  -91.5970  -11.8000 C.3   386  VAL386      0.0023
     28  N        -38.0940  -92.1640  -11.0900 N.am  387  GLN387     -0.1963
     29  CA       -38.9810  -91.1880  -10.4200 C.3   387  GLN387      0.1733
     30  C        -40.2580  -91.8100   -9.8780 C.2   387  GLN387      0.2616
     31  O        -40.9430  -92.5460  -10.5600 O.2   387  GLN387     -0.2715
     32  CB       -39.3170  -90.0610  -11.4110 C.3   387  GLN387      0.0408
     33  CG       -40.3290  -89.0080  -10.9350 C.3   387  GLN387      0.0908
     34  CD       -40.6810  -88.0080  -12.0170 C.2   387  GLN387      0.2608
     35  OE1      -40.2200  -88.1250  -13.1050 O.2   387  GLN387     -0.2717
     36  NE2      -41.5650  -87.0480  -11.7100 N.am  387  GLN387     -0.0878
     37  N        -40.5990  -91.5220   -8.6350 N.am  388  ARG388     -0.1964
     38  CA       -41.7660  -92.1060   -8.0120 C.3   388  ARG388      0.1714
     39  C        -42.8580  -91.0190   -7.9620 C.2   388  ARG388      0.2458
     40  O        -42.5530  -89.8310   -8.0950 O.2   388  ARG388     -0.2730
     41  CB       -41.3870  -92.5540   -6.6080 C.3   388  ARG388      0.0347
     42  CG       -40.2050  -93.5220   -6.5110 C.3   388  ARG388      0.0492
     43  CD       -39.7710  -93.6980   -5.0530 C.3   388  ARG388      0.2205
     44  NE       -39.3780  -92.4160   -4.4340 N.pl3 388  ARG388     -0.0865
     45  CZ       -39.2190  -92.2190   -3.1160 C.cat 388  ARG388      0.5346
     46  NH1      -39.3860  -93.1950   -2.2250 N.pl3 388  ARG388      0.1354
     47  NH2      -38.8750  -91.0300   -2.6700 N.pl3 388  ARG388      0.1354
     48  N        -44.1050  -91.4280   -7.7490 N.am  389  PRO389     -0.2727
     49  CA       -45.2150  -90.4820   -7.7030 C.3   389  PRO389      0.1402
     50  C        -45.0660  -89.3550   -6.6860 C.2   389  PRO389      0.2269
     51  O        -45.5180  -88.2380   -6.9430 O.2   389  PRO389     -0.2865
     52  CB       -46.4290  -91.3610   -7.3740 C.3   389  PRO389      0.0296
     53  CG       -46.0290  -92.7800   -7.7440 C.3   389  PRO389      0.0237
     54  CD       -44.5410  -92.8390   -7.6020 C.3   389  PRO389      0.0939
     55  N        -37.0010  -80.0800   -0.3640 N.3   436  GLN436     -0.1245
     56  CA       -36.3780  -81.2420    0.2140 C.3   436  GLN436      0.1566
     57  C        -36.5540  -81.2150    1.7150 C.2   436  GLN436      0.2260
     58  O        -36.8810  -82.2350    2.3500 O.2   436  GLN436     -0.2867
     59  CB       -34.8970  -81.3150   -0.1390 C.3   436  GLN436      0.0367
     60  CG       -34.2090  -82.5540    0.4850 C.3   436  GLN436      0.0905
     61  CD       -34.6660  -83.8320   -0.2140 C.2   436  GLN436      0.2608
     62  OE1      -34.0610  -84.2770   -1.1900 O.2   436  GLN436     -0.2717
     63  NE2      -35.7740  -84.3920    0.2600 N.am  436  GLN436     -0.0878
     64  N        -38.6010  -84.7460    3.5210 N.3   440  PRO440     -0.2102
     65  CA       -37.2820  -85.3750    3.6490 C.3   440  PRO440      0.1504
     66  C        -37.2520  -86.7390    2.9570 C.2   440  PRO440      0.2576
     67  O        -36.1950  -87.1970    2.5540 O.2   440  PRO440     -0.2718
     68  CB       -37.0930  -85.5330    5.1720 C.3   440  PRO440      0.0282
     69  CG       -38.1330  -84.7260    5.7800 C.3   440  PRO440      0.0208
     70  CD       -39.2290  -84.5070    4.8140 C.3   440  PRO440      0.0893
     71  N        -38.3920  -87.3940    2.8320 N.am  441  ASN441     -0.1961
     72  CA       -38.4270  -88.7470    2.1970 C.3   441  ASN441      0.1819
     73  C        -38.8910  -88.7480    0.7240 C.2   441  ASN441      0.2622
     74  O        -38.9100  -89.7910    0.0880 O.2   441  ASN441     -0.2715
     75  CB       -39.2090  -89.7210    3.0590 C.3   441  ASN441      0.1195
     76  CG       -38.6130  -89.8350    4.4800 C.2   441  ASN441      0.2630
     77  OD1      -37.3970  -89.8450    4.6910 O.2   441  ASN441     -0.2716
     78  ND2      -39.4820  -89.8770    5.4540 N.am  441  ASN441     -0.0877
     79  N        -39.1980  -87.5780    0.1610 N.am  442  SER442     -0.1936
     80  CA       -39.2680  -87.4610   -1.3050 C.3   442  SER442      0.2055
     81  C        -37.8740  -87.2580   -1.9200 C.2   442  SER442      0.2642
     82  O        -36.9620  -86.6500   -1.3060 O.2   442  SER442     -0.2714
     83  CB       -40.1780  -86.3120   -1.6480 C.3   442  SER442      0.2130
     84  OG       -41.4340  -86.4560   -1.0000 O.3   442  SER442     -0.2179
     85  N        -37.7030  -87.7240   -3.1570 N.am  443  ARG443     -0.1977
     86  CA       -36.5590  -87.3640   -3.9190 C.3   443  ARG443      0.1597
     87  C        -36.9360  -86.1110   -4.7300 C.2   443  ARG443      0.2287
     88  O        -38.0710  -85.9730   -5.2100 O.2   443  ARG443     -0.2864
     89  CB       -36.1030  -88.4900   -4.8510 C.3   443  ARG443      0.0334
     90  CG       -34.7920  -88.2260   -5.5300 C.3   443  ARG443      0.0492
     91  CD       -34.1190  -89.5040   -6.0210 C.3   443  ARG443      0.2205
     92  NE       -33.4920  -90.1640   -4.8940 N.pl3 443  ARG443     -0.0865
     93  CZ       -33.8990  -91.3020   -4.3490 C.cat 443  ARG443      0.5346
     94  NH1      -34.9050  -91.9850   -4.8180 N.pl3 443  ARG443      0.1354
     95  NH2      -33.2400  -91.7500   -3.3110 N.pl3 443  ARG443      0.1354
     96  N        -30.3530  -84.3850   -0.2080 N.3   469  PRO469     -0.2116
     97  CA       -29.7550  -84.9940   -1.3690 C.3   469  PRO469      0.1372
     98  C        -30.5040  -84.6650   -2.6470 C.2   469  PRO469      0.2244
     99  O        -30.9740  -85.5560   -3.3370 O.2   469  PRO469     -0.2868
    100  CB       -29.8470  -86.4900   -1.0390 C.3   469  PRO469      0.0268
    101  CG       -31.1420  -86.6130   -0.3280 C.3   469  PRO469      0.0207
    102  CD       -31.2100  -85.3400    0.5110 C.3   469  PRO469      0.0892
    103  N        -27.8790  -90.8130   -6.9940 N.3   532  ILE532     -0.1245
    104  CA       -28.8520  -91.3010   -6.0220 C.3   532  ILE532      0.1561
    105  C        -28.1260  -92.1770   -4.9690 C.2   532  ILE532      0.2260
    106  O        -28.3430  -92.0480   -3.7510 O.2   532  ILE532     -0.2867
    107  CB       -29.9880  -92.0770   -6.7190 C.3   532  ILE532      0.0252
    108  CG1      -30.8930  -91.1070   -7.5240 C.3   532  ILE532      0.0019
    109  CG2      -30.8210  -92.8970   -5.7160 C.3   532  ILE532      0.0019
    110  CD1      -31.8110  -91.7930   -8.4940 C.3   532  ILE532      0.0001
@<TRIPOS>BOND
     1    11     9    1
     2    20    19    1
     3     9    10    1
     4     9     8    2
     5    19    18    1
     6     8     7    1
     7    18    17    1
     8     7     6    1
     9    17    16    1
    10     6     5    1
    11     5     2    1
    12    16    13    1
    13    12    13    1
    14    12     3   am
    15     1     2    1
    16     2     3    1
    17    13    14    1
    18     3     4    2
    19    14    15    2
    20    14    21   am
    21    35    34    2
    22    21    22    1
    23    26    25    1
    24    34    36   am
    25    34    33    1
    26    27    25    1
    27    22    25    1
    28    22    23    1
    29    32    33    1
    30    32    29    1
    31    28    23   am
    32    28    29    1
    33    23    24    2
    34    31    30    2
    35    29    30    1
    36    30    37   am
    37    37    38    1
    38   110   108    1
    39    40    39    2
    40    38    39    1
    41    38    41    1
    42    39    48   am
    43    48    49    1
    44    48    54    1
    45    53    54    1
    46    53    52    1
    47    49    52    1
    48    49    50    1
    49   108   107    1
    50   103   104    1
    51    51    50    2
    52   107   104    1
    53   107   109    1
    54    41    42    1
    55    42    43    1
    56   104   105    1
    57    91    90    1
    58    91    92    1
    59    90    89    1
    60    88    87    2
    61    43    44    1
    62   105   106    2
    63    92    93    2
    64    89    86    1
    65    94    93    1
    66    87    86    1
    67    44    45    2
    68    93    95    1
    69    86    85    1
    70    99    98    2
    71    85    81   am
    72    45    47    1
    73    45    46    1
    74    98    97    1
    75    81    82    2
    76    81    80    1
    77    83    80    1
    78    83    84    1
    79    97   100    1
    80    97    96    1
    81    80    79    1
    82    62    61    2
    83   100   101    1
    84    55    56    1
    85   101   102    1
    86    61    63   am
    87    61    60    1
    88    96   102    1
    89    59    56    1
    90    59    60    1
    91    74    73    2
    92    79    73   am
    93    56    57    1
    94    73    72    1
    95    57    58    2
    96    72    71    1
    97    72    75    1
    98    67    66    2
    99    71    66   am
   100    66    65    1
   101    75    76    1
   102    64    65    1
   103    64    70    1
   104    65    68    1
   105    76    77    2
   106    76    78   am
   107    70    69    1
   108    68    69    1
