@<TRIPOS>MOLECULE
tmp/4d5hA00.pdb
 128 118 0 0 0
SMALL
GASTEIGER

@<TRIPOS>ATOM
      1  N         16.3200   27.3180   69.7490 N.3    14  ILE14      -0.1231
      2  CA        15.2040   28.1420   69.2920 C.3    14  ILE14       0.1692
      3  C         14.8770   27.8540   67.8410 C.2    14  ILE14       0.2593
      4  O         13.7270   27.9410   67.4540 O.2    14  ILE14      -0.2718
      5  CB        15.3660   29.6500   69.6200 C.3    14  ILE14       0.0266
      6  CG1       16.6990   30.2270   69.0990 C.3    14  ILE14       0.0019
      7  CG2       15.2130   29.8340   71.1350 C.3    14  ILE14       0.0020
      8  CD1       16.9000   31.7310   69.2820 C.3    14  ILE14       0.0001
      9  N         15.8520   27.4000   67.0620 N.am   15  GLY15      -0.1942
     10  CA        15.5900   27.0500   65.6860 C.3    15  GLY15       0.2014
     11  C         16.7720   26.4450   64.9590 C.2    15  GLY15       0.2639
     12  O         17.7900   26.1370   65.5490 O.2    15  GLY15      -0.2714
     13  N         16.5830   26.2480   63.6630 N.am   16  GLU16      -0.1963
     14  CA        17.5640   25.6310   62.7760 C.3    16  GLU16       0.1733
     15  C         18.1680   26.7210   61.9210 C.2    16  GLU16       0.2616
     16  O         17.4560   27.5620   61.4330 O.2    16  GLU16      -0.2715
     17  CB        16.8760   24.6270   61.8320 C.3    16  GLU16       0.0429
     18  CG        15.7060   25.2010   61.0170 C.3    16  GLU16       0.1163
     19  CD        15.1930   24.2670   59.9250 C.2    16  GLU16       0.3649
     20  OE1       14.7200   23.1640   60.2560 O.co2  16  GLU16      -0.2457
     21  OE2       15.2470   24.6440   58.7280 O.co2  16  GLU16      -0.2457
     22  N         19.4700   26.7010   61.7300 N.am   17  GLY17      -0.1955
     23  CA        20.1390   27.6570   60.8130 C.3    17  GLY17       0.1869
     24  C         20.7490   26.9060   59.6460 C.2    17  GLY17       0.2309
     25  O         20.7790   25.6850   59.6320 O.2    17  GLY17      -0.2863
     26  N         20.3850   27.0640   66.2100 N.3    22  VAL22      -0.1245
     27  CA        20.4810   28.3530   66.8810 C.3    22  VAL22       0.1561
     28  C         19.8500   28.2050   68.2600 C.2    22  VAL22       0.2260
     29  O         18.7980   27.5770   68.3980 O.2    22  VAL22      -0.2867
     30  CB        19.7700   29.4510   66.0810 C.3    22  VAL22       0.0252
     31  CG1       19.9370   30.8040   66.7670 C.3    22  VAL22       0.0019
     32  CG2       20.2910   29.5070   64.6660 C.3    22  VAL22       0.0019
     33  N         21.2250   35.4580   71.0450 N.3    38  ALA38      -0.1245
     34  CA        21.0960   34.2650   70.2270 C.3    38  ALA38       0.1562
     35  C         22.4960   33.7360   69.9510 C.2    38  ALA38       0.2260
     36  O         23.4350   34.5160   69.7640 O.2    38  ALA38      -0.2867
     37  CB        20.3780   34.5650   68.9240 C.3    38  ALA38       0.0290
     38  N         24.4280   31.1660   67.3910 N.3    40  LYS40      -0.1245
     39  CA        24.4640   30.3550   66.1860 C.3    40  LYS40       0.1561
     40  C         25.5880   29.3600   66.3040 C.2    40  LYS40       0.2260
     41  O         26.7350   29.7240   66.6390 O.2    40  LYS40      -0.2867
     42  CB        24.6670   31.2200   64.9410 C.3    40  LYS40       0.0271
     43  CG        23.6130   32.2880   64.7520 C.3    40  LYS40       0.0035
     44  CD        23.7670   32.9220   63.3790 C.3    40  LYS40       0.0206
     45  CE        23.1160   32.0560   62.3050 C.3    40  LYS40       0.1093
     46  NZ        22.9110   32.7950   61.0310 N.3    40  LYS40      -0.1314
     47  N         19.6080   42.6400   61.9800 N.3    70  VAL70      -0.1245
     48  CA        20.0530   42.0830   63.2470 C.3    70  VAL70       0.1561
     49  C         21.5400   42.4070   63.4760 C.2    70  VAL70       0.2260
     50  O         22.3300   42.4090   62.5420 O.2    70  VAL70      -0.2867
     51  CB        19.7420   40.5620   63.3000 C.3    70  VAL70       0.0252
     52  CG1       20.6460   39.7720   62.3520 C.3    70  VAL70       0.0019
     53  CG2       19.7900   40.0450   64.7290 C.3    70  VAL70       0.0019
     54  N         24.6210   36.7670   68.5680 N.3    85  MET85      -0.1230
     55  CA        23.8110   37.7820   67.8870 C.3    85  MET85       0.1702
     56  C         22.7600   38.3640   68.8150 C.2    85  MET85       0.2592
     57  O         22.3710   37.7400   69.7930 O.2    85  MET85      -0.2718
     58  CB        23.0630   37.1530   66.7010 C.3    85  MET85       0.0401
     59  CG        23.9390   36.4850   65.6540 C.3    85  MET85       0.0596
     60  SD        24.9550   37.6500   64.7270 S.3    85  MET85      -0.1393
     61  CE        23.7080   38.6770   63.9280 C.3    85  MET85       0.0692
     62  N         22.2570   39.5370   68.4410 N.am   86  GLU86      -0.1966
     63  CA        21.0610   40.0920   69.0090 C.3    86  GLU86       0.1733
     64  C         19.9230   39.0640   68.9830 C.2    86  GLU86       0.2616
     65  O         19.6900   38.4010   67.9530 O.2    86  GLU86      -0.2715
     66  CB        20.6580   41.3390   68.1960 C.3    86  GLU86       0.0429
     67  CG        19.2660   41.8600   68.4880 C.3    86  GLU86       0.1163
     68  CD        18.8530   43.0010   67.5730 C.2    86  GLU86       0.3649
     69  OE1       19.6250   43.3590   66.6460 O.co2  86  GLU86      -0.2457
     70  OE2       17.7480   43.5510   67.8250 O.co2  86  GLU86      -0.2457
     71  N         19.2190   38.9270   70.0940 N.am   87  LEU87      -0.1963
     72  CA        18.0970   37.9950   70.1750 C.3    87  LEU87       0.1728
     73  C         16.8140   38.6790   69.7220 C.2    87  LEU87       0.2616
     74  O         16.4450   39.7120   70.2730 O.2    87  LEU87      -0.2715
     75  CB        17.9170   37.4790   71.6130 C.3    87  LEU87       0.0311
     76  CG        16.8040   36.4670   71.8360 C.3    87  LEU87       0.0022
     77  CD1       17.0440   35.1670   71.1120 C.3    87  LEU87       0.0001
     78  CD2       16.6440   36.1880   73.3170 C.3    87  LEU87       0.0001
     79  N         16.1540   38.0890   68.7250 N.am   88  CYS88      -0.1968
     80  CA        14.8300   38.5190   68.2780 C.3    88  CYS88       0.1712
     81  C         13.8520   37.5260   68.8500 C.2    88  CYS88       0.2296
     82  O         13.7120   36.4190   68.3400 O.2    88  CYS88      -0.2864
     83  CB        14.7560   38.5500   66.7500 C.3    88  CYS88       0.0983
     84  SG        15.9620   39.6660   65.9900 S.3    88  CYS88      -0.0798
     85  N         11.1660   35.0980   67.1220 N.3    91  GLY91      -0.1210
     86  CA        11.6210   34.0260   66.2370 C.3    91  GLY91       0.1956
     87  C         11.5400   34.2940   64.7450 C.2    91  GLY91       0.2611
     88  O         11.5440   35.4420   64.2910 O.2    91  GLY91      -0.2717
     89  N         11.4930   33.2210   63.9640 N.am   92  GLU92      -0.1979
     90  CA        11.5210   33.3350   62.5030 C.3    92  GLU92       0.1602
     91  C         10.1910   33.8740   62.0100 C.2    92  GLU92       0.2287
     92  O          9.1490   33.4950   62.5380 O.2    92  GLU92      -0.2864
     93  CB        11.7250   31.9440   61.8620 C.3    92  GLU92       0.0415
     94  CG        13.1290   31.3980   61.9890 C.3    92  GLU92       0.1163
     95  CD        13.2190   29.9060   61.7350 C.2    92  GLU92       0.3649
     96  OE1       12.3630   29.1490   62.2500 O.co2  92  GLU92      -0.2457
     97  OE2       14.1760   29.4860   61.0460 O.co2  92  GLU92      -0.2457
     98  N         12.0910   33.3160   55.1200 N.3   136  ARG136     -0.1245
     99  CA        12.9220   32.4450   55.9720 C.3   136  ARG136      0.1563
    100  C         14.1360   33.1410   56.6060 C.2   136  ARG136      0.2260
    101  O         14.6560   32.6780   57.6320 O.2   136  ARG136     -0.2867
    102  CB        13.4140   31.1990   55.1760 C.3   136  ARG136      0.0307
    103  CG        14.3640   31.5190   54.0440 C.3   136  ARG136      0.0489
    104  CD        15.0660   30.3060   53.3870 C.3   136  ARG136      0.2205
    105  NE        15.6020   30.7900   52.1040 N.pl3 136  ARG136     -0.0865
    106  CZ        14.8750   30.8710   50.9900 C.cat 136  ARG136      0.5346
    107  NH1       13.6140   30.4530   50.9760 N.pl3 136  ARG136      0.1354
    108  NH2       15.3930   31.3620   49.8790 N.pl3 136  ARG136      0.1354
    109  N         13.5980   37.8300   60.8530 N.3   139  LEU139     -0.1245
    110  CA        13.3110   37.5380   62.2640 C.3   139  LEU139      0.1561
    111  C         12.3580   38.5810   62.8260 C.2   139  LEU139      0.2260
    112  O         12.2360   39.6920   62.2840 O.2   139  LEU139     -0.2867
    113  CB        14.5770   37.5710   63.0910 C.3   139  LEU139      0.0270
    114  CG        15.6840   36.6010   62.6200 C.3   139  LEU139      0.0019
    115  CD1       17.0320   36.9150   63.2430 C.3   139  LEU139      0.0001
    116  CD2       15.2350   35.1980   62.8720 C.3   139  LEU139      0.0001
    117  N         17.7040   38.9060   58.9660 N.3   149  GLY149     -0.1210
    118  CA        18.4140   38.1400   59.9930 C.3   149  GLY149      0.1956
    119  C         19.5780   37.2590   59.6520 C.2   149  GLY149      0.2611
    120  O         20.2480   36.7260   60.5500 O.2   149  GLY149     -0.2717
    121  N         19.8290   37.0680   58.3730 N.am  150  ASP150     -0.1973
    122  CA        20.7600   36.0260   57.9810 C.3   150  ASP150      0.1709
    123  C         21.3780   36.4360   56.6720 C.2   150  ASP150      0.2293
    124  O         20.6510   36.8890   55.7870 O.2   150  ASP150     -0.2864
    125  CB        19.9960   34.7000   57.8380 C.3   150  ASP150      0.1436
    126  CG        20.9140   33.4930   57.8100 C.2   150  ASP150      0.3671
    127  OD1       22.0510   33.5810   57.2870 O.co2 150  ASP150     -0.2456
    128  OD2       20.4840   32.4460   58.3040 O.co2 150  ASP150     -0.2456
@<TRIPOS>BOND
     1   108   106    1
     2   107   106    1
     3   106   105    2
     4   105   104    1
     5   104   103    1
     6   103   102    1
     7    98    99    1
     8   102    99    1
     9   124   123    2
    10    99   100    1
    11   100   101    2
    12   123   122    1
    13   127   126   ar
    14   126   125    1
    15   126   128   ar
    16   125   122    1
    17   122   121    1
    18   121   119   am
    19    21    19   ar
    20   117   118    1
    21    25    24    2
    22    24    23    1
    23   119   118    1
    24   119   120    2
    25    19    20   ar
    26    19    18    1
    27    23    22    1
    28   109   110    1
    29    18    17    1
    30    46    45    1
    31    97    95   ar
    32    16    15    2
    33    22    15   am
    34    95    94    1
    35    95    96   ar
    36    17    14    1
    37    93    94    1
    38    93    90    1
    39    15    14    1
    40    47    48    1
    41    91    90    1
    42    91    92    2
    43   110   111    1
    44   110   113    1
    45   112   111    2
    46    45    44    1
    47    52    51    1
    48    90    89    1
    49    50    49    2
    50   114   116    1
    51   114   113    1
    52   114   115    1
    53    14    13    1
    54    48    51    1
    55    48    49    1
    56    51    53    1
    57    44    43    1
    58    13    11   am
    59    61    60    1
    60    89    87   am
    61    88    87    2
    62    32    30    1
    63    60    59    1
    64    87    86    1
    65    43    42    1
    66    42    39    1
    67    11    12    2
    68    11    10    1
    69    59    58    1
    70    10     9    1
    71    84    83    1
    72    30    31    1
    73    30    27    1
    74    39    40    1
    75    39    38    1
    76    26    27    1
    77    86    85    1
    78    40    41    2
    79    69    68   ar
    80    58    55    1
    81    83    80    1
    82    27    28    1
    83     9     3   am
    84     4     3    2
    85    68    70   ar
    86    68    67    1
    87     3     2    1
    88    55    54    1
    89    55    56    1
    90    65    64    2
    91    66    67    1
    92    66    63    1
    93    28    29    2
    94    80    79    1
    95    80    81    1
    96    82    81    2
    97    62    56   am
    98    62    63    1
    99    79    73   am
   100    56    57    2
   101    37    34    1
   102    64    63    1
   103    64    71   am
   104     6     8    1
   105     6     5    1
   106     2     5    1
   107     2     1    1
   108     5     7    1
   109    73    72    1
   110    73    74    2
   111    36    35    2
   112    35    34    1
   113    71    72    1
   114    72    75    1
   115    34    33    1
   116    77    76    1
   117    75    76    1
   118    76    78    1
