@<TRIPOS>MOLECULE
tmp/4d5iA02.pdb
 128 125 0 0 0
SMALL
GASTEIGER

@<TRIPOS>ATOM
      1  N         30.3540   52.1550   86.6220 N.3   174  GLN174     -0.1245
      2  CA        29.1140   51.6930   85.9780 C.3   174  GLN174      0.1566
      3  C         29.4030   50.9330   84.6890 C.2   174  GLN174      0.2260
      4  O         28.4650   50.4410   84.0350 O.2   174  GLN174     -0.2867
      5  CB        28.1750   52.8830   85.6690 C.3   174  GLN174      0.0367
      6  CG        27.6680   53.6390   86.8770 C.3   174  GLN174      0.0905
      7  CD        26.9000   52.7580   87.8500 C.2   174  GLN174      0.2608
      8  OE1       26.0440   51.9530   87.4440 O.2   174  GLN174     -0.2717
      9  NE2       27.2190   52.8860   89.1320 N.am  174  GLN174     -0.0878
     10  N         34.0460   53.0460   94.7920 N.3   227  HIS227     -0.1241
     11  CA        33.5640   51.8980   93.9890 C.3   227  HIS227      0.1621
     12  C         34.7620   51.1040   93.4610 C.2   227  HIS227      0.2264
     13  O         35.4370   51.5480   92.5290 O.2   227  HIS227     -0.2867
     14  CB        32.7820   52.3490   92.7460 C.3   227  HIS227      0.0745
     15  CG        31.4970   53.0890   93.0050 C.ar  227  HIS227      0.0817
     16  ND1       30.2640   52.5240   92.7440 N.ar  227  HIS227     -0.2268
     17  CD2       31.2510   54.3830   93.3310 C.ar  227  HIS227      0.1154
     18  CE1       29.3120   53.4130   92.9700 C.ar  227  HIS227      0.1986
     19  NE2       29.8840   54.5590   93.3140 N.ar  227  HIS227     -0.2212
     20  N         24.5380   50.0250   85.5470 N.3   245  THR245     -0.1218
     21  CA        23.1740   50.5440   85.4380 C.3   245  THR245      0.1862
     22  C         22.4030   49.9900   84.2370 C.2   245  THR245      0.2287
     23  O         21.2890   49.4680   84.3980 O.2   245  THR245     -0.2866
     24  CB        23.1800   52.0870   85.4360 C.3   245  THR245      0.1770
     25  OG1       23.7050   52.5540   86.6830 O.3   245  THR245     -0.2211
     26  CG2       21.7750   52.6430   85.2800 C.3   245  THR245      0.0375
     27  N         22.8740   44.4060   86.8890 N.3   250  ARG250     -0.1245
     28  CA        23.8940   45.3920   87.2790 C.3   250  ARG250      0.1563
     29  C         25.0980   44.7540   87.9690 C.2   250  ARG250      0.2260
     30  O         26.1680   45.3490   87.9800 O.2   250  ARG250     -0.2867
     31  CB        23.3260   46.5560   88.1090 C.3   250  ARG250      0.0307
     32  CG        22.9720   46.2170   89.5360 C.3   250  ARG250      0.0489
     33  CD        22.1160   47.2970   90.1810 C.3   250  ARG250      0.2205
     34  NE        22.9030   48.3970   90.7580 N.pl3 250  ARG250     -0.0865
     35  CZ        23.0060   49.6140   90.2340 C.cat 250  ARG250      0.5346
     36  NH1       22.3750   49.9200   89.0970 N.pl3 250  ARG250      0.1354
     37  NH2       23.7490   50.5320   90.8530 N.pl3 250  ARG250      0.1354
     38  N         28.7640   48.6910   91.0170 N.3   257  PRO257     -0.2102
     39  CA        28.0290   49.8960   90.6310 C.3   257  PRO257      0.1504
     40  C         27.3320   50.5630   91.8050 C.2   257  PRO257      0.2575
     41  O         26.8140   51.6830   91.6640 O.2   257  PRO257     -0.2718
     42  CB        26.9780   49.3570   89.6570 C.3   257  PRO257      0.0282
     43  CG        26.6760   47.9860   90.1810 C.3   257  PRO257      0.0208
     44  CD        28.0030   47.4610   90.6900 C.3   257  PRO257      0.0893
     45  N         27.3050   49.9070   92.9680 N.am  258  ASP258     -0.1974
     46  CA        26.5970   50.4390   94.1160 C.3   258  ASP258      0.1708
     47  C         27.5540   51.2420   94.9900 C.2   258  ASP258      0.2293
     48  O         27.2610   52.3880   95.3500 O.2   258  ASP258     -0.2864
     49  CB        25.9810   49.3230   94.9590 C.3   258  ASP258      0.1436
     50  CG        24.8020   48.6360   94.2750 C.2   258  ASP258      0.3671
     51  OD1       24.3670   49.0460   93.1840 O.co2 258  ASP258     -0.2456
     52  OD2       24.3090   47.6640   94.8760 O.co2 258  ASP258     -0.2456
     53  N         24.7230   66.4650   85.7230 N.3   366  TRP366     -0.1241
     54  CA        23.8160   65.5790   84.9950 C.3   366  TRP366      0.1605
     55  C         22.4590   65.3970   85.6810 C.2   366  TRP366      0.2264
     56  O         22.2820   65.6580   86.8690 O.2   366  TRP366     -0.2867
     57  CB        24.4590   64.1890   84.7570 C.3   366  TRP366      0.0550
     58  CG        24.9040   63.4120   86.0020 C.ar  366  TRP366      0.0003
     59  CD1       25.9420   63.7130   86.8470 C.ar  366  TRP366      0.0946
     60  CD2       24.3700   62.1610   86.4650 C.ar  366  TRP366      0.0152
     61  NE1       26.0500   62.7560   87.8270 N.ar  366  TRP366     -0.2442
     62  CE2       25.1110   61.7870   87.6110 C.ar  366  TRP366      0.0810
     63  CE3       23.3430   61.3200   86.0140 C.ar  366  TRP366      0.0012
     64  CZ2       24.8620   60.6030   88.3100 C.ar  366  TRP366      0.0191
     65  CZ3       23.0890   60.1410   86.7180 C.ar  366  TRP366      0.0001
     66  CH2       23.8500   59.8020   87.8500 C.ar  366  TRP366      0.0015
     67  N         19.2430   62.2130   85.5400 N.3   368  ASP368     -0.1239
     68  CA        19.3060   60.7630   85.5700 C.3   368  ASP368      0.1674
     69  C         18.1600   60.1180   84.8010 C.2   368  ASP368      0.2266
     70  O         17.0390   60.0300   85.3120 O.2   368  ASP368     -0.2867
     71  CB        19.3280   60.3330   87.0420 C.3   368  ASP368      0.1410
     72  CG        19.3270   58.8200   87.2290 C.2   368  ASP368      0.3668
     73  OD1       19.4440   58.0700   86.2410 O.co2 368  ASP368     -0.2456
     74  OD2       19.2210   58.4000   88.4070 O.co2 368  ASP368     -0.2456
     75  N         17.8110   57.0540   84.0580 N.3   370  TYR370     -0.1227
     76  CA        17.4670   55.7180   84.5360 C.3   370  TYR370      0.1736
     77  C         16.5620   55.7550   85.7780 C.2   370  TYR370      0.2595
     78  O         15.5500   55.0530   85.8080 O.2   370  TYR370     -0.2718
     79  CB        18.7210   54.8870   84.8110 C.3   370  TYR370      0.0548
     80  CG        18.4250   53.5230   85.4240 C.ar  370  TYR370     -0.0200
     81  CD1       17.9010   52.4900   84.6460 C.ar  370  TYR370     -0.0009
     82  CD2       18.6810   53.2690   86.7790 C.ar  370  TYR370     -0.0009
     83  CE1       17.6390   51.2430   85.1960 C.ar  370  TYR370      0.0417
     84  CE2       18.4190   52.0220   87.3360 C.ar  370  TYR370      0.0417
     85  CZ        17.8940   51.0220   86.5420 C.ar  370  TYR370      0.1957
     86  OH        17.6360   49.7790   87.0940 O.3   370  TYR370     -0.2866
     87  N         16.9260   56.5490   86.7850 N.am  371  ALA371     -0.1980
     88  CA        16.2540   56.5050   88.0860 C.3   371  ALA371      0.1597
     89  C         15.9520   57.8710   88.6940 C.2   371  ALA371      0.2287
     90  O         15.6780   57.9600   89.8920 O.2   371  ALA371     -0.2864
     91  CB        17.0610   55.6520   89.0740 C.3   371  ALA371      0.0319
     92  N         17.7860   57.6880   94.0680 N.3   375  TRP375     -0.1241
     93  CA        18.7920   57.0200   94.8990 C.3   375  TRP375      0.1605
     94  C         19.6400   58.0060   95.7180 C.2   375  TRP375      0.2264
     95  O         20.1860   57.6230   96.7410 O.2   375  TRP375     -0.2867
     96  CB        19.6930   56.1620   94.0210 C.3   375  TRP375      0.0550
     97  CG        20.3930   56.9650   92.9490 C.ar  375  TRP375      0.0003
     98  CD1       19.9470   57.2290   91.6810 C.ar  375  TRP375      0.0946
     99  CD2       21.6520   57.6390   93.0830 C.ar  375  TRP375      0.0152
    100  NE1       20.8550   58.0260   91.0190 N.ar  375  TRP375     -0.2442
    101  CE2       21.9160   58.2840   91.8520 C.ar  375  TRP375      0.0810
    102  CE3       22.5920   57.7410   94.1210 C.ar  375  TRP375      0.0012
    103  CZ2       23.0850   59.0490   91.6350 C.ar  375  TRP375      0.0191
    104  CZ3       23.7480   58.4950   93.9080 C.ar  375  TRP375      0.0001
    105  CH2       23.9740   59.1420   92.6750 C.ar  375  TRP375      0.0015
    106  N         13.9640   55.3980   97.8280 N.3   380  TYR380     -0.1241
    107  CA        14.3180   54.5230   96.7190 C.3   380  TYR380      0.1605
    108  C         14.6140   53.0990   97.2010 C.2   380  TYR380      0.2264
    109  O         15.3320   52.9500   98.1840 O.2   380  TYR380     -0.2867
    110  CB        15.5250   55.1030   95.9620 C.3   380  TYR380      0.0534
    111  CG        15.8750   54.3830   94.6860 C.ar  380  TYR380     -0.0201
    112  CD1       15.1040   54.5550   93.5290 C.ar  380  TYR380     -0.0009
    113  CD2       16.9680   53.5220   94.6310 C.ar  380  TYR380     -0.0009
    114  CE1       15.4320   53.8990   92.3510 C.ar  380  TYR380      0.0417
    115  CE2       17.3080   52.8670   93.4570 C.ar  380  TYR380      0.0417
    116  CZ        16.5300   53.0540   92.3230 C.ar  380  TYR380      0.1957
    117  OH        16.8820   52.3870   91.1720 O.3   380  TYR380     -0.2866
    118  N         16.7810   58.7350  101.3880 N.3   393  ARG393     -0.1245
    119  CA        18.1020   59.3520  101.1680 C.3   393  ARG393      0.1563
    120  C         18.0610   60.8740  101.1230 C.2   393  ARG393      0.2260
    121  O         19.1070   61.5300  101.1800 O.2   393  ARG393     -0.2867
    122  CB        18.7420   58.7970   99.8880 C.3   393  ARG393      0.0307
    123  CG        18.8200   57.2830   99.8430 C.3   393  ARG393      0.0489
    124  CD        17.8190   56.7460   98.8210 C.3   393  ARG393      0.2205
    125  NE        17.7040   55.2860   98.8460 N.pl3 393  ARG393     -0.0865
    126  CZ        18.5740   54.4460   98.2960 C.cat 393  ARG393      0.5346
    127  NH1       19.6600   54.9000   97.6660 N.pl3 393  ARG393      0.1354
    128  NH2       18.3750   53.1260   98.3550 N.pl3 393  ARG393      0.1354
@<TRIPOS>BOND
     1     4     3    2
     2    75    76    1
     3    22    23    2
     4    22    21    1
     5    76    79    1
     6    76    77    1
     7    81    83   ar
     8    81    80   ar
     9     3     2    1
    10    57    54    1
    11    57    58    1
    12    69    70    2
    13    69    68    1
    14    79    80    1
    15    54    55    1
    16    54    53    1
    17    83    85   ar
    18    26    24    1
    19    80    82   ar
    20    24    21    1
    21    24    25    1
    22    21    20    1
    23    67    68    1
    24    68    71    1
    25     5     2    1
    26     5     6    1
    27    55    56    2
    28    77    78    2
    29    77    87   am
    30     2     1    1
    31    58    60   ar
    32    58    59   ar
    33    63    60   ar
    34    63    65   ar
    35    73    72   ar
    36    60    62   ar
    37    85    86    1
    38    85    84   ar
    39    65    66   ar
    40    82    84   ar
    41    87    88    1
    42    59    61   ar
    43     6     7    1
    44    27    28    1
    45    71    72    1
    46    72    74   ar
    47    28    29    1
    48    28    31    1
    49     8     7    2
    50    62    61   ar
    51    62    64   ar
    52     7     9   am
    53    66    64   ar
    54    29    30    2
    55    88    89    1
    56    88    91    1
    57    31    32    1
    58    89    90    2
    59    36    35    1
    60    32    33    1
    61    42    43    1
    62    42    39    1
    63    33    34    1
    64    43    44    1
    65    35    34    2
    66    35    37    1
    67    39    38    1
    68    39    40    1
    69    44    38    1
    70   100    98   ar
    71   100   101   ar
    72   117   116    1
    73   103   101   ar
    74   103   105   ar
    75    41    40    2
    76    98    97   ar
    77    40    45   am
    78   101    99   ar
    79   116   114   ar
    80   116   115   ar
    81   114   112   ar
    82    13    12    2
    83   105   104   ar
    84    16    18   ar
    85    16    15   ar
    86    14    15    1
    87    14    11    1
    88    97    99   ar
    89    97    96    1
    90    45    46    1
    91    18    19   ar
    92    15    17   ar
    93    99   102   ar
    94    51    50   ar
    95    19    17   ar
    96   115   113   ar
    97    12    11    1
    98   112   111   ar
    99   104   102   ar
   100    11    10    1
   101    96    93    1
   102    92    93    1
   103    46    49    1
   104    46    47    1
   105    50    52   ar
   106    50    49    1
   107   113   111   ar
   108   111   110    1
   109    93    94    1
   110    47    48    2
   111    94    95    2
   112   110   107    1
   113   107   108    1
   114   107   106    1
   115   108   109    2
   116   127   126    1
   117   126   128    1
   118   126   125    2
   119   124   125    1
   120   124   123    1
   121   123   122    1
   122   122   119    1
   123   120   119    1
   124   120   121    2
   125   119   118    1
