@<TRIPOS>MOLECULE
tmp/4d5jA01.pdb
 227 224 0 0 0
SMALL
GASTEIGER

@<TRIPOS>ATOM
      1  N         31.6200   62.2320   74.3140 N.3    36  ASN36      -0.1225
      2  CA        30.1970   61.9620   74.0320 C.3    36  ASN36       0.1785
      3  C         29.3700   63.2040   73.7760 C.2    36  ASN36       0.2597
      4  O         28.3360   63.1320   73.1220 O.2    36  ASN36      -0.2718
      5  CB        29.5500   61.1340   75.1580 C.3    36  ASN36       0.1169
      6  CG        29.2770   59.6960   74.7510 C.2    36  ASN36       0.2627
      7  OD1       30.0950   59.0590   74.0840 O.2    36  ASN36      -0.2716
      8  ND2       28.1280   59.1690   75.1880 N.am   36  ASN36      -0.0877
      9  N         29.8410   64.3450   74.2670 N.am   37  TRP37      -0.1962
     10  CA        29.1230   65.6060   74.0920 C.3    37  TRP37       0.1771
     11  C         29.4050   66.2500   72.7470 C.2    37  TRP37       0.2619
     12  O         28.7150   67.1910   72.3590 O.2    37  TRP37      -0.2715
     13  CB        29.5040   66.5820   75.2110 C.3    37  TRP37       0.0590
     14  CG        28.6130   66.4820   76.4270 C.ar   37  TRP37       0.0006
     15  CD1       27.6000   67.3310   76.7690 C.ar   37  TRP37       0.0946
     16  CD2       28.6490   65.4710   77.4400 C.ar   37  TRP37       0.0152
     17  NE1       27.0020   66.9120   77.9350 N.ar   37  TRP37      -0.2442
     18  CE2       27.6260   65.7680   78.3660 C.ar   37  TRP37       0.0810
     19  CE3       29.4380   64.3360   77.6450 C.ar   37  TRP37       0.0012
     20  CZ2       27.3950   64.9860   79.5020 C.ar   37  TRP37       0.0191
     21  CZ3       29.2140   63.5700   78.7700 C.ar   37  TRP37       0.0001
     22  CH2       28.1940   63.8890   79.6780 C.ar   37  TRP37       0.0015
     23  N         30.4370   65.7650   72.0550 N.am   38  ARG38      -0.1963
     24  CA        30.9560   66.4040   70.8440 C.3    38  ARG38       0.1729
     25  C         30.1950   66.0310   69.5950 C.2    38  ARG38       0.2616
     26  O         29.4780   65.0430   69.5620 O.2    38  ARG38      -0.2715
     27  CB        32.4200   66.0330   70.6400 C.3    38  ARG38       0.0348
     28  CG        33.3190   66.5410   71.7530 C.3    38  ARG38       0.0492
     29  CD        34.7690   66.1440   71.5240 C.3    38  ARG38       0.2205
     30  NE        35.5800   66.5530   72.6570 N.pl3  38  ARG38      -0.0865
     31  CZ        36.0730   67.7700   72.8450 C.cat  38  ARG38       0.5346
     32  NH1       35.8790   68.7510   71.9570 N.pl3  38  ARG38       0.1354
     33  NH2       36.7700   67.9910   73.9600 N.pl3  38  ARG38       0.1354
     34  N         30.3870   66.8350   68.5620 N.am   39  TRP39      -0.1960
     35  CA        29.9470   66.5100   67.2290 C.3    39  TRP39       0.1771
     36  C         30.8830   65.4400   66.6520 C.2    39  TRP39       0.2620
     37  O         32.1180   65.6000   66.6690 O.2    39  TRP39      -0.2715
     38  CB        29.9930   67.8060   66.4100 C.3    39  TRP39       0.0590
     39  CG        29.6150   67.7000   64.9670 C.ar   39  TRP39       0.0006
     40  CD1       28.6990   66.8580   64.4090 C.ar   39  TRP39       0.0946
     41  CD2       30.1160   68.5190   63.9070 C.ar   39  TRP39       0.0152
     42  NE1       28.6250   67.0760   63.0510 N.ar   39  TRP39      -0.2442
     43  CE2       29.4760   68.0990   62.7190 C.ar   39  TRP39       0.0810
     44  CE3       31.0510   69.5630   63.8440 C.ar   39  TRP39       0.0012
     45  CZ2       29.7470   68.6840   61.4700 C.ar   39  TRP39       0.0191
     46  CZ3       31.3250   70.1460   62.6010 C.ar   39  TRP39       0.0001
     47  CH2       30.6650   69.7040   61.4310 C.ar   39  TRP39       0.0015
     48  N         30.2940   64.3390   66.1890 N.am   40  THR40      -0.1951
     49  CA        31.0530   63.2540   65.5750 C.3    40  THR40       0.1897
     50  C         30.6810   63.2140   64.0950 C.2    40  THR40       0.2313
     51  O         29.5270   62.9550   63.7610 O.2    40  THR40      -0.2863
     52  CB        30.7390   61.8800   66.2170 C.3    40  THR40       0.1794
     53  OG1       30.9660   61.9420   67.6300 O.3    40  THR40      -0.2208
     54  CG2       31.6380   60.7820   65.6360 C.3    40  THR40       0.0378
     55  N         27.3120   63.9910   59.5810 N.3    48  ASN48      -0.1240
     56  CA        27.3200   63.3550   60.9010 C.3    48  ASN48       0.1653
     57  C         27.5400   61.8500   60.8540 C.2    48  ASN48       0.2266
     58  O         26.9770   61.1720   60.0040 O.2    48  ASN48      -0.2867
     59  CB        26.0010   63.6380   61.6230 C.3    48  ASN48       0.1155
     60  CG        25.9930   64.9960   62.3040 C.2    48  ASN48       0.2627
     61  OD1       26.4120   65.9970   61.7250 O.2    48  ASN48      -0.2716
     62  ND2       25.5550   65.0260   63.5620 N.am   48  ASN48      -0.0877
     63  N         26.9590   60.3540   63.8550 N.3    50  TYR50      -0.1227
     64  CA        25.9670   60.0930   64.8820 C.3    50  TYR50       0.1736
     65  C         25.0800   61.3130   64.9040 C.2    50  TYR50       0.2595
     66  O         25.5770   62.4270   64.8470 O.2    50  TYR50      -0.2718
     67  CB        26.6510   59.9010   66.2410 C.3    50  TYR50       0.0548
     68  CG        25.7150   59.6240   67.4020 C.ar   50  TYR50      -0.0200
     69  CD1       25.3240   58.3200   67.7070 C.ar   50  TYR50      -0.0009
     70  CD2       25.2350   60.6640   68.2040 C.ar   50  TYR50      -0.0009
     71  CE1       24.4840   58.0520   68.7770 C.ar   50  TYR50       0.0417
     72  CE2       24.4010   60.4060   69.2780 C.ar   50  TYR50       0.0417
     73  CZ        24.0230   59.1030   69.5560 C.ar   50  TYR50       0.1957
     74  OH        23.1970   58.8370   70.6310 O.3    50  TYR50      -0.2866
     75  N         23.7670   61.1010   64.9710 N.am   51  ASP51      -0.1960
     76  CA        22.8180   62.2050   64.9900 C.3    51  ASP51       0.1840
     77  C         21.6020   61.7660   65.7880 C.2    51  ASP51       0.2622
     78  O         21.1060   60.6660   65.6010 O.2    51  ASP51      -0.2715
     79  CB        22.4330   62.5910   63.5540 C.3    51  ASP51       0.1450
     80  CG        21.7660   63.9480   63.4640 C.2    51  ASP51       0.3671
     81  OD1       21.9220   64.7760   64.3910 O.co2  51  ASP51      -0.2456
     82  OD2       21.0950   64.1870   62.4330 O.co2  51  ASP51      -0.2456
     83  N         21.1250   62.6270   66.6740 N.am   52  GLY52      -0.1954
     84  CA        20.0470   62.2370   67.5920 C.3    52  GLY52       0.1869
     85  C         20.5230   61.1020   68.4740 C.2    52  GLY52       0.2309
     86  O         21.3800   61.2980   69.3390 O.2    52  GLY52      -0.2863
     87  N         27.9060   76.6330   73.4690 N.3    80  THR80      -0.1203
     88  CA        27.2330   75.3680   73.2350 C.3    80  THR80       0.1994
     89  C         26.9870   74.6340   74.5450 C.2    80  THR80       0.2617
     90  O         25.8970   74.1050   74.7530 O.2    80  THR80      -0.2717
     91  CB        28.0200   74.4660   72.2650 C.3    80  THR80       0.1784
     92  OG1       28.1380   75.1090   70.9870 O.3    80  THR80      -0.2211
     93  CG2       27.2940   73.1350   72.0520 C.3    80  THR80       0.0376
     94  N         27.9760   74.6270   75.4350 N.am   81  TYR81      -0.1975
     95  CA        27.9030   73.7060   76.5830 C.3    81  TYR81       0.1639
     96  C         27.6500   74.3480   77.9440 C.2    81  TYR81       0.2290
     97  O         27.4670   73.6390   78.9400 O.2    81  TYR81      -0.2864
     98  CB        29.1260   72.7760   76.6210 C.3    81  TYR81       0.0560
     99  CG        29.2340   71.9410   75.3610 C.ar   81  TYR81      -0.0198
    100  CD1       28.3920   70.8310   75.1620 C.ar   81  TYR81      -0.0009
    101  CD2       30.1420   72.2660   74.3410 C.ar   81  TYR81      -0.0009
    102  CE1       28.4610   70.0700   74.0050 C.ar   81  TYR81       0.0417
    103  CE2       30.2210   71.5090   73.1800 C.ar   81  TYR81       0.0417
    104  CZ        29.3800   70.4160   73.0080 C.ar   81  TYR81       0.1957
    105  OH        29.4610   69.6730   71.8430 O.3    81  TYR81      -0.2866
    106  N         21.1320   73.9530   68.9810 N.3   100  GLN100     -0.1231
    107  CA        20.4590   72.8010   69.5640 C.3   100  GLN100      0.1698
    108  C         20.4610   72.9470   71.0890 C.2   100  GLN100      0.2592
    109  O         21.1250   73.8290   71.6290 O.2   100  GLN100     -0.2718
    110  CB        21.1480   71.4900   69.1500 C.3   100  GLN100      0.0381
    111  CG        20.9680   71.0980   67.6850 C.3   100  GLN100      0.0905
    112  CD        22.0540   71.6400   66.7690 C.2   100  GLN100      0.2608
    113  OE1       22.9590   72.3560   67.2000 O.2   100  GLN100     -0.2717
    114  NE2       21.9680   71.2910   65.4880 N.am  100  GLN100     -0.0878
    115  N         19.6960   72.0990   71.7630 N.am  101  LYS101     -0.1966
    116  CA        19.6660   72.0850   73.2220 C.3   101  LYS101      0.1728
    117  C         20.7520   71.1390   73.7370 C.2   101  LYS101      0.2616
    118  O         20.8290   69.9880   73.3140 O.2   101  LYS101     -0.2715
    119  CB        18.2900   71.6140   73.6920 C.3   101  LYS101      0.0311
    120  CG        18.1610   71.3780   75.1810 C.3   101  LYS101      0.0038
    121  CD        16.8300   70.7050   75.4720 C.3   101  LYS101      0.0206
    122  CE        16.7610   70.1510   76.8890 C.3   101  LYS101      0.1093
    123  NZ        15.4640   69.4710   77.1510 N.3   101  LYS101     -0.1314
    124  N         21.5890   71.6370   74.6420 N.am  102  ASN102     -0.1958
    125  CA        22.5500   70.7980   75.3610 C.3   102  ASN102      0.1819
    126  C         22.1510   70.6350   76.8290 C.2   102  ASN102      0.2621
    127  O         21.7500   71.6060   77.4760 O.2   102  ASN102     -0.2715
    128  CB        23.9600   71.3830   75.2740 C.3   102  ASN102      0.1195
    129  CG        24.9420   70.6240   76.1370 C.2   102  ASN102      0.2630
    130  OD1       25.3820   69.5310   75.7530 O.2   102  ASN102     -0.2716
    131  ND2       25.2400   71.1590   77.3320 N.am  102  ASN102     -0.0877
    132  N         22.3070   69.4200   77.3590 N.am  103  VAL103     -0.1977
    133  CA        22.0900   69.1770   78.7960 C.3   103  VAL103      0.1596
    134  C         23.3850   68.7760   79.5000 C.2   103  VAL103      0.2287
    135  O         23.9790   67.7240   79.1840 O.2   103  VAL103     -0.2864
    136  CB        21.0170   68.0890   79.0210 C.3   103  VAL103      0.0276
    137  CG1       20.8360   67.7960   80.5100 C.3   103  VAL103      0.0022
    138  CG2       19.6910   68.5120   78.3780 C.3   103  VAL103      0.0022
    139  N         30.3010   66.7020   81.2000 N.3   106  ARG106     -0.1245
    140  CA        31.2530   65.9750   82.0280 C.3   106  ARG106      0.1563
    141  C         32.6390   66.4300   81.5720 C.2   106  ARG106      0.2260
    142  O         32.9330   66.4150   80.3540 O.2   106  ARG106     -0.2867
    143  CB        31.0520   64.4680   81.8700 C.3   106  ARG106      0.0307
    144  CG        32.0420   63.6290   82.6970 C.3   106  ARG106      0.0489
    145  CD        31.7090   62.1380   82.7320 C.3   106  ARG106      0.2205
    146  NE        31.8540   61.4720   81.4330 N.pl3 106  ARG106     -0.0865
    147  CZ        30.8710   60.8400   80.7950 C.cat 106  ARG106      0.5346
    148  NH1       29.6420   60.8170   81.2970 N.pl3 106  ARG106      0.1354
    149  NH2       31.1160   60.2260   79.6450 N.pl3 106  ARG106      0.1354
    150  N         26.8700   53.7260   77.2310 N.3   178  ASP178     -0.1239
    151  CA        26.3840   54.8520   76.4140 C.3   178  ASP178      0.1674
    152  C         27.4840   55.5860   75.6520 C.2   178  ASP178      0.2266
    153  O         27.2050   56.4460   74.8250 O.2   178  ASP178     -0.2867
    154  CB        25.5540   55.8280   77.2560 C.3   178  ASP178      0.1410
    155  CG        26.3580   56.5140   78.3360 C.2   178  ASP178      0.3668
    156  OD1       27.3200   55.9390   78.8780 O.co2 178  ASP178     -0.2456
    157  OD2       25.9620   57.6310   78.7110 O.co2 178  ASP178     -0.2456
    158  N         30.1300   56.4380   72.9380 N.3   180  LYS180     -0.1245
    159  CA        30.1050   56.2260   71.4910 C.3   180  LYS180      0.1561
    160  C         31.4160   55.6450   70.9570 C.2   180  LYS180      0.2260
    161  O         31.4270   54.9690   69.9310 O.2   180  LYS180     -0.2867
    162  CB        29.6970   57.5180   70.7720 C.3   180  LYS180      0.0271
    163  CG        28.2100   57.8020   70.9700 C.3   180  LYS180      0.0035
    164  CD        27.7420   59.1420   70.4120 C.3   180  LYS180      0.0206
    165  CE        28.0260   60.2370   71.4140 C.3   180  LYS180      0.1093
    166  NZ        27.2930   61.5120   71.1150 N.3   180  LYS180     -0.1314
    167  N         15.4910   59.2670   75.9160 N.3   197  ASN197     -0.1240
    168  CA        16.4670   60.3370   75.6850 C.3   197  ASN197      0.1653
    169  C         16.8020   60.4170   74.2090 C.2   197  ASN197      0.2266
    170  O         17.4000   59.4760   73.6510 O.2   197  ASN197     -0.2867
    171  CB        17.7290   60.0960   76.5230 C.3   197  ASN197      0.1155
    172  CG        18.6990   61.2660   76.5070 C.2   197  ASN197      0.2627
    173  OD1       18.7860   62.0170   75.5340 O.2   197  ASN197     -0.2716
    174  ND2       19.4400   61.4230   77.5910 N.am  197  ASN197     -0.0877
    175  N         18.9800   61.8840   72.6740 N.3   199  ASN199     -0.1225
    176  CA        20.3900   62.0900   72.3580 C.3   199  ASN199      0.1785
    177  C         21.2970   60.9080   72.6680 C.2   199  ASN199      0.2597
    178  O         22.4900   60.9730   72.3940 O.2   199  ASN199     -0.2718
    179  CB        20.9250   63.3270   73.0780 C.3   199  ASN199      0.1169
    180  CG        20.4240   64.6160   72.4630 C.2   199  ASN199      0.2627
    181  OD1       20.5530   64.8270   71.2600 O.2   199  ASN199     -0.2716
    182  ND2       19.8230   65.4700   73.2820 N.am  199  ASN199     -0.0877
    183  N         20.7500   59.8460   73.2560 N.am  200  THR200     -0.1953
    184  CA        21.5970   58.7800   73.7960 C.3   200  THR200      0.1897
    185  C         21.1290   57.3820   73.4380 C.2   200  THR200      0.2313
    186  O         19.9890   57.1700   73.0310 O.2   200  THR200     -0.2863
    187  CB        21.7240   58.8720   75.3390 C.3   200  THR200      0.1794
    188  OG1       20.4670   58.5460   75.9400 O.3   200  THR200     -0.2208
    189  CG2       22.1510   60.2830   75.7650 C.3   200  THR200      0.0378
    190  N         23.4950   50.4220   82.8480 N.3   246  TYR246     -0.1241
    191  CA        23.1250   50.3210   81.4340 C.3   246  TYR246      0.1605
    192  C         22.8450   48.8710   81.0040 C.2   246  TYR246      0.2264
    193  O         22.6020   48.6040   79.8170 O.2   246  TYR246     -0.2867
    194  CB        24.2080   50.9790   80.5480 C.3   246  TYR246      0.0534
    195  CG        24.5170   52.4330   80.9120 C.ar  246  TYR246     -0.0201
    196  CD1       23.7750   53.4810   80.3680 C.ar  246  TYR246     -0.0009
    197  CD2       25.5210   52.7500   81.8290 C.ar  246  TYR246     -0.0009
    198  CE1       24.0380   54.8040   80.7030 C.ar  246  TYR246      0.0417
    199  CE2       25.7920   54.0730   82.1760 C.ar  246  TYR246      0.0417
    200  CZ        25.0530   55.0930   81.5990 C.ar  246  TYR246      0.1957
    201  OH        25.3120   56.4090   81.9360 O.3   246  TYR246     -0.2866
    202  N         24.5570   66.5910   85.7990 N.3   366  TRP366     -0.1241
    203  CA        23.6470   65.6950   85.0750 C.3   366  TRP366      0.1605
    204  C         22.2850   65.5110   85.7470 C.2   366  TRP366      0.2264
    205  O         22.1240   65.7550   86.9390 O.2   366  TRP366     -0.2867
    206  CB        24.2840   64.3070   84.8360 C.3   366  TRP366      0.0550
    207  CG        24.8010   63.5610   86.0610 C.ar  366  TRP366      0.0003
    208  CD1       25.8760   63.8960   86.8540 C.ar  366  TRP366      0.0946
    209  CD2       24.3260   62.3000   86.5460 C.ar  366  TRP366      0.0152
    210  NE1       26.0640   62.9360   87.8210 N.ar  366  TRP366     -0.2442
    211  CE2       25.1330   61.9450   87.6570 C.ar  366  TRP366      0.0810
    212  CE3       23.2930   61.4380   86.1500 C.ar  366  TRP366      0.0012
    213  CZ2       24.9380   60.7560   88.3730 C.ar  366  TRP366      0.0191
    214  CZ3       23.0970   60.2550   86.8640 C.ar  366  TRP366      0.0001
    215  CH2       23.9150   59.9310   87.9620 C.ar  366  TRP366      0.0015
    216  N         18.3400   59.7500   83.6370 N.3   369  TYR369     -0.1241
    217  CA        17.3240   59.1440   82.7790 C.3   369  TYR369      0.1605
    218  C         16.9690   57.7110   83.1650 C.2   369  TYR369      0.2264
    219  O         16.0210   57.1470   82.6070 O.2   369  TYR369     -0.2867
    220  CB        17.7580   59.2190   81.2920 C.3   369  TYR369      0.0534
    221  CG        17.5130   60.5890   80.6650 C.ar  369  TYR369     -0.0201
    222  CD1       18.3590   61.6710   80.9250 C.ar  369  TYR369     -0.0009
    223  CD2       16.4150   60.7980   79.8210 C.ar  369  TYR369     -0.0009
    224  CE1       18.1230   62.9130   80.3590 C.ar  369  TYR369      0.0417
    225  CE2       16.1760   62.0380   79.2520 C.ar  369  TYR369      0.0417
    226  CZ        17.0240   63.0970   79.5210 C.ar  369  TYR369      0.1957
    227  OH        16.7550   64.3420   78.9570 O.3   369  TYR369     -0.2866
@<TRIPOS>BOND
     1    55    56    1
     2    58    57    2
     3    57    56    1
     4    56    59    1
     5    47    45   ar
     6    47    46   ar
     7    45    43   ar
     8    59    60    1
     9    61    60    2
    10    60    62   am
    11    82    80   ar
    12    46    44   ar
    13    43    42   ar
    14    43    41   ar
    15    42    40   ar
    16    80    79    1
    17    80    81   ar
    18    79    76    1
    19    51    50    2
    20    44    41   ar
    21    63    64    1
    22    41    39   ar
    23    50    49    1
    24    40    39   ar
    25    66    65    2
    26    64    65    1
    27    64    67    1
    28    65    75   am
    29    39    38    1
    30    75    76    1
    31    76    77    1
    32   114   112   am
    33    49    48    1
    34    49    52    1
    35    78    77    2
    36    54    52    1
    37    77    83   am
    38    48    36   am
    39    52    53    1
    40    67    68    1
    41    38    35    1
    42    36    37    2
    43    36    35    1
    44    83    84    1
    45   112   113    2
    46   112   111    1
    47    35    34    1
    48    68    69   ar
    49    68    70   ar
    50    84    85    1
    51   111   110    1
    52    69    71   ar
    53    70    72   ar
    54    85    86    2
    55    34    25   am
    56    71    73   ar
    57   106   107    1
    58   110   107    1
    59    72    73   ar
    60    73    74    1
    61    26    25    2
    62   107   108    1
    63    25    24    1
    64   161   160    2
    65   164   163    1
    66   164   165    1
    67    27    24    1
    68    27    28    1
    69   162   163    1
    70   162   159    1
    71    24    23    1
    72   160   159    1
    73    92    91    1
    74   108   109    2
    75   108   115   am
    76   166   165    1
    77   181   180    2
    78   159   158    1
    79    29    28    1
    80    29    30    1
    81   115   116    1
    82   105   104    1
    83    32    31    1
    84    93    91    1
    85    23    11   am
    86    91    88    1
    87   176   177    1
    88   176   175    1
    89   176   179    1
    90    12    11    2
    91   178   177    2
    92   180   179    1
    93   180   182   am
    94    30    31    2
    95   177   183   am
    96    11    10    1
    97    31    33    1
    98   104   103   ar
    99   104   102   ar
   100   186   185    2
   101     4     3    2
   102   103   101   ar
   103   116   119    1
   104   116   117    1
   105    88    87    1
   106    88    89    1
   107   183   184    1
   108   118   117    2
   109   185   184    1
   110   170   169    2
   111   119   120    1
   112   117   124   am
   113     3     2    1
   114     3     9   am
   115   184   187    1
   116   102   100   ar
   117     2     1    1
   118     2     5    1
   119     7     6    2
   120    10     9    1
   121    10    13    1
   122   169   168    1
   123   101    99   ar
   124    89    90    2
   125    89    94   am
   126   124   125    1
   127     6     5    1
   128     6     8   am
   129   153   152    2
   130   100    99   ar
   131   120   121    1
   132    13    14    1
   133   128   125    1
   134   128   129    1
   135   187   189    1
   136   187   188    1
   137   125   126    1
   138    99    98    1
   139    94    95    1
   140   121   122    1
   141   173   172    2
   142   152   151    1
   143   168   167    1
   144   168   171    1
   145   130   129    2
   146   129   131   am
   147   151   150    1
   148   151   154    1
   149    14    15   ar
   150    14    16   ar
   151   172   171    1
   152   172   174   am
   153    95    98    1
   154    95    96    1
   155    15    17   ar
   156   126   132   am
   157   126   127    2
   158   122   123    1
   159   154   155    1
   160   132   133    1
   161    16    19   ar
   162    16    18   ar
   163    19    21   ar
   164    17    18   ar
   165    96    97    2
   166   155   157   ar
   167   155   156   ar
   168    18    20   ar
   169   138   136    1
   170    21    22   ar
   171   133   136    1
   172   133   134    1
   173   227   226    1
   174   136   137    1
   175   135   134    2
   176   225   226   ar
   177   225   223   ar
   178    20    22   ar
   179   226   224   ar
   180   149   147    1
   181   193   192    2
   182   223   221   ar
   183   142   141    2
   184   224   222   ar
   185   196   198   ar
   186   196   195   ar
   187   194   195    1
   188   194   191    1
   189   221   222   ar
   190   221   220    1
   191   198   200   ar
   192   147   148    1
   193   147   146    2
   194   195   197   ar
   195   192   191    1
   196   139   140    1
   197   220   217    1
   198   146   145    1
   199   191   190    1
   200   141   140    1
   201   200   201    1
   202   200   199   ar
   203   197   199   ar
   204   143   140    1
   205   143   144    1
   206   219   218    2
   207   144   145    1
   208   217   218    1
   209   217   216    1
   210   206   203    1
   211   206   207    1
   212   203   204    1
   213   203   202    1
   214   204   205    2
   215   207   209   ar
   216   207   208   ar
   217   212   209   ar
   218   212   214   ar
   219   209   211   ar
   220   208   210   ar
   221   214   215   ar
   222   211   210   ar
   223   211   213   ar
   224   215   213   ar
