@<TRIPOS>MOLECULE
tmp/4d5qA03.pdb
 149 141 0 0 0
SMALL
GASTEIGER

@<TRIPOS>ATOM
      1  N         30.1380   52.4100   86.7630 N.3   174  GLN174     -0.1245
      2  CA        28.9510   51.8780   86.0890 C.3   174  GLN174      0.1566
      3  C         29.2820   51.1290   84.8100 C.2   174  GLN174      0.2260
      4  O         28.3640   50.6080   84.1580 O.2   174  GLN174     -0.2867
      5  CB        27.9780   52.9980   85.7200 C.3   174  GLN174      0.0367
      6  CG        27.4670   53.8120   86.8680 C.3   174  GLN174      0.0905
      7  CD        26.7850   52.9820   87.9400 C.2   174  GLN174      0.2608
      8  OE1       25.9350   52.1080   87.6600 O.2   174  GLN174     -0.2717
      9  NE2       27.1190   53.2740   89.1820 N.am  174  GLN174     -0.0878
     10  N         36.2270   54.3460   90.7580 N.3   211  GLU211     -0.1245
     11  CA        35.5720   55.6380   90.8400 C.3   211  GLU211      0.1567
     12  C         35.4600   56.0930   92.2940 C.2   211  GLU211      0.2260
     13  O         34.8940   55.3720   93.1330 O.2   211  GLU211     -0.2867
     14  CB        34.1760   55.5230   90.2180 C.3   211  GLU211      0.0388
     15  CG        33.3920   56.8240   90.2450 C.3   211  GLU211      0.1160
     16  CD        32.0070   56.6950   89.6670 C.2   211  GLU211      0.3649
     17  OE1       31.6530   55.6470   89.1110 O.co2 211  GLU211     -0.2457
     18  OE2       31.2520   57.6780   89.7730 O.co2 211  GLU211     -0.2457
     19  N         33.7100   58.9230   94.3080 N.3   213  ASP213     -0.1239
     20  CA        32.7170   59.9800   94.2610 C.3   213  ASP213      0.1674
     21  C         32.8780   60.8300   95.4880 C.2   213  ASP213      0.2266
     22  O         32.3010   60.5630   96.5380 O.2   213  ASP213     -0.2867
     23  CB        31.3170   59.3950   94.1500 C.3   213  ASP213      0.1410
     24  CG        31.0860   58.7260   92.8360 C.2   213  ASP213      0.3668
     25  OD1       31.6440   59.1840   91.8230 O.co2 213  ASP213     -0.2456
     26  OD2       30.2920   57.7940   92.8310 O.co2 213  ASP213     -0.2456
     27  N         28.5430   63.9300   95.2780 N.3   216  GLN216     -0.1245
     28  CA        27.3290   63.7800   94.4850 C.3   216  GLN216      0.1566
     29  C         26.3300   64.5950   95.2680 C.2   216  GLN216      0.2260
     30  O         26.0370   64.2500   96.4220 O.2   216  GLN216     -0.2867
     31  CB        26.8420   62.3550   94.4700 C.3   216  GLN216      0.0367
     32  CG        27.8240   61.3140   93.9840 C.3   216  GLN216      0.0905
     33  CD        27.9900   61.2780   92.5000 C.2   216  GLN216      0.2608
     34  OE1       27.0480   61.5120   91.7390 O.2   216  GLN216     -0.2717
     35  NE2       29.2020   60.9650   92.0620 N.am  216  GLN216     -0.0878
     36  N         31.1710   58.5540   98.1700 N.3   225  THR225     -0.1218
     37  CA        31.0440   57.1290   97.8000 C.3   225  THR225      0.1862
     38  C         32.2100   56.5220   97.0010 C.2   225  THR225      0.2287
     39  O         32.3380   56.7800   95.8050 O.2   225  THR225     -0.2866
     40  CB        29.7430   56.8880   96.9790 C.3   225  THR225      0.1770
     41  OG1       28.6410   57.5630   97.5990 O.3   225  THR225     -0.2211
     42  CG2       29.4790   55.3690   96.8390 C.3   225  THR225      0.0375
     43  N         33.8400   53.4230   94.9320 N.3   227  HIS227     -0.1241
     44  CA        33.4080   52.2530   94.1350 C.3   227  HIS227      0.1621
     45  C         34.6330   51.4540   93.6570 C.2   227  HIS227      0.2264
     46  O         35.3500   51.9140   92.7700 O.2   227  HIS227     -0.2867
     47  CB        32.6650   52.6990   92.8680 C.3   227  HIS227      0.0745
     48  CG        31.3610   53.4080   93.0920 C.ar  227  HIS227      0.0817
     49  ND1       30.1500   52.8260   92.7930 N.ar  227  HIS227     -0.2268
     50  CD2       31.0790   54.6740   93.4820 C.ar  227  HIS227      0.1154
     51  CE1       29.1730   53.6890   93.0260 C.ar  227  HIS227      0.1986
     52  NE2       29.7130   54.8260   93.4330 N.ar  227  HIS227     -0.2212
     53  N         24.4250   50.5680   85.5140 N.3   245  THR245     -0.1218
     54  CA        23.1460   51.2130   85.2270 C.3   245  THR245      0.1862
     55  C         22.6060   50.9340   83.8110 C.2   245  THR245      0.2287
     56  O         21.3920   50.9210   83.5910 O.2   245  THR245     -0.2866
     57  CB        23.3110   52.7310   85.4190 C.3   245  THR245      0.1770
     58  OG1       23.5710   52.9960   86.8090 O.3   245  THR245     -0.2211
     59  CG2       22.0640   53.5090   84.9830 C.3   245  THR245      0.0375
     60  N         22.5060   44.4670   86.8910 N.3   250  ARG250     -0.1245
     61  CA        23.3300   45.4510   87.5470 C.3   250  ARG250      0.1563
     62  C         24.6650   44.9050   88.0650 C.2   250  ARG250      0.2260
     63  O         25.6790   45.6270   88.0800 O.2   250  ARG250     -0.2867
     64  CB        22.5070   45.9630   88.7270 C.3   250  ARG250      0.0307
     65  CG        23.0320   47.2160   89.3120 C.3   250  ARG250      0.0489
     66  CD        22.0920   47.7780   90.3620 C.3   250  ARG250      0.2205
     67  NE        22.8050   48.9100   90.9140 N.pl3 250  ARG250     -0.0865
     68  CZ        22.9280   50.0830   90.3100 C.cat 250  ARG250      0.5346
     69  NH1       22.3170   50.3260   89.1560 N.pl3 250  ARG250      0.1354
     70  NH2       23.6530   51.0310   90.8810 N.pl3 250  ARG250      0.1354
     71  N         28.6930   49.0190   91.1590 N.3   257  PRO257     -0.2102
     72  CA        27.9350   50.2020   90.7570 C.3   257  PRO257      0.1504
     73  C         27.2030   50.8910   91.9000 C.2   257  PRO257      0.2575
     74  O         26.6380   51.9610   91.6920 O.2   257  PRO257     -0.2718
     75  CB        26.9140   49.6220   89.7690 C.3   257  PRO257      0.0282
     76  CG        26.6080   48.2640   90.3440 C.3   257  PRO257      0.0208
     77  CD        27.9230   47.7810   90.9120 C.3   257  PRO257      0.0893
     78  N         27.1700   50.2780   93.0860 N.am  258  ASP258     -0.1974
     79  CA        26.4300   50.8340   94.2130 C.3   258  ASP258      0.1708
     80  C         27.3560   51.6770   95.0660 C.2   258  ASP258      0.2293
     81  O         27.0530   52.8450   95.3700 O.2   258  ASP258     -0.2864
     82  CB        25.8350   49.7200   95.0740 C.3   258  ASP258      0.1436
     83  CG        24.7200   48.9690   94.3720 C.2   258  ASP258      0.3671
     84  OD1       24.3220   49.3490   93.2470 O.co2 258  ASP258     -0.2456
     85  OD2       24.2390   47.9790   94.9540 O.co2 258  ASP258     -0.2456
     86  N         28.3570   54.1260  100.2280 N.3   261  ASP261     -0.1239
     87  CA        27.9820   55.5310  100.2650 C.3   261  ASP261      0.1674
     88  C         27.7770   56.0460  101.6740 C.2   261  ASP261      0.2266
     89  O         27.2240   55.3530  102.5420 O.2   261  ASP261     -0.2867
     90  CB        26.6810   55.7700   99.4900 C.3   261  ASP261      0.1410
     91  CG        25.4780   55.0650  100.1350 C.2   261  ASP261      0.3668
     92  OD1       25.4990   53.8160  100.1510 O.co2 261  ASP261     -0.2456
     93  OD2       24.5470   55.7460  100.6210 O.co2 261  ASP261     -0.2456
     94  N         24.4790   67.1890   85.7960 N.3   366  TRP366     -0.1241
     95  CA        23.5830   66.3270   85.0470 C.3   366  TRP366      0.1605
     96  C         22.2460   66.1000   85.7440 C.2   366  TRP366      0.2264
     97  O         22.1280   66.3030   86.9570 O.2   366  TRP366     -0.2867
     98  CB        24.2710   64.9780   84.8010 C.3   366  TRP366      0.0550
     99  CG        24.8630   64.2890   86.0130 C.ar  366  TRP366      0.0003
    100  CD1       25.9850   64.6580   86.7020 C.ar  366  TRP366      0.0946
    101  CD2       24.4080   63.0720   86.6200 C.ar  366  TRP366      0.0152
    102  NE1       26.2320   63.7620   87.7160 N.ar  366  TRP366     -0.2442
    103  CE2       25.2890   62.7770   87.6830 C.ar  366  TRP366      0.0810
    104  CE3       23.3470   62.2050   86.3700 C.ar  366  TRP366      0.0012
    105  CZ2       25.1210   61.6640   88.5070 C.ar  366  TRP366      0.0191
    106  CZ3       23.1910   61.0760   87.1840 C.ar  366  TRP366      0.0001
    107  CH2       24.0820   60.8240   88.2320 C.ar  366  TRP366      0.0015
    108  N         17.1170   57.0060   86.7800 N.3   371  ALA371     -0.1245
    109  CA        16.4610   56.9400   88.0930 C.3   371  ALA371      0.1562
    110  C         16.0650   58.2860   88.7380 C.2   371  ALA371      0.2260
    111  O         15.7880   58.3370   89.9400 O.2   371  ALA371     -0.2867
    112  CB        17.3330   56.1280   89.0530 C.3   371  ALA371      0.0290
    113  N         17.8070   58.0410   94.1030 N.3   375  TRP375     -0.1241
    114  CA        18.8210   57.3550   94.9220 C.3   375  TRP375      0.1605
    115  C         19.6580   58.3370   95.7610 C.2   375  TRP375      0.2264
    116  O         20.2560   57.9470   96.7670 O.2   375  TRP375     -0.2867
    117  CB        19.7470   56.5130   94.0450 C.3   375  TRP375      0.0550
    118  CG        20.4090   57.3270   92.9730 C.ar  375  TRP375      0.0003
    119  CD1       19.9450   57.5360   91.7080 C.ar  375  TRP375      0.0946
    120  CD2       21.6620   58.0480   93.0650 C.ar  375  TRP375      0.0152
    121  NE1       20.8090   58.3550   91.0170 N.ar  375  TRP375     -0.2442
    122  CE2       21.8720   58.6750   91.8170 C.ar  375  TRP375      0.0810
    123  CE3       22.6080   58.2340   94.0860 C.ar  375  TRP375      0.0012
    124  CZ2       22.9850   59.4740   91.5530 C.ar  375  TRP375      0.0191
    125  CZ3       23.7260   59.0340   93.8240 C.ar  375  TRP375      0.0001
    126  CH2       23.8980   59.6420   92.5680 C.ar  375  TRP375      0.0015
    127  N         13.9310   55.6460   97.9290 N.3   380  TYR380     -0.1241
    128  CA        14.2860   54.7620   96.8240 C.3   380  TYR380      0.1605
    129  C         14.5850   53.3570   97.3340 C.2   380  TYR380      0.2264
    130  O         15.3540   53.2140   98.2760 O.2   380  TYR380     -0.2867
    131  CB        15.5060   55.3280   96.1130 C.3   380  TYR380      0.0534
    132  CG        15.8250   54.6790   94.8020 C.ar  380  TYR380     -0.0201
    133  CD1       15.0110   54.8790   93.6860 C.ar  380  TYR380     -0.0009
    134  CD2       16.9500   53.8730   94.6650 C.ar  380  TYR380     -0.0009
    135  CE1       15.3090   54.2740   92.4750 C.ar  380  TYR380      0.0417
    136  CE2       17.2530   53.2730   93.4630 C.ar  380  TYR380      0.0417
    137  CZ        16.4350   53.4890   92.3740 C.ar  380  TYR380      0.1957
    138  OH        16.7590   52.8870   91.1870 O.3   380  TYR380     -0.2866
    139  N         16.6990   58.8900  101.4540 N.3   393  ARG393     -0.1245
    140  CA        18.0140   59.5520  101.3100 C.3   393  ARG393      0.1563
    141  C         17.9450   61.0870  101.3000 C.2   393  ARG393      0.2260
    142  O         18.9650   61.7640  101.4080 O.2   393  ARG393     -0.2867
    143  CB        18.7300   59.0330  100.0570 C.3   393  ARG393      0.0307
    144  CG        18.7980   57.5210   99.9390 C.3   393  ARG393      0.0489
    145  CD        17.7730   57.0110   98.9290 C.3   393  ARG393      0.2205
    146  NE        17.6690   55.5510   98.8900 N.pl3 393  ARG393     -0.0865
    147  CZ        18.5620   54.7300   98.3510 C.cat 393  ARG393      0.5346
    148  NH1       19.6940   55.1860   97.8060 N.pl3 393  ARG393      0.1354
    149  NH2       18.3210   53.4270   98.3620 N.pl3 393  ARG393      0.1354
@<TRIPOS>BOND
     1    56    55    2
     2    55    54    1
     3     4     3    2
     4    98    95    1
     5    98    99    1
     6     3     2    1
     7    59    57    1
     8    95    96    1
     9    95    94    1
    10    54    57    1
    11    54    53    1
    12    57    58    1
    13     5     2    1
    14     5     6    1
    15    96    97    2
    16    99   101   ar
    17    99   100   ar
    18     2     1    1
    19   104   101   ar
    20   104   106   ar
    21   101   103   ar
    22   100   102   ar
    23   108   109    1
    24     6     7    1
    25    60    61    1
    26   106   107   ar
    27    61    62    1
    28    61    64    1
    29     8     7    2
    30   103   102   ar
    31   103   105   ar
    32     7     9   am
    33    62    63    2
    34   109   110    1
    35   109   112    1
    36   107   105   ar
    37    64    65    1
    38   110   111    2
    39    17    16   ar
    40    69    68    1
    41    65    66    1
    42    16    18   ar
    43    16    15    1
    44    75    76    1
    45    75    72    1
    46    14    15    1
    47    14    11    1
    48    68    70    1
    49    68    67    2
    50    76    77    1
    51    66    67    1
    52    72    71    1
    53    72    73    1
    54    10    11    1
    55    11    12    1
    56    77    71    1
    57   121   119   ar
    58   121   122   ar
    59   138   137    1
    60   124   122   ar
    61   124   126   ar
    62    74    73    2
    63   119   118   ar
    64    34    33    2
    65   122   120   ar
    66    25    24   ar
    67    73    78   am
    68    35    33   am
    69    12    13    2
    70   137   135   ar
    71   137   136   ar
    72   135   133   ar
    73    33    32    1
    74   126   125   ar
    75    46    45    2
    76    49    51   ar
    77    49    48   ar
    78    26    24   ar
    79    24    23    1
    80    47    48    1
    81    47    44    1
    82   118   120   ar
    83   118   117    1
    84    51    52   ar
    85   120   123   ar
    86    78    79    1
    87    48    50   ar
    88    84    83   ar
    89    52    50   ar
    90   136   134   ar
    91    45    44    1
    92   133   132   ar
    93   125   123   ar
    94    32    31    1
    95   117   114    1
    96   113   114    1
    97    44    43    1
    98    23    20    1
    99    79    80    1
   100    79    82    1
   101    20    19    1
   102    20    21    1
   103    83    85   ar
   104    83    82    1
   105    31    28    1
   106    28    29    1
   107    28    27    1
   108   134   132   ar
   109   132   131    1
   110   114   115    1
   111    80    81    2
   112    29    30    2
   113    21    22    2
   114   115   116    2
   115    39    38    2
   116   131   128    1
   117   128   129    1
   118   128   127    1
   119    42    40    1
   120    40    41    1
   121    40    37    1
   122    38    37    1
   123   129   130    2
   124    37    36    1
   125   148   147    1
   126   147   149    1
   127   147   146    2
   128   146   145    1
   129   145   144    1
   130    90    91    1
   131    90    87    1
   132   144   143    1
   133   143   140    1
   134    91    92   ar
   135    91    93   ar
   136    86    87    1
   137    87    88    1
   138   141   140    1
   139   141   142    2
   140   140   139    1
   141    88    89    2
