@<TRIPOS>MOLECULE
tmp/4d5qA02.pdb
 175 171 0 0 0
SMALL
GASTEIGER

@<TRIPOS>ATOM
      1  N         29.7840   64.7660   74.3740 N.3    37  TRP37      -0.1241
      2  CA        29.0560   66.0200   74.1650 C.3    37  TRP37       0.1605
      3  C         29.3560   66.6630   72.8090 C.2    37  TRP37       0.2264
      4  O         28.6810   67.6140   72.3760 O.2    37  TRP37      -0.2867
      5  CB        29.3610   67.0060   75.2910 C.3    37  TRP37       0.0550
      6  CG        28.4770   66.8660   76.5230 C.ar   37  TRP37       0.0003
      7  CD1       27.4870   67.7130   76.9200 C.ar   37  TRP37       0.0946
      8  CD2       28.5330   65.8330   77.5130 C.ar   37  TRP37       0.0152
      9  NE1       26.9120   67.2650   78.0810 N.ar   37  TRP37      -0.2442
     10  CE2       27.5400   66.1120   78.4680 C.ar   37  TRP37       0.0810
     11  CE3       29.3190   64.6880   77.6780 C.ar   37  TRP37       0.0012
     12  CZ2       27.3340   65.3040   79.5860 C.ar   37  TRP37       0.0191
     13  CZ3       29.0990   63.8850   78.7770 C.ar   37  TRP37       0.0001
     14  CH2       28.1180   64.1970   79.7210 C.ar   37  TRP37       0.0015
     15  N         27.1710   68.9660   81.3230 N.3   105  ALA105     -0.1231
     16  CA        28.5450   68.7600   80.8510 C.3   105  ALA105      0.1694
     17  C         29.2660   67.8300   81.8110 C.2   105  ALA105      0.2591
     18  O         28.9010   67.7220   82.9960 O.2   105  ALA105     -0.2718
     19  CB        29.3020   70.0770   80.7370 C.3   105  ALA105      0.0304
     20  N         30.2710   67.1450   81.2850 N.am  106  ARG106     -0.1980
     21  CA        31.2440   66.4140   82.0910 C.3   106  ARG106      0.1597
     22  C         32.6090   66.9000   81.6180 C.2   106  ARG106      0.2287
     23  O         32.9130   66.8600   80.4190 O.2   106  ARG106     -0.2864
     24  CB        31.1030   64.9110   81.9210 C.3   106  ARG106      0.0334
     25  CG        32.1340   64.1230   82.7030 C.3   106  ARG106      0.0492
     26  CD        31.8060   62.6330   82.8130 C.3   106  ARG106      0.2205
     27  NE        31.8950   61.8850   81.5550 N.pl3 106  ARG106     -0.0865
     28  CZ        30.8810   61.2630   80.9480 C.cat 106  ARG106      0.5346
     29  NH1       29.6660   61.2660   81.4690 N.pl3 106  ARG106      0.1354
     30  NH2       31.0790   60.6130   79.8110 N.pl3 106  ARG106      0.1354
     31  N         34.3300   64.2270   91.2680 N.3   144  TYR144     -0.1241
     32  CA        34.7880   62.8860   91.5440 C.3   144  TYR144      0.1605
     33  C         36.0740   62.5500   90.7860 C.2   144  TYR144      0.2264
     34  O         36.5570   63.3540   90.0230 O.2   144  TYR144     -0.2867
     35  CB        33.6670   61.8770   91.2640 C.3   144  TYR144      0.0534
     36  CG        33.1270   61.8130   89.8460 C.ar  144  TYR144     -0.0201
     37  CD1       32.2490   62.7940   89.3580 C.ar  144  TYR144     -0.0009
     38  CD2       33.4480   60.7460   89.0160 C.ar  144  TYR144     -0.0009
     39  CE1       31.7370   62.7160   88.0720 C.ar  144  TYR144      0.0417
     40  CE2       32.9360   60.6520   87.7320 C.ar  144  TYR144      0.0417
     41  CZ        32.0810   61.6290   87.2560 C.ar  144  TYR144      0.1957
     42  OH        31.5600   61.5340   85.9940 O.3   144  TYR144     -0.2866
     43  N         36.9610   58.0910   78.8610 N.3   170  TYR170     -0.1241
     44  CA        36.1800   57.9930   80.0810 C.3   170  TYR170      0.1605
     45  C         35.8880   56.5520   80.4730 C.2   170  TYR170      0.2264
     46  O         35.7380   55.6460   79.6270 O.2   170  TYR170     -0.2867
     47  CB        34.8600   58.7940   79.9880 C.3   170  TYR170      0.0534
     48  CG        34.0990   58.8700   81.3030 C.ar  170  TYR170     -0.0201
     49  CD1       34.6170   59.5800   82.3930 C.ar  170  TYR170     -0.0009
     50  CD2       32.8620   58.2520   81.4590 C.ar  170  TYR170     -0.0009
     51  CE1       33.9380   59.6510   83.5850 C.ar  170  TYR170      0.0417
     52  CE2       32.1840   58.3060   82.6560 C.ar  170  TYR170      0.0417
     53  CZ        32.7060   59.0150   83.7150 C.ar  170  TYR170      0.1957
     54  OH        32.0400   59.0680   84.9250 O.3   170  TYR170     -0.2866
     55  N         33.9780   54.6780   84.3120 N.3   172  ASP172     -0.1225
     56  CA        33.6150   54.7850   85.7100 C.3   172  ASP172      0.1805
     57  C         33.0330   53.4730   86.2060 C.2   172  ASP172      0.2598
     58  O         33.0420   52.4690   85.4720 O.2   172  ASP172     -0.2718
     59  CB        32.7330   56.0210   85.9750 C.3   172  ASP172      0.1424
     60  CG        31.2910   55.8790   85.4990 C.2   172  ASP172      0.3668
     61  OD1       30.7840   54.7410   85.3630 O.co2 172  ASP172     -0.2456
     62  OD2       30.6310   56.9490   85.2830 O.co2 172  ASP172     -0.2456
     63  N         32.5690   53.4580   87.4470 N.am  173  SER173     -0.1938
     64  CA        32.1940   52.2080   88.0850 C.3   173  SER173      0.2055
     65  C         30.8320   51.6650   87.6200 C.2   173  SER173      0.2642
     66  O         30.4220   50.5770   88.0490 O.2   173  SER173     -0.2714
     67  CB        32.1950   52.3700   89.6050 C.3   173  SER173      0.2130
     68  OG        31.1170   53.1770   90.0550 O.3   173  SER173     -0.2179
     69  N         30.1380   52.4100   86.7630 N.am  174  GLN174     -0.1976
     70  CA        28.9510   51.8780   86.0890 C.3   174  GLN174      0.1601
     71  C         29.2820   51.1290   84.8100 C.2   174  GLN174      0.2287
     72  O         28.3640   50.6080   84.1580 O.2   174  GLN174     -0.2864
     73  CB        27.9780   52.9980   85.7200 C.3   174  GLN174      0.0394
     74  CG        27.4670   53.8120   86.8680 C.3   174  GLN174      0.0908
     75  CD        26.7850   52.9820   87.9400 C.2   174  GLN174      0.2608
     76  OE1       25.9350   52.1080   87.6600 O.2   174  GLN174     -0.2717
     77  NE2       27.1190   53.2740   89.1820 N.am  174  GLN174     -0.0878
     78  N         26.8520   54.0060   77.2960 N.3   178  ASP178     -0.1239
     79  CA        26.3500   55.1340   76.4960 C.3   178  ASP178      0.1674
     80  C         27.4520   55.9040   75.7580 C.2   178  ASP178      0.2266
     81  O         27.1520   56.8240   74.9770 O.2   178  ASP178     -0.2867
     82  CB        25.5150   56.1040   77.3440 C.3   178  ASP178      0.1410
     83  CG        26.3320   56.8550   78.3890 C.2   178  ASP178      0.3668
     84  OD1       27.2960   56.3180   78.9370 O.co2 178  ASP178     -0.2456
     85  OD2       25.9430   57.9840   78.7420 O.co2 178  ASP178     -0.2456
     86  N         36.2270   54.3460   90.7580 N.3   211  GLU211     -0.1245
     87  CA        35.5720   55.6380   90.8400 C.3   211  GLU211      0.1567
     88  C         35.4600   56.0930   92.2940 C.2   211  GLU211      0.2260
     89  O         34.8940   55.3720   93.1330 O.2   211  GLU211     -0.2867
     90  CB        34.1760   55.5230   90.2180 C.3   211  GLU211      0.0388
     91  CG        33.3920   56.8240   90.2450 C.3   211  GLU211      0.1160
     92  CD        32.0070   56.6950   89.6670 C.2   211  GLU211      0.3649
     93  OE1       31.6530   55.6470   89.1110 O.co2 211  GLU211     -0.2457
     94  OE2       31.2520   57.6780   89.7730 O.co2 211  GLU211     -0.2457
     95  N         33.7100   58.9230   94.3080 N.3   213  ASP213     -0.1239
     96  CA        32.7170   59.9800   94.2610 C.3   213  ASP213      0.1674
     97  C         32.8780   60.8300   95.4880 C.2   213  ASP213      0.2266
     98  O         32.3010   60.5630   96.5380 O.2   213  ASP213     -0.2867
     99  CB        31.3170   59.3950   94.1500 C.3   213  ASP213      0.1410
    100  CG        31.0860   58.7260   92.8360 C.2   213  ASP213      0.3668
    101  OD1       31.6440   59.1840   91.8230 O.co2 213  ASP213     -0.2456
    102  OD2       30.2920   57.7940   92.8310 O.co2 213  ASP213     -0.2456
    103  N         28.5430   63.9300   95.2780 N.3   216  GLN216     -0.1245
    104  CA        27.3290   63.7800   94.4850 C.3   216  GLN216      0.1566
    105  C         26.3300   64.5950   95.2680 C.2   216  GLN216      0.2260
    106  O         26.0370   64.2500   96.4220 O.2   216  GLN216     -0.2867
    107  CB        26.8420   62.3550   94.4700 C.3   216  GLN216      0.0367
    108  CG        27.8240   61.3140   93.9840 C.3   216  GLN216      0.0905
    109  CD        27.9900   61.2780   92.5000 C.2   216  GLN216      0.2608
    110  OE1       27.0480   61.5120   91.7390 O.2   216  GLN216     -0.2717
    111  NE2       29.2020   60.9650   92.0620 N.am  216  GLN216     -0.0878
    112  N         33.8400   53.4230   94.9320 N.3   227  HIS227     -0.1241
    113  CA        33.4080   52.2530   94.1350 C.3   227  HIS227      0.1621
    114  C         34.6330   51.4540   93.6570 C.2   227  HIS227      0.2264
    115  O         35.3500   51.9140   92.7700 O.2   227  HIS227     -0.2867
    116  CB        32.6650   52.6990   92.8680 C.3   227  HIS227      0.0745
    117  CG        31.3610   53.4080   93.0920 C.ar  227  HIS227      0.0817
    118  ND1       30.1500   52.8260   92.7930 N.ar  227  HIS227     -0.2268
    119  CD2       31.0790   54.6740   93.4820 C.ar  227  HIS227      0.1154
    120  CE1       29.1730   53.6890   93.0260 C.ar  227  HIS227      0.1986
    121  NE2       29.7130   54.8260   93.4330 N.ar  227  HIS227     -0.2212
    122  N         23.5140   50.7110   82.8690 N.3   246  TYR246     -0.1241
    123  CA        23.1700   50.6020   81.4500 C.3   246  TYR246      0.1605
    124  C         22.9140   49.1490   81.0020 C.2   246  TYR246      0.2264
    125  O         22.6670   48.8920   79.8110 O.2   246  TYR246     -0.2867
    126  CB        24.2860   51.2480   80.6050 C.3   246  TYR246      0.0534
    127  CG        24.6800   52.6410   81.0870 C.ar  246  TYR246     -0.0201
    128  CD1       25.6310   52.8090   82.0940 C.ar  246  TYR246     -0.0009
    129  CD2       24.0730   53.7790   80.5740 C.ar  246  TYR246     -0.0009
    130  CE1       25.9860   54.0650   82.5440 C.ar  246  TYR246      0.0417
    131  CE2       24.4270   55.0440   81.0220 C.ar  246  TYR246      0.0417
    132  CZ        25.3720   55.1840   82.0180 C.ar  246  TYR246      0.1957
    133  OH        25.7230   56.4400   82.5000 O.3   246  TYR246     -0.2866
    134  N         31.1090   67.7180   86.9010 N.3   364  SER364     -0.1217
    135  CA        29.9620   67.5610   86.0230 C.3   364  SER364      0.1889
    136  C         28.6670   68.1330   86.5850 C.2   364  SER364      0.2288
    137  O         28.5500   68.3800   87.7930 O.2   364  SER364     -0.2866
    138  CB        29.7990   66.0700   85.6980 C.3   364  SER364      0.2089
    139  OG        29.3370   65.3680   86.8400 O.3   364  SER364     -0.2183
    140  N         24.4790   67.1890   85.7960 N.3   366  TRP366     -0.1227
    141  CA        23.5830   66.3270   85.0470 C.3   366  TRP366      0.1737
    142  C         22.2460   66.1000   85.7440 C.2   366  TRP366      0.2595
    143  O         22.1280   66.3030   86.9570 O.2   366  TRP366     -0.2718
    144  CB        24.2710   64.9780   84.8010 C.3   366  TRP366      0.0564
    145  CG        24.8630   64.2890   86.0130 C.ar  366  TRP366      0.0003
    146  CD1       25.9850   64.6580   86.7020 C.ar  366  TRP366      0.0946
    147  CD2       24.4080   63.0720   86.6200 C.ar  366  TRP366      0.0152
    148  NE1       26.2320   63.7620   87.7160 N.ar  366  TRP366     -0.2442
    149  CE2       25.2890   62.7770   87.6830 C.ar  366  TRP366      0.0810
    150  CE3       23.3470   62.2050   86.3700 C.ar  366  TRP366      0.0012
    151  CZ2       25.1210   61.6640   88.5070 C.ar  366  TRP366      0.0191
    152  CZ3       23.1910   61.0760   87.1840 C.ar  366  TRP366      0.0001
    153  CH2       24.0820   60.8240   88.2320 C.ar  366  TRP366      0.0015
    154  N         21.2510   65.7070   84.9450 N.am  367  ASP367     -0.1974
    155  CA        20.0330   65.0820   85.4530 C.3   367  ASP367      0.1709
    156  C         20.1150   63.6160   85.0960 C.2   367  ASP367      0.2293
    157  O         21.0470   63.1950   84.3820 O.2   367  ASP367     -0.2864
    158  CB        18.7260   65.7530   84.9570 C.3   367  ASP367      0.1436
    159  CG        18.6300   65.9020   83.4450 C.2   367  ASP367      0.3671
    160  OD1       19.5220   65.4700   82.7010 O.co2 367  ASP367     -0.2456
    161  OD2       17.5950   66.4560   82.9860 O.co2 367  ASP367     -0.2456
    162  N         17.8070   58.0410   94.1030 N.3   375  TRP375     -0.1241
    163  CA        18.8210   57.3550   94.9220 C.3   375  TRP375      0.1605
    164  C         19.6580   58.3370   95.7610 C.2   375  TRP375      0.2264
    165  O         20.2560   57.9470   96.7670 O.2   375  TRP375     -0.2867
    166  CB        19.7470   56.5130   94.0450 C.3   375  TRP375      0.0550
    167  CG        20.4090   57.3270   92.9730 C.ar  375  TRP375      0.0003
    168  CD1       19.9450   57.5360   91.7080 C.ar  375  TRP375      0.0946
    169  CD2       21.6620   58.0480   93.0650 C.ar  375  TRP375      0.0152
    170  NE1       20.8090   58.3550   91.0170 N.ar  375  TRP375     -0.2442
    171  CE2       21.8720   58.6750   91.8170 C.ar  375  TRP375      0.0810
    172  CE3       22.6080   58.2340   94.0860 C.ar  375  TRP375      0.0012
    173  CZ2       22.9850   59.4740   91.5530 C.ar  375  TRP375      0.0191
    174  CZ3       23.7260   59.0340   93.8240 C.ar  375  TRP375      0.0001
    175  CH2       23.8980   59.6420   92.5680 C.ar  375  TRP375      0.0015
@<TRIPOS>BOND
     1     4     3    2
     2     3     2    1
     3     2     1    1
     4     2     5    1
     5    81    80    2
     6     5     6    1
     7    80    79    1
     8    79    78    1
     9    79    82    1
    10     6     7   ar
    11     6     8   ar
    12     7     9   ar
    13    82    83    1
    14     8    11   ar
    15     8    10   ar
    16    11    13   ar
    17     9    10   ar
    18    83    85   ar
    19    83    84   ar
    20    10    12   ar
    21    13    14   ar
    22    43    44    1
    23    12    14   ar
    24    46    45    2
    25   125   124    2
    26    30    28    1
    27    47    44    1
    28    47    48    1
    29    44    45    1
    30    23    22    2
    31   129   131   ar
    32   129   127   ar
    33   126   127    1
    34   126   123    1
    35    19    16    1
    36    16    15    1
    37    16    17    1
    38    28    29    1
    39    28    27    2
    40   124   123    1
    41   131   132   ar
    42   127   128   ar
    43    20    17   am
    44    20    21    1
    45    48    50   ar
    46    48    49   ar
    47   123   122    1
    48    50    52   ar
    49    27    26    1
    50    22    21    1
    51    17    18    2
    52    24    21    1
    53    24    25    1
    54   132   133    1
    55   132   130   ar
    56   128   130   ar
    57    49    51   ar
    58    52    53   ar
    59   160   159   ar
    60    25    26    1
    61   161   159   ar
    62   159   158    1
    63    51    53   ar
    64    53    54    1
    65    72    71    2
    66    55    56    1
    67   157   156    2
    68   144   141    1
    69   144   145    1
    70    71    70    1
    71   154   155    1
    72   154   142   am
    73   158   155    1
    74   141   142    1
    75   141   140    1
    76   156   155    1
    77    62    60   ar
    78    61    60   ar
    79    58    57    2
    80    60    59    1
    81   138   135    1
    82   138   139    1
    83    56    59    1
    84    56    57    1
    85    73    70    1
    86    73    74    1
    87   142   143    2
    88    42    41    1
    89   145   147   ar
    90   145   146   ar
    91   135   136    1
    92   135   134    1
    93    70    69    1
    94    57    63   am
    95   150   147   ar
    96   150   152   ar
    97   136   137    2
    98   147   149   ar
    99   146   148   ar
   100    69    65   am
   101    74    75    1
   102   152   153   ar
   103    41    40   ar
   104    41    39   ar
   105    63    64    1
   106    65    66    2
   107    65    64    1
   108    76    75    2
   109   149   148   ar
   110   149   151   ar
   111    40    38   ar
   112    75    77   am
   113    39    37   ar
   114    64    67    1
   115   153   151   ar
   116    38    36   ar
   117    93    92   ar
   118    37    36   ar
   119    67    68    1
   120    92    94   ar
   121    92    91    1
   122    36    35    1
   123    34    33    2
   124    90    91    1
   125    90    87    1
   126    86    87    1
   127    33    32    1
   128    87    88    1
   129   170   168   ar
   130   170   171   ar
   131    35    32    1
   132    31    32    1
   133   173   171   ar
   134   173   175   ar
   135   168   167   ar
   136   110   109    2
   137   171   169   ar
   138   101   100   ar
   139   111   109   am
   140    88    89    2
   141   109   108    1
   142   175   174   ar
   143   115   114    2
   144   118   120   ar
   145   118   117   ar
   146   102   100   ar
   147   100    99    1
   148   116   117    1
   149   116   113    1
   150   167   169   ar
   151   167   166    1
   152   120   121   ar
   153   169   172   ar
   154   117   119   ar
   155   121   119   ar
   156   114   113    1
   157   174   172   ar
   158   108   107    1
   159   166   163    1
   160   162   163    1
   161   113   112    1
   162    99    96    1
   163    96    95    1
   164    96    97    1
   165   107   104    1
   166   104   105    1
   167   104   103    1
   168   163   164    1
   169   105   106    2
   170    97    98    2
   171   164   165    2
