@<TRIPOS>MOLECULE
tmp/4d5qA01.pdb
 223 220 0 0 0
SMALL
GASTEIGER

@<TRIPOS>ATOM
      1  N         31.5560   62.6050   74.4420 N.3    36  ASN36      -0.1225
      2  CA        30.1260   62.3610   74.1870 C.3    36  ASN36       0.1785
      3  C         29.3170   63.6140   73.9010 C.2    36  ASN36       0.2597
      4  O         28.2930   63.5330   73.2190 O.2    36  ASN36      -0.2718
      5  CB        29.4590   61.5780   75.3170 C.3    36  ASN36       0.1169
      6  CG        29.1540   60.1530   74.9360 C.2    36  ASN36       0.2627
      7  OD1       29.9180   59.5140   74.2300 O.2    36  ASN36      -0.2716
      8  ND2       28.0120   59.6480   75.4100 N.am   36  ASN36      -0.0877
      9  N         29.7840   64.7660   74.3740 N.am   37  TRP37      -0.1962
     10  CA        29.0560   66.0200   74.1650 C.3    37  TRP37       0.1771
     11  C         29.3560   66.6630   72.8090 C.2    37  TRP37       0.2619
     12  O         28.6810   67.6140   72.3760 O.2    37  TRP37      -0.2715
     13  CB        29.3610   67.0060   75.2910 C.3    37  TRP37       0.0590
     14  CG        28.4770   66.8660   76.5230 C.ar   37  TRP37       0.0006
     15  CD1       27.4870   67.7130   76.9200 C.ar   37  TRP37       0.0946
     16  CD2       28.5330   65.8330   77.5130 C.ar   37  TRP37       0.0152
     17  NE1       26.9120   67.2650   78.0810 N.ar   37  TRP37      -0.2442
     18  CE2       27.5400   66.1120   78.4680 C.ar   37  TRP37       0.0810
     19  CE3       29.3190   64.6880   77.6780 C.ar   37  TRP37       0.0012
     20  CZ2       27.3340   65.3040   79.5860 C.ar   37  TRP37       0.0191
     21  CZ3       29.0990   63.8850   78.7770 C.ar   37  TRP37       0.0001
     22  CH2       28.1180   64.1970   79.7210 C.ar   37  TRP37       0.0015
     23  N         30.3820   66.1470   72.1400 N.am   38  ARG38      -0.1963
     24  CA        30.9080   66.7470   70.9410 C.3    38  ARG38       0.1729
     25  C         30.1710   66.3500   69.6860 C.2    38  ARG38       0.2616
     26  O         29.4280   65.3590   69.6450 O.2    38  ARG38      -0.2715
     27  CB        32.3850   66.3790   70.7630 C.3    38  ARG38       0.0348
     28  CG        33.3040   66.9310   71.8340 C.3    38  ARG38       0.0492
     29  CD        34.7550   66.5410   71.5700 C.3    38  ARG38       0.2205
     30  NE        35.5720   66.9510   72.7120 N.pl3  38  ARG38      -0.0865
     31  CZ        36.0580   68.1710   72.9070 C.cat  38  ARG38       0.5346
     32  NH1       35.8680   69.1410   72.0170 N.pl3  38  ARG38       0.1354
     33  NH2       36.7420   68.4300   74.0240 N.pl3  38  ARG38       0.1354
     34  N         30.4060   67.1510   68.6650 N.am   39  TRP39      -0.1960
     35  CA        29.9860   66.8690   67.3320 C.3    39  TRP39       0.1771
     36  C         30.9050   65.7930   66.7680 C.2    39  TRP39       0.2620
     37  O         32.1340   65.9240   66.7950 O.2    39  TRP39      -0.2715
     38  CB        30.0440   68.1590   66.5190 C.3    39  TRP39       0.0590
     39  CG        29.5920   68.0460   65.1130 C.ar   39  TRP39       0.0006
     40  CD1       28.6630   67.1870   64.6050 C.ar   39  TRP39       0.0946
     41  CD2       30.0160   68.8750   64.0280 C.ar   39  TRP39       0.0152
     42  NE1       28.5080   67.4040   63.2540 N.ar   39  TRP39      -0.2442
     43  CE2       29.3190   68.4430   62.8760 C.ar   39  TRP39       0.0810
     44  CE3       30.9320   69.9270   63.9140 C.ar   39  TRP39       0.0012
     45  CZ2       29.5090   69.0300   61.6270 C.ar   39  TRP39       0.0191
     46  CZ3       31.1200   70.5130   62.6720 C.ar   39  TRP39       0.0001
     47  CH2       30.4150   70.0660   61.5450 C.ar   39  TRP39       0.0015
     48  N         30.3080   64.7010   66.3100 N.am   40  THR40      -0.1951
     49  CA        31.0560   63.6420   65.6620 C.3    40  THR40       0.1897
     50  C         30.6500   63.6230   64.1940 C.2    40  THR40       0.2313
     51  O         29.4700   63.4060   63.8810 O.2    40  THR40      -0.2863
     52  CB        30.7470   62.2720   66.2780 C.3    40  THR40       0.1794
     53  OG1       30.8220   62.3550   67.7080 O.3    40  THR40      -0.2208
     54  CG2       31.7510   61.2240   65.7710 C.3    40  THR40       0.0378
     55  N         27.1940   64.2670   59.6310 N.3    48  ASN48      -0.1240
     56  CA        27.2230   63.7050   60.9870 C.3    48  ASN48       0.1653
     57  C         27.4170   62.1820   60.9640 C.2    48  ASN48       0.2266
     58  O         26.7670   61.4830   60.1840 O.2    48  ASN48      -0.2867
     59  CB        25.9050   63.9920   61.7300 C.3    48  ASN48       0.1155
     60  CG        25.5810   65.4850   61.8610 C.2    48  ASN48       0.2627
     61  OD1       26.4610   66.3390   61.8950 O.2    48  ASN48      -0.2716
     62  ND2       24.2830   65.7950   61.9350 N.am   48  ASN48      -0.0877
     63  N         26.9750   60.6680   63.9390 N.3    50  TYR50      -0.1227
     64  CA        25.9680   60.4490   64.9550 C.3    50  TYR50       0.1736
     65  C         25.0460   61.6510   64.9220 C.2    50  TYR50       0.2595
     66  O         25.5150   62.7790   64.8780 O.2    50  TYR50      -0.2718
     67  CB        26.6390   60.3570   66.3230 C.3    50  TYR50       0.0548
     68  CG        25.7100   60.0470   67.4680 C.ar   50  TYR50      -0.0200
     69  CD1       25.3400   58.7360   67.7490 C.ar   50  TYR50      -0.0009
     70  CD2       25.1990   61.0620   68.2730 C.ar   50  TYR50      -0.0009
     71  CE1       24.5030   58.4440   68.8160 C.ar   50  TYR50       0.0417
     72  CE2       24.3430   60.7810   69.3260 C.ar   50  TYR50       0.0417
     73  CZ        23.9980   59.4720   69.5910 C.ar   50  TYR50       0.1957
     74  OH        23.1670   59.1830   70.6460 O.3    50  TYR50      -0.2866
     75  N         23.7410   61.3990   64.9580 N.am   51  ASP51      -0.1960
     76  CA        22.7550   62.4660   64.9190 C.3    51  ASP51       0.1840
     77  C         21.5350   62.0480   65.7150 C.2    51  ASP51       0.2622
     78  O         20.9770   60.9680   65.4980 O.2    51  ASP51      -0.2715
     79  CB        22.3600   62.7590   63.4700 C.3    51  ASP51       0.1450
     80  CG        21.6030   64.0700   63.3140 C.2    51  ASP51       0.3671
     81  OD1       21.6190   64.9370   64.2380 O.co2  51  ASP51      -0.2456
     82  OD2       21.0030   64.2330   62.2340 O.co2  51  ASP51      -0.2456
     83  N         21.1150   62.9170   66.6230 N.am   52  GLY52      -0.1954
     84  CA        20.0340   62.5810   67.5470 C.3    52  GLY52       0.1869
     85  C         20.5110   61.4890   68.4720 C.2    52  GLY52       0.2309
     86  O         21.3730   61.7280   69.3150 O.2    52  GLY52      -0.2863
     87  N         27.8630   77.0650   73.5480 N.3    80  THR80      -0.1203
     88  CA        27.1910   75.7900   73.3330 C.3    80  THR80       0.1994
     89  C         26.9360   75.0490   74.6440 C.2    80  THR80       0.2617
     90  O         25.8370   74.5220   74.8510 O.2    80  THR80      -0.2717
     91  CB        27.9640   74.8770   72.3780 C.3    80  THR80       0.1784
     92  OG1       28.1000   75.5180   71.0940 O.3    80  THR80      -0.2211
     93  CG2       27.2060   73.5870   72.1680 C.3    80  THR80       0.0376
     94  N         27.9300   75.0270   75.5270 N.am   81  TYR81      -0.1975
     95  CA        27.9000   74.1220   76.6890 C.3    81  TYR81       0.1639
     96  C         27.6990   74.7670   78.0630 C.2    81  TYR81       0.2290
     97  O         27.5740   74.0600   79.0720 O.2    81  TYR81      -0.2864
     98  CB        29.1600   73.2510   76.6660 C.3    81  TYR81       0.0560
     99  CG        29.2320   72.4100   75.4270 C.ar   81  TYR81      -0.0198
    100  CD1       28.3930   71.3220   75.2700 C.ar   81  TYR81      -0.0009
    101  CD2       30.1290   72.7060   74.3950 C.ar   81  TYR81      -0.0009
    102  CE1       28.4410   70.5380   74.1290 C.ar   81  TYR81       0.0417
    103  CE2       30.1770   71.9310   73.2440 C.ar   81  TYR81       0.0417
    104  CZ        29.3380   70.8380   73.1240 C.ar   81  TYR81       0.1957
    105  OH        29.3310   70.0340   72.0040 O.3    81  TYR81      -0.2866
    106  N         21.0040   74.6910   69.0710 N.3   100  GLN100     -0.1231
    107  CA        20.3230   73.5410   69.6300 C.3   100  GLN100      0.1698
    108  C         20.3480   73.6630   71.1520 C.2   100  GLN100      0.2592
    109  O         21.0260   74.5370   71.6980 O.2   100  GLN100     -0.2718
    110  CB        21.0360   72.2550   69.2020 C.3   100  GLN100      0.0381
    111  CG        20.1080   71.0650   68.9880 C.3   100  GLN100      0.0905
    112  CD        19.3530   71.1410   67.6770 C.2   100  GLN100      0.2608
    113  OE1       18.1720   71.4950   67.6390 O.2   100  GLN100     -0.2717
    114  NE2       20.0370   70.8170   66.5900 N.am  100  GLN100     -0.0878
    115  N         19.5800   72.8030   71.8110 N.am  101  LYS101     -0.1966
    116  CA        19.6050   72.6730   73.2630 C.3   101  LYS101      0.1728
    117  C         20.7240   71.7230   73.6970 C.2   101  LYS101      0.2616
    118  O         20.8320   70.6230   73.1750 O.2   101  LYS101     -0.2715
    119  CB        18.2680   72.1060   73.7340 C.3   101  LYS101      0.0311
    120  CG        18.1040   72.0150   75.2330 C.3   101  LYS101      0.0038
    121  CD        16.7460   71.4400   75.6110 C.3   101  LYS101      0.0206
    122  CE        16.8060   70.6230   76.9030 C.3   101  LYS101      0.1093
    123  NZ        15.5820   69.8190   77.1020 N.3   101  LYS101     -0.1314
    124  N         21.5340   72.1410   74.6630 N.am  102  ASN102     -0.1958
    125  CA        22.4980   71.2500   75.3080 C.3   102  ASN102      0.1819
    126  C         22.1000   71.0810   76.7660 C.2   102  ASN102      0.2621
    127  O         21.6940   72.0320   77.3980 O.2   102  ASN102     -0.2715
    128  CB        23.9160   71.8220   75.2370 C.3   102  ASN102      0.1195
    129  CG        24.9180   70.9850   76.0400 C.2   102  ASN102      0.2630
    130  OD1       25.3460   69.9350   75.5830 O.2   102  ASN102     -0.2716
    131  ND2       25.2560   71.4360   77.2550 N.am  102  ASN102     -0.0877
    132  N         22.2620   69.8780   77.3040 N.am  103  VAL103     -0.1977
    133  CA        22.0280   69.6620   78.7270 C.3   103  VAL103      0.1596
    134  C         23.3050   69.1790   79.3990 C.2   103  VAL103      0.2287
    135  O         23.8390   68.1010   79.0680 O.2   103  VAL103     -0.2864
    136  CB        20.9130   68.6280   78.9840 C.3   103  VAL103      0.0276
    137  CG1       20.7290   68.4060   80.4890 C.3   103  VAL103      0.0022
    138  CG2       19.6210   69.0900   78.3330 C.3   103  VAL103      0.0022
    139  N         30.2710   67.1450   81.2850 N.3   106  ARG106     -0.1245
    140  CA        31.2440   66.4140   82.0910 C.3   106  ARG106      0.1563
    141  C         32.6090   66.9000   81.6180 C.2   106  ARG106      0.2260
    142  O         32.9130   66.8600   80.4190 O.2   106  ARG106     -0.2867
    143  CB        31.1030   64.9110   81.9210 C.3   106  ARG106      0.0307
    144  CG        32.1340   64.1230   82.7030 C.3   106  ARG106      0.0489
    145  CD        31.8060   62.6330   82.8130 C.3   106  ARG106      0.2205
    146  NE        31.8950   61.8850   81.5550 N.pl3 106  ARG106     -0.0865
    147  CZ        30.8810   61.2630   80.9480 C.cat 106  ARG106      0.5346
    148  NH1       29.6660   61.2660   81.4690 N.pl3 106  ARG106      0.1354
    149  NH2       31.0790   60.6130   79.8110 N.pl3 106  ARG106      0.1354
    150  N         26.8520   54.0060   77.2960 N.3   178  ASP178     -0.1239
    151  CA        26.3500   55.1340   76.4960 C.3   178  ASP178      0.1674
    152  C         27.4520   55.9040   75.7580 C.2   178  ASP178      0.2266
    153  O         27.1520   56.8240   74.9770 O.2   178  ASP178     -0.2867
    154  CB        25.5150   56.1040   77.3440 C.3   178  ASP178      0.1410
    155  CG        26.3320   56.8550   78.3890 C.2   178  ASP178      0.3668
    156  OD1       27.2960   56.3180   78.9370 O.co2 178  ASP178     -0.2456
    157  OD2       25.9430   57.9840   78.7420 O.co2 178  ASP178     -0.2456
    158  N         30.0650   56.7650   72.9970 N.3   180  LYS180     -0.1245
    159  CA        30.0470   56.5730   71.5400 C.3   180  LYS180      0.1561
    160  C         31.3750   56.0350   71.0200 C.2   180  LYS180      0.2260
    161  O         31.4110   55.3810   69.9680 O.2   180  LYS180     -0.2867
    162  CB        29.6420   57.8850   70.8640 C.3   180  LYS180      0.0271
    163  CG        28.1470   58.1750   71.0790 C.3   180  LYS180      0.0035
    164  CD        27.7020   59.5340   70.5340 C.3   180  LYS180      0.0206
    165  CE        28.0300   60.6380   71.5040 C.3   180  LYS180      0.1093
    166  NZ        27.3190   61.9100   71.2070 N.3   180  LYS180     -0.1314
    167  N         15.4160   59.6330   75.9280 N.3   197  ASN197     -0.1240
    168  CA        16.3910   60.6870   75.6810 C.3   197  ASN197      0.1653
    169  C         16.7140   60.7640   74.1930 C.2   197  ASN197      0.2266
    170  O         17.2830   59.8280   73.6280 O.2   197  ASN197     -0.2867
    171  CB        17.6530   60.4360   76.5070 C.3   197  ASN197      0.1155
    172  CG        18.6010   61.6210   76.5110 C.2   197  ASN197      0.2627
    173  OD1       18.7210   62.3540   75.5160 O.2   197  ASN197     -0.2716
    174  ND2       19.3090   61.7970   77.6090 N.am  197  ASN197     -0.0877
    175  N         18.9880   62.2780   72.6710 N.3   199  ASN199     -0.1225
    176  CA        20.4060   62.4130   72.3320 C.3   199  ASN199      0.1785
    177  C         21.2930   61.2370   72.7360 C.2   199  ASN199      0.2597
    178  O         22.5160   61.3050   72.5520 O.2   199  ASN199     -0.2718
    179  CB        20.9990   63.6860   72.9630 C.3   199  ASN199      0.1169
    180  CG        20.4540   64.9620   72.3630 C.2   199  ASN199      0.2627
    181  OD1       20.6070   65.2210   71.1750 O.2   199  ASN199     -0.2716
    182  ND2       19.8270   65.7780   73.1850 N.am  199  ASN199     -0.0877
    183  N         20.7300   60.1810   73.3220 N.am  200  THR200     -0.1953
    184  CA        21.5650   59.1070   73.8610 C.3   200  THR200      0.1897
    185  C         21.1130   57.7290   73.4890 C.2   200  THR200      0.2313
    186  O         19.9910   57.5310   73.0600 O.2   200  THR200     -0.2863
    187  CB        21.6470   59.1650   75.4100 C.3   200  THR200      0.1794
    188  OG1       20.3720   58.8600   75.9940 O.3   200  THR200     -0.2208
    189  CG2       22.1200   60.5350   75.8550 C.3   200  THR200      0.0378
    190  N         24.4790   67.1890   85.7960 N.3   366  TRP366     -0.1227
    191  CA        23.5830   66.3270   85.0470 C.3   366  TRP366      0.1737
    192  C         22.2460   66.1000   85.7440 C.2   366  TRP366      0.2595
    193  O         22.1280   66.3030   86.9570 O.2   366  TRP366     -0.2718
    194  CB        24.2710   64.9780   84.8010 C.3   366  TRP366      0.0564
    195  CG        24.8630   64.2890   86.0130 C.ar  366  TRP366      0.0003
    196  CD1       25.9850   64.6580   86.7020 C.ar  366  TRP366      0.0946
    197  CD2       24.4080   63.0720   86.6200 C.ar  366  TRP366      0.0152
    198  NE1       26.2320   63.7620   87.7160 N.ar  366  TRP366     -0.2442
    199  CE2       25.2890   62.7770   87.6830 C.ar  366  TRP366      0.0810
    200  CE3       23.3470   62.2050   86.3700 C.ar  366  TRP366      0.0012
    201  CZ2       25.1210   61.6640   88.5070 C.ar  366  TRP366      0.0191
    202  CZ3       23.1910   61.0760   87.1840 C.ar  366  TRP366      0.0001
    203  CH2       24.0820   60.8240   88.2320 C.ar  366  TRP366      0.0015
    204  N         21.2510   65.7070   84.9450 N.am  367  ASP367     -0.1974
    205  CA        20.0330   65.0820   85.4530 C.3   367  ASP367      0.1709
    206  C         20.1150   63.6160   85.0960 C.2   367  ASP367      0.2293
    207  O         21.0470   63.1950   84.3820 O.2   367  ASP367     -0.2864
    208  CB        18.7260   65.7530   84.9570 C.3   367  ASP367      0.1436
    209  CG        18.6300   65.9020   83.4450 C.2   367  ASP367      0.3671
    210  OD1       19.5220   65.4700   82.7010 O.co2 367  ASP367     -0.2456
    211  OD2       17.5950   66.4560   82.9860 O.co2 367  ASP367     -0.2456
    212  N         18.4510   60.2890   83.6620 N.3   369  TYR369     -0.1241
    213  CA        17.4380   59.6360   82.8210 C.3   369  TYR369      0.1605
    214  C         17.0920   58.1910   83.2200 C.2   369  TYR369      0.2264
    215  O         16.0860   57.6570   82.7370 O.2   369  TYR369     -0.2867
    216  CB        17.8630   59.6990   81.3310 C.3   369  TYR369      0.0534
    217  CG        17.5880   61.0570   80.7090 C.ar  369  TYR369     -0.0201
    218  CD1       18.3830   62.1570   80.9960 C.ar  369  TYR369     -0.0009
    219  CD2       16.5000   61.2380   79.8580 C.ar  369  TYR369     -0.0009
    220  CE1       18.1170   63.3980   80.4380 C.ar  369  TYR369      0.0417
    221  CE2       16.2390   62.4670   79.2860 C.ar  369  TYR369      0.0417
    222  CZ        17.0240   63.5470   79.5810 C.ar  369  TYR369      0.1957
    223  OH        16.7160   64.7680   78.9960 O.3   369  TYR369     -0.2866
@<TRIPOS>BOND
     1    55    56    1
     2    58    57    2
     3    57    56    1
     4    56    59    1
     5    47    45   ar
     6    47    46   ar
     7    45    43   ar
     8    59    60    1
     9    60    61    2
    10    60    62   am
    11    82    80   ar
    12    46    44   ar
    13    43    42   ar
    14    43    41   ar
    15    42    40   ar
    16    80    79    1
    17    80    81   ar
    18    79    76    1
    19    51    50    2
    20    44    41   ar
    21    63    64    1
    22    41    39   ar
    23    50    49    1
    24    40    39   ar
    25    66    65    2
    26    76    75    1
    27    76    77    1
    28    65    64    1
    29    65    75   am
    30    64    67    1
    31    39    38    1
    32    78    77    2
    33    49    52    1
    34    49    48    1
    35    77    83   am
    36    54    52    1
    37    52    53    1
    38    48    36   am
    39    67    68    1
    40    38    35    1
    41   114   112   am
    42    83    84    1
    43    36    37    2
    44    36    35    1
    45    35    34    1
    46    68    69   ar
    47    68    70   ar
    48    84    85    1
    49   113   112    2
    50   112   111    1
    51    69    71   ar
    52    70    72   ar
    53    85    86    2
    54    34    25   am
    55    71    73   ar
    56   111   110    1
    57   106   107    1
    58   110   107    1
    59    72    73   ar
    60    73    74    1
    61   107   108    1
    62    26    25    2
    63    25    24    1
    64   161   160    2
    65   164   163    1
    66   164   165    1
    67    27    24    1
    68    27    28    1
    69   162   163    1
    70   162   159    1
    71    24    23    1
    72   160   159    1
    73    92    91    1
    74   108   109    2
    75   108   115   am
    76   181   180    2
    77   166   165    1
    78   159   158    1
    79    29    28    1
    80    29    30    1
    81   115   116    1
    82   105   104    1
    83    32    31    1
    84    23    11   am
    85    93    91    1
    86   176   175    1
    87   176   177    1
    88   176   179    1
    89   180   179    1
    90   180   182   am
    91    12    11    2
    92    91    88    1
    93   178   177    2
    94    30    31    2
    95   177   183   am
    96    11    10    1
    97    31    33    1
    98   186   185    2
    99   104   103   ar
   100   104   102   ar
   101   118   117    2
   102     4     3    2
   103   103   101   ar
   104   116   117    1
   105   116   119    1
   106   183   184    1
   107    88    87    1
   108    88    89    1
   109   185   184    1
   110   170   169    2
   111   117   124   am
   112   119   120    1
   113   184   187    1
   114     3     2    1
   115     3     9   am
   116   102   100   ar
   117    10     9    1
   118    10    13    1
   119     2     1    1
   120     2     5    1
   121   169   168    1
   122     7     6    2
   123   101    99   ar
   124    89    90    2
   125    89    94   am
   126   124   125    1
   127     6     5    1
   128     6     8   am
   129   153   152    2
   130   120   121    1
   131   128   125    1
   132   128   129    1
   133   100    99   ar
   134    13    14    1
   135   125   126    1
   136   187   189    1
   137   187   188    1
   138    99    98    1
   139   173   172    2
   140    94    95    1
   141   130   129    2
   142   121   122    1
   143   168   167    1
   144   168   171    1
   145   152   151    1
   146   129   131   am
   147   151   150    1
   148   151   154    1
   149   171   172    1
   150   172   174   am
   151    14    15   ar
   152    14    16   ar
   153    98    95    1
   154    95    96    1
   155   126   132   am
   156   126   127    2
   157   122   123    1
   158    15    17   ar
   159   132   133    1
   160   154   155    1
   161    16    19   ar
   162    16    18   ar
   163    19    21   ar
   164    96    97    2
   165    17    18   ar
   166   138   136    1
   167   155   157   ar
   168   155   156   ar
   169    18    20   ar
   170   133   136    1
   171   133   134    1
   172    21    22   ar
   173   136   137    1
   174   223   222    1
   175   135   134    2
   176   221   222   ar
   177   221   219   ar
   178   222   220   ar
   179    20    22   ar
   180   149   147    1
   181   219   217   ar
   182   142   141    2
   183   220   218   ar
   184   217   218   ar
   185   217   216    1
   186   147   148    1
   187   147   146    2
   188   139   140    1
   189   216   213    1
   190   146   145    1
   191   141   140    1
   192   143   140    1
   193   143   144    1
   194   210   209   ar
   195   144   145    1
   196   215   214    2
   197   213   214    1
   198   213   212    1
   199   211   209   ar
   200   209   208    1
   201   207   206    2
   202   194   191    1
   203   194   195    1
   204   204   205    1
   205   204   192   am
   206   208   205    1
   207   191   192    1
   208   191   190    1
   209   206   205    1
   210   192   193    2
   211   195   197   ar
   212   195   196   ar
   213   200   197   ar
   214   200   202   ar
   215   197   199   ar
   216   196   198   ar
   217   202   203   ar
   218   199   198   ar
   219   199   201   ar
   220   203   201   ar
