@<TRIPOS>MOLECULE
tmp/4d5vA02.pdb
 180 175 0 0 0
SMALL
GASTEIGER

@<TRIPOS>ATOM
      1  N         29.8890   64.6590   74.4000 N.3    37  TRP37      -0.1241
      2  CA        29.1770   65.9270   74.1890 C.3    37  TRP37       0.1605
      3  C         29.4710   66.5730   72.8350 C.2    37  TRP37       0.2264
      4  O         28.7640   67.5090   72.4240 O.2    37  TRP37      -0.2867
      5  CB        29.5120   66.9210   75.3080 C.3    37  TRP37       0.0550
      6  CG        28.6300   66.7710   76.5270 C.ar   37  TRP37       0.0003
      7  CD1       27.6160   67.6150   76.9100 C.ar   37  TRP37       0.0946
      8  CD2       28.6690   65.7190   77.5130 C.ar   37  TRP37       0.0152
      9  NE1       27.0300   67.1520   78.0660 N.ar   37  TRP37      -0.2442
     10  CE2       27.6610   66.0030   78.4650 C.ar   37  TRP37       0.0810
     11  CE3       29.4740   64.5750   77.6960 C.ar   37  TRP37       0.0012
     12  CZ2       27.4290   65.1850   79.5880 C.ar   37  TRP37       0.0191
     13  CZ3       29.2380   63.7590   78.8120 C.ar   37  TRP37       0.0001
     14  CH2       28.2150   64.0630   79.7330 C.ar   37  TRP37       0.0015
     15  N         27.2640   68.7960   81.3310 N.3   105  ALA105     -0.1231
     16  CA        28.6220   68.6070   80.8300 C.3   105  ALA105      0.1694
     17  C         29.3310   67.6500   81.7600 C.2   105  ALA105      0.2591
     18  O         28.9650   67.5480   82.9220 O.2   105  ALA105     -0.2718
     19  CB        29.3860   69.9330   80.7950 C.3   105  ALA105      0.0304
     20  N         30.3550   66.9820   81.2420 N.am  106  ARG106     -0.1980
     21  CA        31.2890   66.1950   82.0570 C.3   106  ARG106      0.1597
     22  C         32.6680   66.6540   81.6240 C.2   106  ARG106      0.2287
     23  O         32.9760   66.6570   80.4260 O.2   106  ARG106     -0.2864
     24  CB        31.1240   64.6950   81.8430 C.3   106  ARG106      0.0334
     25  CG        32.1320   63.8750   82.6540 C.3   106  ARG106      0.0492
     26  CD        31.7650   62.3890   82.7310 C.3   106  ARG106      0.2205
     27  NE        31.9000   61.6950   81.4400 N.pl3 106  ARG106     -0.0865
     28  CZ        30.9340   61.0110   80.8240 C.cat 106  ARG106      0.5346
     29  NH1       29.7170   60.8940   81.3520 N.pl3 106  ARG106      0.1354
     30  NH2       31.1780   60.4270   79.6520 N.pl3 106  ARG106      0.1354
     31  N         28.5700   66.9000   90.3550 N.3   142  ALA142     -0.1245
     32  CA        29.4660   65.8640   90.8440 C.3   142  ALA142      0.1562
     33  C         30.9300   66.2220   90.6730 C.2   142  ALA142      0.2260
     34  O         31.3330   66.7890   89.6530 O.2   142  ALA142     -0.2867
     35  CB        29.1710   64.5490   90.1300 C.3   142  ALA142      0.0290
     36  N         34.4500   64.0190   91.2080 N.3   144  TYR144     -0.1241
     37  CA        34.8750   62.6480   91.4700 C.3   144  TYR144      0.1605
     38  C         36.1250   62.2770   90.7110 C.2   144  TYR144      0.2264
     39  O         36.5960   63.0530   89.8900 O.2   144  TYR144     -0.2867
     40  CB        33.7370   61.6680   91.1840 C.3   144  TYR144      0.0534
     41  CG        33.2100   61.5960   89.7500 C.ar  144  TYR144     -0.0201
     42  CD1       32.3380   62.5740   89.2560 C.ar  144  TYR144     -0.0009
     43  CD2       33.4980   60.4940   88.9210 C.ar  144  TYR144     -0.0009
     44  CE1       31.8260   62.5000   87.9590 C.ar  144  TYR144      0.0417
     45  CE2       32.9760   60.4100   87.6320 C.ar  144  TYR144      0.0417
     46  CZ        32.1280   61.4020   87.1680 C.ar  144  TYR144      0.1957
     47  OH        31.6040   61.3000   85.9090 O.3   144  TYR144     -0.2866
     48  N         37.0470   58.0030   78.7670 N.3   170  TYR170     -0.1241
     49  CA        36.2890   57.8920   80.0050 C.3   170  TYR170      0.1605
     50  C         35.9620   56.4460   80.3670 C.2   170  TYR170      0.2264
     51  O         35.7860   55.5710   79.4920 O.2   170  TYR170     -0.2867
     52  CB        34.9710   58.6830   79.9050 C.3   170  TYR170      0.0534
     53  CG        34.1960   58.7420   81.1900 C.ar  170  TYR170     -0.0201
     54  CD1       34.6910   59.4410   82.2990 C.ar  170  TYR170     -0.0009
     55  CD2       32.9630   58.1120   81.3040 C.ar  170  TYR170     -0.0009
     56  CE1       33.9700   59.4980   83.4900 C.ar  170  TYR170      0.0417
     57  CE2       32.2420   58.1490   82.4830 C.ar  170  TYR170      0.0417
     58  CZ        32.7330   58.8550   83.5740 C.ar  170  TYR170      0.1957
     59  OH        32.0340   58.9060   84.7520 O.3   170  TYR170     -0.2866
     60  N         34.0290   54.5110   84.1690 N.3   172  ASP172     -0.1225
     61  CA        33.6530   54.6240   85.5670 C.3   172  ASP172      0.1805
     62  C         33.0700   53.3050   86.0490 C.2   172  ASP172      0.2598
     63  O         33.0700   52.3020   85.3070 O.2   172  ASP172     -0.2718
     64  CB        32.7560   55.8550   85.8470 C.3   172  ASP172      0.1424
     65  CG        31.3330   55.7320   85.3190 C.2   172  ASP172      0.3668
     66  OD1       30.8040   54.6060   85.2260 O.co2 172  ASP172     -0.2456
     67  OD2       30.7000   56.7930   85.0420 O.co2 172  ASP172     -0.2456
     68  N         32.5940   53.2940   87.2810 N.am  173  SER173     -0.1938
     69  CA        32.2030   52.0290   87.8970 C.3   173  SER173      0.2055
     70  C         30.8450   51.4970   87.4260 C.2   173  SER173      0.2642
     71  O         30.4400   50.3930   87.8310 O.2   173  SER173     -0.2714
     72  CB        32.2260   52.1540   89.4140 C.3   173  SER173      0.2130
     73  OG        31.1960   53.0180   89.8720 O.3   173  SER173     -0.2179
     74  N         30.1540   52.2500   86.5700 N.am  174  GLN174     -0.1976
     75  CA        28.9380   51.7450   85.9050 C.3   174  GLN174      0.1601
     76  C         29.2830   50.9910   84.6270 C.2   174  GLN174      0.2287
     77  O         28.3760   50.4510   83.9720 O.2   174  GLN174     -0.2864
     78  CB        27.9480   52.8770   85.5380 C.3   174  GLN174      0.0394
     79  CG        27.4830   53.7440   86.6860 C.3   174  GLN174      0.0908
     80  CD        26.8470   52.9250   87.8050 C.2   174  GLN174      0.2608
     81  OE1       25.9330   52.1150   87.5610 O.2   174  GLN174     -0.2717
     82  NE2       27.3320   53.1280   89.0250 N.am  174  GLN174     -0.0878
     83  N         26.8940   54.0050   77.1760 N.3   178  ASP178     -0.1239
     84  CA        26.4040   55.1500   76.3720 C.3   178  ASP178      0.1674
     85  C         27.5210   55.8930   75.6340 C.2   178  ASP178      0.2266
     86  O         27.2540   56.7630   74.8200 O.2   178  ASP178     -0.2867
     87  CB        25.6220   56.1300   77.2350 C.3   178  ASP178      0.1410
     88  CG        26.4880   56.8120   78.2960 C.2   178  ASP178      0.3668
     89  OD1       27.3870   56.1770   78.8790 O.co2 178  ASP178     -0.2456
     90  OD2       26.2200   57.9840   78.5920 O.co2 178  ASP178     -0.2456
     91  N         36.2040   54.0770   90.6290 N.3   211  GLU211     -0.1245
     92  CA        35.5690   55.3890   90.7250 C.3   211  GLU211      0.1567
     93  C         35.5150   55.8360   92.1760 C.2   211  GLU211      0.2260
     94  O         34.9610   55.1280   93.0260 O.2   211  GLU211     -0.2867
     95  CB        34.1490   55.3230   90.1460 C.3   211  GLU211      0.0388
     96  CG        33.4610   56.6810   90.1640 C.3   211  GLU211      0.1160
     97  CD        32.0760   56.6360   89.5490 C.2   211  GLU211      0.3649
     98  OE1       31.6910   55.5950   88.9930 O.co2 211  GLU211     -0.2457
     99  OE2       31.3600   57.6470   89.6180 O.co2 211  GLU211     -0.2457
    100  N         33.7630   58.6030   94.1860 N.3   213  ASP213     -0.1239
    101  CA        32.8090   59.7160   94.2060 C.3   213  ASP213      0.1674
    102  C         32.9680   60.5460   95.4480 C.2   213  ASP213      0.2266
    103  O         32.3440   60.2850   96.4880 O.2   213  ASP213     -0.2867
    104  CB        31.3740   59.2020   94.0460 C.3   213  ASP213      0.1410
    105  CG        31.1840   58.5370   92.7220 C.2   213  ASP213      0.3668
    106  OD1       31.6500   59.1220   91.7120 O.co2 213  ASP213     -0.2456
    107  OD2       30.5870   57.4460   92.6540 O.co2 213  ASP213     -0.2456
    108  N         28.6740   63.7260   95.1490 N.3   216  GLN216     -0.1245
    109  CA        27.4990   63.6730   94.2760 C.3   216  GLN216      0.1566
    110  C         26.4280   64.3310   95.1010 C.2   216  GLN216      0.2260
    111  O         26.1770   63.9120   96.2330 O.2   216  GLN216     -0.2867
    112  CB        27.1210   62.2460   93.9000 C.3   216  GLN216      0.0367
    113  CG        28.1630   61.5950   92.9990 C.3   216  GLN216      0.0905
    114  CD        27.8750   60.1370   92.7090 C.2   216  GLN216      0.2608
    115  OE1       27.6900   59.3200   93.6170 O.2   216  GLN216     -0.2717
    116  NE2       27.8110   59.8040   91.4330 N.am  216  GLN216     -0.0878
    117  N         33.9250   53.1310   94.7430 N.3   227  HIS227     -0.1241
    118  CA        33.4660   51.9880   93.9420 C.3   227  HIS227      0.1621
    119  C         34.6780   51.2300   93.4280 C.2   227  HIS227      0.2264
    120  O         35.3650   51.6950   92.4920 O.2   227  HIS227     -0.2867
    121  CB        32.7060   52.4550   92.6920 C.3   227  HIS227      0.0745
    122  CG        31.4270   53.1930   92.9520 C.ar  227  HIS227      0.0817
    123  ND1       30.1880   52.6240   92.7370 N.ar  227  HIS227     -0.2268
    124  CD2       31.1920   54.4710   93.3390 C.ar  227  HIS227      0.1154
    125  CE1       29.2440   53.5200   92.9810 C.ar  227  HIS227      0.1986
    126  NE2       29.8270   54.6530   93.3450 N.ar  227  HIS227     -0.2212
    127  N         23.6090   50.6760   82.7020 N.3   246  TYR246     -0.1241
    128  CA        23.2880   50.5980   81.2730 C.3   246  TYR246      0.1605
    129  C         22.9910   49.1670   80.8020 C.2   246  TYR246      0.2264
    130  O         22.6740   48.9610   79.6250 O.2   246  TYR246     -0.2867
    131  CB        24.4130   51.2550   80.4350 C.3   246  TYR246      0.0534
    132  CG        24.7440   52.6710   80.8940 C.ar  246  TYR246     -0.0201
    133  CD1       25.6510   52.9040   81.9290 C.ar  246  TYR246     -0.0009
    134  CD2       24.0860   53.7690   80.3380 C.ar  246  TYR246     -0.0009
    135  CE1       25.9250   54.2000   82.3710 C.ar  246  TYR246      0.0417
    136  CE2       24.3580   55.0590   80.7570 C.ar  246  TYR246      0.0417
    137  CZ        25.2720   55.2730   81.7680 C.ar  246  TYR246      0.1957
    138  OH        25.5150   56.5670   82.1920 O.3   246  TYR246     -0.2866
    139  N         31.1390   67.3930   86.8790 N.3   364  SER364     -0.1217
    140  CA        30.0120   67.2400   85.9590 C.3   364  SER364      0.1889
    141  C         28.7350   67.8050   86.5430 C.2   364  SER364      0.2288
    142  O         28.6490   68.0830   87.7500 O.2   364  SER364     -0.2866
    143  CB        29.7960   65.7670   85.5700 C.3   364  SER364      0.2089
    144  OG        29.3380   65.0280   86.6980 O.3   364  SER364     -0.2183
    145  N         24.5650   66.8380   85.8010 N.3   366  TRP366     -0.1227
    146  CA        23.6720   65.9410   85.0810 C.3   366  TRP366      0.1737
    147  C         22.3080   65.7460   85.7350 C.2   366  TRP366      0.2595
    148  O         22.1510   65.9460   86.9410 O.2   366  TRP366     -0.2718
    149  CB        24.3370   64.5750   84.8600 C.3   366  TRP366      0.0564
    150  CG        24.8430   63.8170   86.0520 C.ar  366  TRP366      0.0003
    151  CD1       25.9320   64.1280   86.8290 C.ar  366  TRP366      0.0946
    152  CD2       24.3780   62.5430   86.5080 C.ar  366  TRP366      0.0152
    153  NE1       26.1360   63.1390   87.7700 N.ar  366  TRP366     -0.2442
    154  CE2       25.2070   62.1540   87.5910 C.ar  366  TRP366      0.0810
    155  CE3       23.3510   61.6850   86.1010 C.ar  366  TRP366      0.0012
    156  CZ2       25.0200   60.9450   88.2910 C.ar  366  TRP366      0.0191
    157  CZ3       23.1630   60.4680   86.7970 C.ar  366  TRP366      0.0001
    158  CH2       23.9990   60.1210   87.8750 C.ar  366  TRP366      0.0015
    159  N         21.3320   65.3790   84.9080 N.am  367  ASP367     -0.1974
    160  CA        20.0800   64.7750   85.4050 C.3   367  ASP367      0.1709
    161  C         20.0890   63.3070   85.0040 C.2   367  ASP367      0.2293
    162  O         20.9530   62.8730   84.2400 O.2   367  ASP367     -0.2864
    163  CB        18.8110   65.5130   84.9440 C.3   367  ASP367      0.1436
    164  CG        18.7200   65.7190   83.4360 C.2   367  ASP367      0.3671
    165  OD1       19.5940   65.3000   82.6560 O.co2 367  ASP367     -0.2456
    166  OD2       17.6800   66.2810   83.0110 O.co2 367  ASP367     -0.2456
    167  N         17.8380   57.8290   93.9750 N.3   375  TRP375     -0.1241
    168  CA        18.8150   57.1310   94.8110 C.3   375  TRP375      0.1605
    169  C         19.6500   58.1150   95.6540 C.2   375  TRP375      0.2264
    170  O         20.1920   57.7300   96.6940 O.2   375  TRP375     -0.2867
    171  CB        19.7230   56.2550   93.9310 C.3   375  TRP375      0.0550
    172  CG        20.3240   57.0350   92.8080 C.ar  375  TRP375      0.0003
    173  CD1       19.8140   57.2000   91.5400 C.ar  375  TRP375      0.0946
    174  CD2       21.5560   57.7640   92.8480 C.ar  375  TRP375      0.0152
    175  NE1       20.6640   58.0050   90.7980 N.ar  375  TRP375     -0.2442
    176  CE2       21.7280   58.3720   91.5770 C.ar  375  TRP375      0.0810
    177  CE3       22.5200   57.9820   93.8430 C.ar  375  TRP375      0.0012
    178  CZ2       22.8460   59.1740   91.2680 C.ar  375  TRP375      0.0191
    179  CZ3       23.6310   58.7840   93.5340 C.ar  375  TRP375      0.0001
    180  CH2       23.7690   59.3720   92.2600 C.ar  375  TRP375      0.0015
@<TRIPOS>BOND
     1     4     3    2
     2     3     2    1
     3     2     1    1
     4     2     5    1
     5    86    85    2
     6     5     6    1
     7    85    84    1
     8    84    83    1
     9    84    87    1
    10     6     7   ar
    11     6     8   ar
    12     7     9   ar
    13    87    88    1
    14     8    11   ar
    15     8    10   ar
    16    11    13   ar
    17     9    10   ar
    18    88    90   ar
    19    88    89   ar
    20    10    12   ar
    21    48    49    1
    22    13    14   ar
    23    51    50    2
    24    12    14   ar
    25   130   129    2
    26    30    28    1
    27    52    49    1
    28    52    53    1
    29    49    50    1
    30   134   136   ar
    31   134   132   ar
    32    23    22    2
    33   131   132    1
    34   131   128    1
    35   136   137   ar
    36    19    16    1
    37   129   128    1
    38    28    29    1
    39    28    27    2
    40    16    15    1
    41    16    17    1
    42   132   133   ar
    43    53    55   ar
    44    53    54   ar
    45    20    17   am
    46    20    21    1
    47   128   127    1
    48    55    57   ar
    49    27    26    1
    50    22    21    1
    51    17    18    2
    52   137   138    1
    53   137   135   ar
    54    24    21    1
    55    24    25    1
    56   133   135   ar
    57    54    56   ar
    58    57    58   ar
    59    25    26    1
    60   165   164   ar
    61   166   164   ar
    62   164   163    1
    63    56    58   ar
    64    58    59    1
    65    77    76    2
    66    60    61    1
    67   162   161    2
    68    76    75    1
    69   149   146    1
    70   149   150    1
    71   159   160    1
    72   159   147   am
    73   163   160    1
    74   161   160    1
    75    67    65   ar
    76   146   147    1
    77   146   145    1
    78    66    65   ar
    79    63    62    2
    80    65    64    1
    81    78    75    1
    82    78    79    1
    83    61    64    1
    84    61    62    1
    85   143   140    1
    86   143   144    1
    87   147   148    2
    88    75    74    1
    89    47    46    1
    90   140   141    1
    91   140   139    1
    92    62    68   am
    93   150   152   ar
    94   150   151   ar
    95   155   152   ar
    96   155   157   ar
    97   152   154   ar
    98   141   142    2
    99    74    70   am
   100    79    80    1
   101   157   158   ar
   102   151   153   ar
   103    46    45   ar
   104    46    44   ar
   105    68    69    1
   106    70    71    2
   107    70    69    1
   108    81    80    2
   109   154   153   ar
   110   154   156   ar
   111    45    43   ar
   112    80    82   am
   113   158   156   ar
   114    69    72    1
   115    44    42   ar
   116    43    41   ar
   117    98    97   ar
   118    42    41   ar
   119    72    73    1
   120    97    99   ar
   121    97    96    1
   122    34    33    2
   123    41    40    1
   124    39    38    2
   125    35    32    1
   126    95    96    1
   127    95    92    1
   128    31    32    1
   129    91    92    1
   130    33    32    1
   131    38    37    1
   132    92    93    1
   133   175   173   ar
   134   175   176   ar
   135    40    37    1
   136    36    37    1
   137   178   176   ar
   138   178   180   ar
   139   116   114   am
   140   173   172   ar
   141   176   174   ar
   142   106   105   ar
   143    93    94    2
   144   180   179   ar
   145   120   119    2
   146   107   105   ar
   147   121   122    1
   148   121   118    1
   149   114   113    1
   150   114   115    2
   151   105   104    1
   152   123   122   ar
   153   123   125   ar
   154   172   174   ar
   155   172   171    1
   156   174   177   ar
   157   122   124   ar
   158   125   126   ar
   159   113   112    1
   160   124   126   ar
   161   119   118    1
   162   179   177   ar
   163   112   109    1
   164   171   168    1
   165   118   117    1
   166   167   168    1
   167   104   101    1
   168   100   101    1
   169   101   102    1
   170   109   110    1
   171   109   108    1
   172   168   169    1
   173   110   111    2
   174   102   103    2
   175   169   170    2
