@<TRIPOS>MOLECULE
tmp/4d69E01.pdb
 128 125 0 0 0
SMALL
GASTEIGER

@<TRIPOS>ATOM
      1  N         26.2270  -44.0430   -4.7530 N.3    85  ARG85      -0.1231
      2  CA        25.6140  -42.7190   -4.8310 C.3    85  ARG85       0.1694
      3  C         25.9830  -41.9020   -3.5810 C.2    85  ARG85       0.2591
      4  O         25.3250  -42.0330   -2.5420 O.2    85  ARG85      -0.2718
      5  CB        24.0880  -42.8450   -4.9970 C.3    85  ARG85       0.0321
      6  CG        23.6450  -43.5290   -6.3000 C.3    85  ARG85       0.0489
      7  CD        22.2070  -43.2080   -6.6800 C.3    85  ARG85       0.2205
      8  NE        22.0360  -41.7840   -6.9860 N.pl3  85  ARG85      -0.0865
      9  CZ        20.8640  -41.1520   -7.0660 C.cat  85  ARG85       0.5346
     10  NH1       19.7220  -41.8040   -6.8620 N.pl3  85  ARG85       0.1354
     11  NH2       20.8240  -39.8540   -7.3540 N.pl3  85  ARG85       0.1354
     12  N         27.0100  -41.0470   -3.7020 N.am   86  LEU86      -0.1980
     13  CA        27.6760  -40.4440   -2.5400 C.3    86  LEU86       0.1596
     14  C         27.5290  -38.9150   -2.4670 C.2    86  LEU86       0.2287
     15  O         27.3860  -38.2470   -3.4970 O.2    86  LEU86      -0.2864
     16  CB        29.1660  -40.8260   -2.5390 C.3    86  LEU86       0.0297
     17  CG        29.5330  -42.3170   -2.4000 C.3    86  LEU86       0.0022
     18  CD1       31.0330  -42.5530   -2.4320 C.3    86  LEU86       0.0001
     19  CD2       28.9560  -42.8930   -1.1090 C.3    86  LEU86       0.0001
     20  N         28.7760  -35.4580   -1.5220 N.3    88  ASP88      -0.1239
     21  CA        29.6340  -34.2770   -1.3690 C.3    88  ASP88       0.1674
     22  C         30.8710  -34.4910   -0.5140 C.2    88  ASP88       0.2266
     23  O         31.9510  -34.5570   -1.0800 O.2    88  ASP88      -0.2867
     24  CB        28.7820  -33.1080   -0.9430 C.3    88  ASP88       0.1410
     25  CG        27.7610  -32.7870   -1.9860 C.2    88  ASP88       0.3668
     26  OD1       28.1810  -32.7670   -3.1690 O.co2  88  ASP88      -0.2456
     27  OD2       26.5640  -32.5930   -1.6510 O.co2  88  ASP88      -0.2456
     28  N         25.6910  -25.2180    1.0570 N.3   104  HIS104     -0.1226
     29  CA        25.6140  -26.6400    1.3730 C.3   104  HIS104      0.1752
     30  C         25.9860  -27.5360    0.1980 C.2   104  HIS104      0.2596
     31  O         26.5850  -27.0710   -0.7690 O.2   104  HIS104     -0.2718
     32  CB        24.2710  -27.0080    2.0880 C.3   104  HIS104      0.0759
     33  CG        22.9980  -26.8950    1.2740 C.ar  104  HIS104      0.0818
     34  ND1       22.8780  -26.2620    0.0460 N.ar  104  HIS104     -0.2268
     35  CD2       21.7430  -27.3120    1.5870 C.ar  104  HIS104      0.1154
     36  CE1       21.6300  -26.3260   -0.3760 C.ar  104  HIS104      0.1986
     37  NE2       20.9190  -26.9510    0.5460 N.ar  104  HIS104     -0.2212
     38  N         25.7340  -28.8340    0.3460 N.am  105  ALA105     -0.1966
     39  CA        26.0110  -29.8140   -0.7170 C.3   105  ALA105      0.1728
     40  C         27.4400  -29.7420   -1.2320 C.2   105  ALA105      0.2617
     41  O         28.3670  -29.8550   -0.4340 O.2   105  ALA105     -0.2715
     42  CB        25.0070  -29.6710   -1.8500 C.3   105  ALA105      0.0334
     43  N         27.6300  -29.5600   -2.5450 N.am  106  GLY106     -0.1940
     44  CA        28.9610  -29.5570   -3.1550 C.3   106  GLY106      0.2014
     45  C         29.9620  -28.5030   -2.7060 C.2   106  GLY106      0.2638
     46  O         31.1670  -28.6650   -2.9490 O.2   106  GLY106     -0.2714
     47  N         29.4800  -27.4340   -2.0760 N.am  107  TYR107     -0.1973
     48  CA        30.3600  -26.3890   -1.5190 C.3   107  TYR107      0.1639
     49  C         30.7620  -26.6690   -0.0560 C.2   107  TYR107      0.2290
     50  O         31.5230  -25.9200    0.5540 O.2   107  TYR107     -0.2864
     51  CB        29.6880  -25.0060   -1.6720 C.3   107  TYR107      0.0560
     52  CG        29.6690  -24.5260   -3.1220 C.ar  107  TYR107     -0.0198
     53  CD1       30.8570  -24.1300   -3.7620 C.ar  107  TYR107     -0.0009
     54  CD2       28.4880  -24.4980   -3.8690 C.ar  107  TYR107     -0.0009
     55  CE1       30.8670  -23.7130   -5.0900 C.ar  107  TYR107      0.0417
     56  CE2       28.4950  -24.0920   -5.2040 C.ar  107  TYR107      0.0417
     57  CZ        29.6890  -23.6980   -5.8050 C.ar  107  TYR107      0.1957
     58  OH        29.7190  -23.2750   -7.1190 O.3   107  TYR107     -0.2866
     59  N         29.1640  -20.2370   -4.6100 N.3   113  GLU113     -0.1245
     60  CA        29.2550  -20.0790   -6.0800 C.3   113  GLU113      0.1567
     61  C         29.7560  -18.6760   -6.4360 C.2   113  GLU113      0.2260
     62  O         30.5830  -18.5200   -7.3300 O.2   113  GLU113     -0.2867
     63  CB        27.9050  -20.3660   -6.7650 C.3   113  GLU113      0.0388
     64  CG        27.9600  -20.4380   -8.2930 C.3   113  GLU113      0.1160
     65  CD        26.6840  -21.0100   -8.9390 C.2   113  GLU113      0.3649
     66  OE1       26.0240  -21.8980   -8.3420 O.co2 113  GLU113     -0.2457
     67  OE2       26.3480  -20.5900  -10.0690 O.co2 113  GLU113     -0.2457
     68  N         31.6260  -36.6070   -4.1870 N.3   125  PHE125     -0.1241
     69  CA        30.7890  -36.3720   -5.3730 C.3   125  PHE125      0.1605
     70  C         31.4680  -35.4720   -6.3860 C.2   125  PHE125      0.2264
     71  O         32.0290  -34.4340   -6.0010 O.2   125  PHE125     -0.2867
     72  CB        29.4530  -35.7330   -4.9850 C.3   125  PHE125      0.0534
     73  CG        28.4900  -35.5890   -6.1400 C.ar  125  PHE125     -0.0203
     74  CD1       27.6390  -36.6400   -6.4900 C.ar  125  PHE125     -0.0042
     75  CD2       28.4430  -34.4200   -6.8940 C.ar  125  PHE125     -0.0042
     76  CE1       26.7700  -36.5240   -7.5510 C.ar  125  PHE125     -0.0003
     77  CE2       27.5710  -34.3010   -7.9570 C.ar  125  PHE125     -0.0003
     78  CZ        26.7330  -35.3500   -8.2790 C.ar  125  PHE125     -0.0000
     79  N         31.4470  -32.7240   -8.7850 N.3   127  ASN127     -0.1240
     80  CA        30.8060  -31.5220   -9.3250 C.3   127  ASN127      0.1653
     81  C         31.5980  -31.0830  -10.5790 C.2   127  ASN127      0.2266
     82  O         32.6060  -31.7010  -10.9440 O.2   127  ASN127     -0.2867
     83  CB        30.7750  -30.3900   -8.2910 C.3   127  ASN127      0.1155
     84  CG        30.1700  -30.8090   -6.9500 C.2   127  ASN127      0.2627
     85  OD1       30.8950  -30.9630   -5.9790 O.2   127  ASN127     -0.2716
     86  ND2       28.8500  -30.9560   -6.8810 N.am  127  ASN127     -0.0877
     87  N         33.5920  -28.6300  -11.1290 N.3   129  TRP129     -0.1241
     88  CA        34.9790  -28.1830  -10.8610 C.3   129  TRP129      0.1605
     89  C         35.9000  -29.3380  -10.4420 C.2   129  TRP129      0.2264
     90  O         37.1000  -29.1320  -10.2790 O.2   129  TRP129     -0.2867
     91  CB        34.9980  -27.0970   -9.7620 C.3   129  TRP129      0.0550
     92  CG        34.3380  -27.5370   -8.5110 C.ar  129  TRP129      0.0003
     93  CD1       34.8720  -28.3170   -7.5140 C.ar  129  TRP129      0.0946
     94  CD2       32.9800  -27.2810   -8.1380 C.ar  129  TRP129      0.0152
     95  NE1       33.9190  -28.5470   -6.5420 N.ar  129  TRP129     -0.2442
     96  CE2       32.7560  -27.9150   -6.9010 C.ar  129  TRP129      0.0810
     97  CE3       31.9320  -26.5830   -8.7370 C.ar  129  TRP129      0.0012
     98  CZ2       31.5470  -27.8590   -6.2510 C.ar  129  TRP129      0.0191
     99  CZ3       30.7360  -26.5170   -8.0810 C.ar  129  TRP129      0.0001
    100  CH2       30.5500  -27.1590   -6.8510 C.ar  129  TRP129      0.0015
    101  N         24.1820  -34.8960    0.5220 N.3   210  GLY210     -0.1210
    102  CA        23.7380  -34.5270   -0.8250 C.3   210  GLY210      0.1956
    103  C         22.4770  -33.6670   -0.8470 C.2   210  GLY210      0.2612
    104  O         21.6500  -33.7110    0.1080 O.2   210  GLY210     -0.2717
    105  N         22.3180  -32.8870   -1.9310 N.am  211  LEU211     -0.1965
    106  CA        21.1160  -32.0550   -2.1100 C.3   211  LEU211      0.1728
    107  C         19.8520  -32.9090   -2.1360 C.2   211  LEU211      0.2616
    108  O         19.0290  -32.8120   -1.2410 O.2   211  LEU211     -0.2715
    109  CB        21.1920  -31.2080   -3.3960 C.3   211  LEU211      0.0311
    110  CG        20.4360  -29.8630   -3.2900 C.3   211  LEU211      0.0022
    111  CD1       21.4350  -28.7140   -3.3500 C.3   211  LEU211      0.0001
    112  CD2       19.3880  -29.6520   -4.3700 C.3   211  LEU211      0.0001
    113  N         19.7000  -33.7430   -3.1650 N.am  212  ASP212     -0.1957
    114  CA        18.4480  -34.5200   -3.3780 C.3   212  ASP212      0.1840
    115  C         18.5530  -35.8990   -2.7160 C.2   212  ASP212      0.2621
    116  O         17.5370  -36.5360   -2.4280 O.2   212  ASP212     -0.2715
    117  CB        18.0650  -34.7180   -4.8730 C.3   212  ASP212      0.1450
    118  CG        19.0450  -34.0920   -5.8380 C.2   212  ASP212      0.3671
    119  OD1       20.2400  -34.4500   -5.7810 O.co2 212  ASP212     -0.2456
    120  OD2       18.6170  -33.2800   -6.6790 O.co2 212  ASP212     -0.2456
    121  N         19.7780  -36.3400   -2.4550 N.am  213  ILE213     -0.1977
    122  CA        20.0090  -37.6910   -2.0230 C.3   213  ILE213      0.1596
    123  C         20.5800  -37.7370   -0.6070 C.2   213  ILE213      0.2287
    124  O         21.1370  -36.7390   -0.1230 O.2   213  ILE213     -0.2864
    125  CB        20.9440  -38.3780   -3.0250 C.3   213  ILE213      0.0276
    126  CG1       22.2360  -37.5550   -3.2250 C.3   213  ILE213      0.0022
    127  CG2       20.1870  -38.5720   -4.3410 C.3   213  ILE213      0.0022
    128  CD1       23.1610  -38.1050   -4.2830 C.3   213  ILE213      0.0001
@<TRIPOS>BOND
     1    87    88    1
     2    82    81    2
     3    88    89    1
     4    88    91    1
     5    81    80    1
     6    89    90    2
     7    67    65   ar
     8    91    92    1
     9    80    79    1
    10    80    83    1
    11    65    66   ar
    12    65    64    1
    13    97    94   ar
    14    97    99   ar
    15    92    94   ar
    16    92    93   ar
    17    64    63    1
    18    83    84    1
    19    78    77   ar
    20    78    76   ar
    21    94    96   ar
    22    99   100   ar
    23    77    75   ar
    24    76    74   ar
    25    93    95   ar
    26    11     9    1
    27    62    61    2
    28    58    57    1
    29     9     8    2
    30     9    10    1
    31     8     7    1
    32    84    86   am
    33    84    85    2
    34    96    95   ar
    35    96    98   ar
    36    75    73   ar
    37   100    98   ar
    38    63    60    1
    39     7     6    1
    40   120   118   ar
    41    74    73   ar
    42    61    60    1
    43    70    71    2
    44    70    69    1
    45     6     5    1
    46    73    72    1
    47    60    59    1
    48   118   119   ar
    49   118   117    1
    50    57    56   ar
    51    57    55   ar
    52    69    72    1
    53    69    68    1
    54    56    54   ar
    55    55    53   ar
    56     5     2    1
    57   117   114    1
    58     2     1    1
    59     2     3    1
    60   112   110    1
    61   127   125    1
    62   128   126    1
    63    54    52   ar
    64    53    52   ar
    65    12     3   am
    66    12    13    1
    67     3     4    2
    68    15    14    2
    69   109   110    1
    70   109   106    1
    71   114   113    1
    72   114   115    1
    73   111   110    1
    74   126   125    1
    75    26    25   ar
    76   113   107   am
    77    44    45    1
    78    44    43    1
    79    52    51    1
    80   125   122    1
    81    46    45    2
    82   115   121   am
    83   115   116    2
    84    45    47   am
    85    43    40   am
    86    13    16    1
    87    13    14    1
    88    16    17    1
    89   121   122    1
    90    18    17    1
    91    17    19    1
    92   107   106    1
    93   107   108    2
    94   106   105    1
    95    47    48    1
    96   122   123    1
    97    25    27   ar
    98    25    24    1
    99   105   103   am
   100    42    39    1
   101    51    48    1
   102    20    21    1
   103    48    49    1
   104    21    24    1
   105    21    22    1
   106    40    39    1
   107    40    41    2
   108    23    22    2
   109   103   102    1
   110   103   104    2
   111   102   101    1
   112    31    30    2
   113    39    38    1
   114   123   124    2
   115    36    34   ar
   116    36    37   ar
   117    49    50    2
   118    34    33   ar
   119    30    38   am
   120    30    29    1
   121    37    35   ar
   122    28    29    1
   123    33    35   ar
   124    33    32    1
   125    29    32    1
