@<TRIPOS>MOLECULE
tmp/4d6eA00.pdb
 204 199 0 0 0
SMALL
GASTEIGER

@<TRIPOS>ATOM
      1  N         39.4150   28.0060    8.0810 N.3    20  TYR20      -0.1241
      2  CA        39.8650   29.2450    7.4660 C.3    20  TYR20       0.1605
      3  C         41.0490   29.8150    8.2380 C.2    20  TYR20       0.2264
      4  O         40.9350   30.1360    9.4220 O.2    20  TYR20      -0.2867
      5  CB        38.7150   30.2700    7.4560 C.3    20  TYR20       0.0534
      6  CG        37.7340   30.1610    6.3060 C.ar   20  TYR20      -0.0201
      7  CD1       37.1210   28.9570    5.9730 C.ar   20  TYR20      -0.0009
      8  CD2       37.4320   31.2750    5.5430 C.ar   20  TYR20      -0.0009
      9  CE1       36.2080   28.8880    4.9260 C.ar   20  TYR20       0.0417
     10  CE2       36.5370   31.2230    4.5050 C.ar   20  TYR20       0.0417
     11  CZ        35.9440   30.0180    4.1820 C.ar   20  TYR20       0.1957
     12  OH        35.0710   29.9480    3.1350 O.3    20  TYR20      -0.2866
     13  N         40.4430   30.9720   12.0940 N.3    34  TRP34      -0.1241
     14  CA        39.3570   31.8110   12.6170 C.3    34  TRP34       0.1605
     15  C         38.3020   30.9390   13.2790 C.2    34  TRP34       0.2264
     16  O         37.8280   29.9720   12.6840 O.2    34  TRP34      -0.2867
     17  CB        38.6980   32.6270   11.5210 C.3    34  TRP34       0.0550
     18  CG        39.5400   33.7420   11.0690 C.ar   34  TRP34       0.0003
     19  CD1       40.2140   33.8470    9.8740 C.ar   34  TRP34       0.0946
     20  CD2       39.7970   34.9460   11.7830 C.ar   34  TRP34       0.0152
     21  NE1       40.8830   35.0410    9.8270 N.ar   34  TRP34      -0.2442
     22  CE2       40.6280   35.7460   10.9750 C.ar   34  TRP34       0.0810
     23  CE3       39.3920   35.4410   13.0280 C.ar   34  TRP34       0.0012
     24  CZ2       41.1030   36.9980   11.4030 C.ar   34  TRP34       0.0191
     25  CZ3       39.8400   36.6860   13.4300 C.ar   34  TRP34       0.0001
     26  CH2       40.6770   37.4560   12.6200 C.ar   34  TRP34       0.0015
     27  N         41.2970   26.7070    3.9210 N.3    59  HIS59      -0.1241
     28  CA        41.0260   27.8990    3.1200 C.3    59  HIS59       0.1621
     29  C         41.9900   28.9830    3.6080 C.2    59  HIS59       0.2264
     30  O         42.2030   29.1270    4.8090 O.2    59  HIS59      -0.2867
     31  CB        39.5550   28.3190    3.3400 C.3    59  HIS59       0.0745
     32  CG        39.0760   29.4230    2.4560 C.ar   59  HIS59       0.0817
     33  ND1       39.5670   30.7100    2.5150 N.ar   59  HIS59      -0.2268
     34  CD2       38.1280   29.4230    1.4920 C.ar   59  HIS59       0.1154
     35  CE1       38.9390   31.4520    1.6130 C.ar   59  HIS59       0.1986
     36  NE2       38.0630   30.6900    0.9750 N.ar   59  HIS59      -0.2212
     37  N         41.8340   32.2650    3.5490 N.3    61  ASP61      -0.1225
     38  CA        41.1510   33.4380    4.0850 C.3    61  ASP61       0.1805
     39  C         42.0000   34.7020    3.9430 C.2    61  ASP61       0.2597
     40  O         42.2920   35.1040    2.8110 O.2    61  ASP61      -0.2718
     41  CB        40.6220   33.1670    5.5020 C.3    61  ASP61       0.1424
     42  CG        39.4960   34.1160    5.9230 C.2    61  ASP61       0.3668
     43  OD1       39.0670   34.9930    5.1270 O.co2  61  ASP61      -0.2456
     44  OD2       39.0040   33.9390    7.0650 O.co2  61  ASP61      -0.2456
     45  N         42.3960   35.3120    5.0650 N.am   62  ASP62      -0.1974
     46  CA        43.1150   36.5840    5.0510 C.3    62  ASP62       0.1709
     47  C         44.5960   36.4410    5.3170 C.2    62  ASP62       0.2293
     48  O         45.2190   37.3540    5.8390 O.2    62  ASP62      -0.2864
     49  CB        42.4570   37.5890    6.0050 C.3    62  ASP62       0.1436
     50  CG        42.4870   37.1480    7.4600 C.2    62  ASP62       0.3671
     51  OD1       42.6890   35.9320    7.7290 O.co2  62  ASP62      -0.2456
     52  OD2       42.2530   38.0170    8.3390 O.co2  62  ASP62      -0.2456
     53  N         40.4670   31.2770   -5.7670 N.3   103  THR103     -0.1203
     54  CA        39.3030   32.0260   -5.3100 C.3   103  THR103      0.1994
     55  C         39.4560   33.4660   -5.7430 C.2   103  THR103      0.2617
     56  O         40.5820   33.9420   -5.8800 O.2   103  THR103     -0.2717
     57  CB        39.1050   31.9250   -3.7800 C.3   103  THR103      0.1784
     58  OG1       37.8210   32.4510   -3.4660 O.3   103  THR103     -0.2211
     59  CG2       40.1810   32.6760   -2.9810 C.3   103  THR103      0.0376
     60  N         38.3400   34.1460   -6.0050 N.am  104  ALA104     -0.1979
     61  CA        38.3880   35.5670   -6.3790 C.3   104  ALA104      0.1597
     62  C         39.3420   35.7970   -7.5430 C.2   104  ALA104      0.2287
     63  O         40.1070   36.7810   -7.5820 O.2   104  ALA104     -0.2864
     64  CB        38.7880   36.4550   -5.1700 C.3   104  ALA104      0.0319
     65  N         36.7750   28.2230   -5.4800 N.3   137  THR137     -0.1203
     66  CA        35.5020   28.7280   -4.9920 C.3   137  THR137      0.1994
     67  C         35.3280   30.2250   -5.2550 C.2   137  THR137      0.2617
     68  O         36.1890   31.0330   -4.9380 O.2   137  THR137     -0.2717
     69  CB        35.3100   28.3940   -3.4940 C.3   137  THR137      0.1784
     70  OG1       34.0260   28.8400   -3.0780 O.3   137  THR137     -0.2211
     71  CG2       36.4010   28.9700   -2.5920 C.3   137  THR137      0.0376
     72  N         34.2140   30.5620   -5.8870 N.am  138  GLU138     -0.1979
     73  CA        33.7430   31.9330   -6.0200 C.3   138  GLU138      0.1602
     74  C         34.6480   32.8900   -6.7910 C.2   138  GLU138      0.2287
     75  O         35.3540   33.7130   -6.2160 O.2   138  GLU138     -0.2864
     76  CB        33.3950   32.5330   -4.6530 C.3   138  GLU138      0.0415
     77  CG        32.4310   33.6830   -4.8330 C.3   138  GLU138      0.1163
     78  CD        32.2510   34.4930   -3.5970 C.2   138  GLU138      0.3649
     79  OE1       31.7210   33.9560   -2.6120 O.co2 138  GLU138     -0.2457
     80  OE2       32.6430   35.6640   -3.5840 O.co2 138  GLU138     -0.2457
     81  N         32.3670   36.8660   -9.9600 N.3   141  TRP141     -0.1241
     82  CA        32.4480   38.3360   -9.9750 C.3   141  TRP141      0.1605
     83  C         33.7810   38.9130  -10.4170 C.2   141  TRP141      0.2264
     84  O         33.9140   40.1340  -10.5750 O.2   141  TRP141     -0.2867
     85  CB        32.0600   38.8970   -8.5980 C.3   141  TRP141      0.0550
     86  CG        32.8870   38.3740   -7.4650 C.ar  141  TRP141      0.0003
     87  CD1       32.6410   37.2460   -6.7310 C.ar  141  TRP141      0.0946
     88  CD2       34.0660   38.9680   -6.8940 C.ar  141  TRP141      0.0152
     89  NE1       33.5880   37.1060   -5.7560 N.ar  141  TRP141     -0.2442
     90  CE2       34.4850   38.1320   -5.8450 C.ar  141  TRP141      0.0810
     91  CE3       34.8100   40.1170   -7.1760 C.ar  141  TRP141      0.0012
     92  CZ2       35.6100   38.4130   -5.0740 C.ar  141  TRP141      0.0191
     93  CZ3       35.9200   40.3890   -6.4220 C.ar  141  TRP141      0.0001
     94  CH2       36.3160   39.5410   -5.3790 C.ar  141  TRP141      0.0015
     95  N         27.2740   27.5730   -5.5200 N.3   204  LYS204     -0.1245
     96  CA        27.6630   28.3810   -4.3680 C.3   204  LYS204      0.1561
     97  C         26.6270   29.4740   -4.2320 C.2   204  LYS204      0.2260
     98  O         26.6200   30.4150   -5.0140 O.2   204  LYS204     -0.2867
     99  CB        29.0730   28.9600   -4.5190 C.3   204  LYS204      0.0271
    100  CG        29.5100   29.6860   -3.2410 C.3   204  LYS204      0.0035
    101  CD        30.8630   30.2310   -3.2880 C.3   204  LYS204      0.0206
    102  CE        31.4010   30.5970   -1.9050 C.3   204  LYS204      0.1093
    103  NZ        30.8200   31.8130   -1.2870 N.3   204  LYS204     -0.1314
    104  N         25.7090   31.8650   -2.2290 N.3   206  THR206     -0.1218
    105  CA        25.9890   33.1780   -1.6300 C.3   206  THR206      0.1862
    106  C         25.3350   34.3930   -2.3080 C.2   206  THR206      0.2287
    107  O         24.7110   35.1830   -1.6060 O.2   206  THR206     -0.2866
    108  CB        27.5100   33.3830   -1.5670 C.3   206  THR206      0.1770
    109  OG1       28.1030   32.2060   -1.0110 O.3   206  THR206     -0.2211
    110  CG2       27.8490   34.6390   -0.7210 C.3   206  THR206      0.0375
    111  N         27.4200   24.3710   -2.0890 N.3   235  LEU235     -0.1245
    112  CA        27.8360   25.1300   -0.9360 C.3   235  LEU235      0.1561
    113  C         26.6960   26.0750   -0.6130 C.2   235  LEU235      0.2260
    114  O         26.3350   26.9450   -1.4120 O.2   235  LEU235     -0.2867
    115  CB        29.1590   25.8310   -1.1820 C.3   235  LEU235      0.0270
    116  CG        29.7890   26.5280    0.0270 C.3   235  LEU235      0.0019
    117  CD1       31.2860   26.7890   -0.2240 C.3   235  LEU235      0.0001
    118  CD2       29.0410   27.8170    0.4400 C.3   235  LEU235      0.0001
    119  N         25.0240   28.8400    1.9300 N.3   237  ASP237     -0.1239
    120  CA        25.6990   29.9430    2.6230 C.3   237  ASP237      0.1674
    121  C         24.7210   30.8560    3.3530 C.2   237  ASP237      0.2266
    122  O         23.8660   31.4970    2.7360 O.2   237  ASP237     -0.2867
    123  CB        26.5320   30.7470    1.6100 C.3   237  ASP237      0.1410
    124  CG        27.4320   31.7640    2.2570 C.2   237  ASP237      0.3668
    125  OD1       27.3670   31.9410    3.5010 O.co2 237  ASP237     -0.2456
    126  OD2       28.1950   32.4190    1.4850 O.co2 237  ASP237     -0.2456
    127  N         25.3460   33.6500    4.5370 N.3   239  TRP239     -0.1241
    128  CA        25.5080   35.0000    4.0490 C.3   239  TRP239      0.1605
    129  C         24.4210   35.4170    3.0620 C.2   239  TRP239      0.2264
    130  O         24.2880   36.6050    2.7760 O.2   239  TRP239     -0.2867
    131  CB        26.8730   35.2110    3.3980 C.3   239  TRP239      0.0550
    132  CG        28.0600   35.3360    4.3200 C.ar  239  TRP239      0.0003
    133  CD1       28.9590   34.3540    4.6600 C.ar  239  TRP239      0.0946
    134  CD2       28.5290   36.5380    4.9630 C.ar  239  TRP239      0.0152
    135  NE1       29.9460   34.8730    5.4630 N.ar  239  TRP239     -0.2442
    136  CE2       29.7100   36.2130    5.6590 C.ar  239  TRP239      0.0810
    137  CE3       28.0780   37.8640    4.9900 C.ar  239  TRP239      0.0012
    138  CZ2       30.4440   37.1690    6.3780 C.ar  239  TRP239      0.0191
    139  CZ3       28.8190   38.8070    5.6620 C.ar  239  TRP239      0.0001
    140  CH2       29.9800   38.4580    6.3660 C.ar  239  TRP239      0.0015
    141  N         22.4050   38.2740    4.4130 N.3   242  TYR242     -0.1227
    142  CA        23.0630   39.5590    4.1930 C.3   242  TYR242      0.1736
    143  C         22.8390   40.0600    2.7770 C.2   242  TYR242      0.2595
    144  O         22.4270   41.2110    2.5610 O.2   242  TYR242     -0.2718
    145  CB        24.5520   39.4220    4.4820 C.3   242  TYR242      0.0548
    146  CG        25.4770   40.5410    4.0010 C.ar  242  TYR242     -0.0200
    147  CD1       25.5520   41.7430    4.6730 C.ar  242  TYR242     -0.0009
    148  CD2       26.3560   40.3370    2.9460 C.ar  242  TYR242     -0.0009
    149  CE1       26.4480   42.7230    4.2960 C.ar  242  TYR242      0.0417
    150  CE2       27.2360   41.3100    2.5420 C.ar  242  TYR242      0.0417
    151  CZ        27.2960   42.5010    3.2260 C.ar  242  TYR242      0.1957
    152  OH        28.2010   43.4640    2.8460 O.3   242  TYR242     -0.2866
    153  N         23.0860   39.1870    1.8060 N.am  243  GLU243     -0.1979
    154  CA        23.0160   39.6010    0.4000 C.3   243  GLU243      0.1602
    155  C         21.6140   40.0850    0.0330 C.2   243  GLU243      0.2287
    156  O         21.4790   40.9460   -0.8310 O.2   243  GLU243     -0.2864
    157  CB        23.4710   38.4680   -0.5780 C.3   243  GLU243      0.0415
    158  CG        24.9700   38.1830   -0.5030 C.3   243  GLU243      0.1163
    159  CD        25.7770   39.3420   -1.0410 C.2   243  GLU243      0.3649
    160  OE1       25.3560   39.9080   -2.0580 O.co2 243  GLU243     -0.2457
    161  OE2       26.8230   39.6890   -0.4610 O.co2 243  GLU243     -0.2457
    162  N         27.5690   40.6950    9.8780 N.3   261  ASP261     -0.1239
    163  CA        27.8970   39.6930   10.8630 C.3   261  ASP261      0.1674
    164  C         26.7220   39.3420   11.7700 C.2   261  ASP261      0.2266
    165  O         26.7060   38.2610   12.3260 O.2   261  ASP261     -0.2867
    166  CB        29.1740   40.0710   11.6190 C.3   261  ASP261      0.1410
    167  CG        30.3430   40.2850   10.6680 C.2   261  ASP261      0.3668
    168  OD1       30.8260   39.2900   10.0800 O.co2 261  ASP261     -0.2456
    169  OD2       30.7270   41.4370   10.4510 O.co2 261  ASP261     -0.2456
    170  N         28.8740   27.8310    4.4550 N.3   290  GLU290     -0.1231
    171  CA        29.3790   29.0170    5.1310 C.3   290  GLU290      0.1699
    172  C         28.1910   29.6650    5.8250 C.2   290  GLU290      0.2592
    173  O         27.0590   29.3560    5.4710 O.2   290  GLU290     -0.2718
    174  CB        29.9810   30.0010    4.1420 C.3   290  GLU290      0.0402
    175  CG        31.2750   29.5830    3.4790 C.3   290  GLU290      0.1161
    176  CD        31.7900   30.6250    2.4780 C.2   290  GLU290      0.3649
    177  OE1       32.1150   31.7580    2.9260 O.co2 290  GLU290     -0.2457
    178  OE2       31.8620   30.3190    1.2640 O.co2 290  GLU290     -0.2457
    179  N         28.3790   30.5460    6.8050 N.am  291  HIS291     -0.1962
    180  CA        29.6390   30.8850    7.4790 C.3   291  HIS291      0.1772
    181  C         30.0450   29.7210    8.3650 C.2   291  HIS291      0.2462
    182  O         29.1930   29.2030    9.0970 O.2   291  HIS291     -0.2730
    183  CB        29.3840   32.1260    8.3430 C.3   291  HIS291      0.0785
    184  CG        30.6120   32.7260    8.9530 C.ar  291  HIS291      0.0821
    185  ND1       31.4350   32.0460    9.8290 N.ar  291  HIS291     -0.2267
    186  CD2       31.1680   33.9460    8.7800 C.ar  291  HIS291      0.1154
    187  CE1       32.4320   32.8390   10.1800 C.ar  291  HIS291      0.1986
    188  NE2       32.2960   33.9950    9.5580 N.ar  291  HIS291     -0.2212
    189  N         31.3300   29.3110    8.3250 N.am  292  PRO292     -0.2727
    190  CA        31.7160   28.1260    9.1130 C.3   292  PRO292      0.1402
    191  C         31.4560   28.2100   10.6190 C.2   292  PRO292      0.2269
    192  O         31.1750   27.1700   11.2590 O.2   292  PRO292     -0.2865
    193  CB        33.2060   27.9600    8.8190 C.3   292  PRO292      0.0296
    194  CG        33.3910   28.6340    7.4630 C.3   292  PRO292      0.0237
    195  CD        32.4420   29.8000    7.4890 C.3   292  PRO292      0.0939
    196  N         33.2470   40.6190   12.5630 N.3   499  LYS499     -0.1245
    197  CA        33.6590   39.2190   12.4630 C.3   499  LYS499      0.1561
    198  C         34.0520   38.6580   13.8230 C.2   499  LYS499      0.2260
    199  O         33.5490   37.6380   14.2610 O.2   499  LYS499     -0.2867
    200  CB        34.8370   39.0940   11.4960 C.3   499  LYS499      0.0271
    201  CG        35.3840   37.6870   11.3240 C.3   499  LYS499      0.0035
    202  CD        36.3560   37.6000   10.1500 C.3   499  LYS499      0.0206
    203  CE        36.9340   36.1880    9.9940 C.3   499  LYS499      0.1093
    204  NZ        37.7350   36.0440    8.7100 N.3   499  LYS499     -0.1314
@<TRIPOS>BOND
     1    84    83    2
     2    83    82    1
     3    82    81    1
     4    82    85    1
     5    85    86    1
     6    63    62    2
     7    62    61    1
     8    86    88   ar
     9    86    87   ar
    10    91    88   ar
    11    91    93   ar
    12    88    90   ar
    13    74    75    2
    14    74    73    1
    15    87    89   ar
    16    93    94   ar
    17    61    60    1
    18    61    64    1
    19    73    72    1
    20    73    76    1
    21    60    55   am
    22    72    67   am
    23    56    55    2
    24    90    89   ar
    25    90    92   ar
    26    53    54    1
    27    55    54    1
    28    95    96    1
    29    65    66    1
    30    94    92   ar
    31    54    57    1
    32    67    66    1
    33    67    68    2
    34    98    97    2
    35    66    69    1
    36    77    76    1
    37    77    78    1
    38    99    96    1
    39    99   100    1
    40    96    97    1
    41    57    58    1
    42    57    59    1
    43    78    80   ar
    44    78    79   ar
    45    69    70    1
    46    69    71    1
    47   101   100    1
    48   101   102    1
    49   106   105    1
    50   106   107    2
    51   104   105    1
    52   111   112    1
    53   160   159   ar
    54   102   103    1
    55   105   108    1
    56   108   109    1
    57   108   110    1
    58   114   113    2
    59   115   112    1
    60   115   116    1
    61   159   158    1
    62   159   161   ar
    63   112   113    1
    64   156   155    2
    65   157   158    1
    66   157   154    1
    67   117   116    1
    68   116   118    1
    69   155   154    1
    70   154   153    1
    71    36    34   ar
    72    36    35   ar
    73   178   176   ar
    74   126   124   ar
    75    34    32   ar
    76   123   124    1
    77   123   120    1
    78    35    33   ar
    79   153   143   am
    80   119   120    1
    81   124   125   ar
    82    32    33   ar
    83    32    31    1
    84   176   177   ar
    85   176   175    1
    86   150   148   ar
    87   150   151   ar
    88   144   143    2
    89   120   121    1
    90   122   121    2
    91   130   129    2
    92   143   142    1
    93    40    39    2
    94   152   151    1
    95   148   146   ar
    96   129   128    1
    97    28    31    1
    98    28    29    1
    99    28    27    1
   100    12    11    1
   101   151   149   ar
   102   131   128    1
   103   131   132    1
   104   175   174    1
   105    37    38    1
   106    29    30    2
   107    39    38    1
   108    39    45   am
   109   146   145    1
   110   146   147   ar
   111   128   127    1
   112    38    41    1
   113   174   171    1
   114    11    10   ar
   115    11     9   ar
   116   142   141    1
   117   142   145    1
   118   149   147   ar
   119   132   133   ar
   120   132   134   ar
   121   170   171    1
   122    10     8   ar
   123   133   135   ar
   124     9     7   ar
   125   134   137   ar
   126   134   136   ar
   127   137   139   ar
   128    46    45    1
   129    46    47    1
   130    46    49    1
   131    43    42   ar
   132   171   172    1
   133    47    48    2
   134   135   136   ar
   135   173   172    2
   136    41    42    1
   137     8     6   ar
   138   136   138   ar
   139   139   140   ar
   140   172   179   am
   141    42    44   ar
   142     7     6   ar
   143    49    50    1
   144     6     5    1
   145   140   138   ar
   146   179   180    1
   147     5     2    1
   148    50    51   ar
   149    50    52   ar
   150   194   195    1
   151   194   193    1
   152     2     1    1
   153     2     3    1
   154   180   183    1
   155   180   181    1
   156   195   189    1
   157     3     4    2
   158   189   181   am
   159   189   190    1
   160   183   184    1
   161   181   182    2
   162   204   203    1
   163   186   184   ar
   164   186   188   ar
   165   193   190    1
   166   184   185   ar
   167   190   191    1
   168   188   187   ar
   169    21    19   ar
   170    21    22   ar
   171   185   187   ar
   172    19    18   ar
   173   162   163    1
   174   203   202    1
   175   168   167   ar
   176   202   201    1
   177   169   167   ar
   178   191   192    2
   179   167   166    1
   180   163   166    1
   181   163   164    1
   182    22    24   ar
   183    22    20   ar
   184    18    17    1
   185    18    20   ar
   186   201   200    1
   187    24    26   ar
   188   200   197    1
   189    17    14    1
   190   164   165    2
   191    20    23   ar
   192    13    14    1
   193   197   196    1
   194   197   198    1
   195    14    15    1
   196    26    25   ar
   197    16    15    2
   198    23    25   ar
   199   198   199    2
