@<TRIPOS>MOLECULE
tmp/4d6gA00.pdb
 153 149 0 0 0
SMALL
GASTEIGER

@<TRIPOS>ATOM
      1  N         39.3620   28.0640    8.0750 N.3    20  TYR20      -0.1241
      2  CA        39.8150   29.3120    7.4650 C.3    20  TYR20       0.1605
      3  C         40.9950   29.8940    8.2370 C.2    20  TYR20       0.2264
      4  O         40.8800   30.1890    9.4220 O.2    20  TYR20      -0.2867
      5  CB        38.6770   30.3480    7.4540 C.3    20  TYR20       0.0534
      6  CG        37.6780   30.2140    6.3110 C.ar   20  TYR20      -0.0201
      7  CD1       37.0460   29.0160    5.9900 C.ar   20  TYR20      -0.0009
      8  CD2       37.3490   31.3210    5.5670 C.ar   20  TYR20      -0.0009
      9  CE1       36.1440   28.9340    4.9250 C.ar   20  TYR20       0.0417
     10  CE2       36.4560   31.2610    4.5090 C.ar   20  TYR20       0.0417
     11  CZ        35.8440   30.0660    4.2010 C.ar   20  TYR20       0.1957
     12  OH        34.9620   29.9810    3.1560 O.3    20  TYR20      -0.2866
     13  N         40.3700   31.0120   12.1130 N.3    34  TRP34      -0.1241
     14  CA        39.2890   31.8470   12.6260 C.3    34  TRP34       0.1605
     15  C         38.2420   30.9490   13.2800 C.2    34  TRP34       0.2264
     16  O         37.7820   29.9730   12.6850 O.2    34  TRP34      -0.2867
     17  CB        38.6430   32.6580   11.5190 C.3    34  TRP34       0.0550
     18  CG        39.4840   33.8050   11.0850 C.ar   34  TRP34       0.0003
     19  CD1       40.1670   33.9340    9.9110 C.ar   34  TRP34       0.0946
     20  CD2       39.7330   35.0000   11.8290 C.ar   34  TRP34       0.0152
     21  NE1       40.8280   35.1270    9.8850 N.ar   34  TRP34      -0.2442
     22  CE2       40.5830   35.7990   11.0520 C.ar   34  TRP34       0.0810
     23  CE3       39.3130   35.4800   13.0810 C.ar   34  TRP34       0.0012
     24  CZ2       41.0450   37.0350   11.4950 C.ar   34  TRP34       0.0191
     25  CZ3       39.7710   36.7020   13.5090 C.ar   34  TRP34       0.0001
     26  CH2       40.6100   37.4690   12.7150 C.ar   34  TRP34       0.0015
     27  N         41.7600   32.3580    3.5680 N.3    61  ASP61      -0.1225
     28  CA        41.0770   33.5080    4.1210 C.3    61  ASP61       0.1805
     29  C         41.9340   34.7700    3.9910 C.2    61  ASP61       0.2597
     30  O         42.2220   35.1920    2.8620 O.2    61  ASP61      -0.2718
     31  CB        40.5470   33.2130    5.5260 C.3    61  ASP61       0.1424
     32  CG        39.4270   34.1490    5.9760 C.2    61  ASP61       0.3668
     33  OD1       38.9910   35.0040    5.1700 O.co2  61  ASP61      -0.2456
     34  OD2       38.9600   33.9780    7.1260 O.co2  61  ASP61      -0.2456
     35  N         42.3290   35.3810    5.1080 N.am   62  ASP62      -0.1974
     36  CA        43.0370   36.6510    5.1200 C.3    62  ASP62       0.1709
     37  C         44.5340   36.5000    5.4060 C.2    62  ASP62       0.2293
     38  O         45.1650   37.4170    5.9280 O.2    62  ASP62      -0.2864
     39  CB        42.3770   37.6330    6.0950 C.3    62  ASP62       0.1436
     40  CG        42.4190   37.1860    7.5310 C.2    62  ASP62       0.3671
     41  OD1       42.6500   35.9920    7.7920 O.co2  62  ASP62      -0.2456
     42  OD2       42.1660   38.0440    8.4130 O.co2  62  ASP62      -0.2456
     43  N         34.1000   30.6810   -5.8200 N.3   138  GLU138     -0.1245
     44  CA        33.6350   32.0510   -5.8580 C.3   138  GLU138      0.1567
     45  C         34.5330   33.0280   -6.6370 C.2   138  GLU138      0.2260
     46  O         35.2350   33.8650   -6.0620 O.2   138  GLU138     -0.2867
     47  CB        33.3670   32.6000   -4.4490 C.3   138  GLU138      0.0388
     48  CG        32.4980   33.8470   -4.5080 C.3   138  GLU138      0.1160
     49  CD        32.3300   34.5510   -3.1990 C.2   138  GLU138      0.3649
     50  OE1       32.0750   33.9090   -2.1660 O.co2 138  GLU138     -0.2457
     51  OE2       32.4710   35.7950   -3.1950 O.co2 138  GLU138     -0.2457
     52  N         27.2050   27.6290   -5.5830 N.3   204  LYS204     -0.1245
     53  CA        27.6320   28.4330   -4.4560 C.3   204  LYS204      0.1561
     54  C         26.5790   29.5040   -4.2810 C.2   204  LYS204      0.2260
     55  O         26.5540   30.4840   -5.0230 O.2   204  LYS204     -0.2867
     56  CB        29.0090   29.0520   -4.6620 C.3   204  LYS204      0.0271
     57  CG        29.4210   29.6950   -3.2960 C.3   204  LYS204      0.0035
     58  CD        30.7210   30.3690   -3.2790 C.3   204  LYS204      0.0206
     59  CE        31.2920   30.5500   -1.9340 C.3   204  LYS204      0.1093
     60  NZ        30.8160   31.7160   -1.1620 N.3   204  LYS204     -0.1314
     61  N         25.6860   31.9180   -2.2850 N.3   206  THR206     -0.1218
     62  CA        25.9830   33.2220   -1.7250 C.3   206  THR206      0.1862
     63  C         25.2990   34.4240   -2.3850 C.2   206  THR206      0.2287
     64  O         24.7240   35.2290   -1.6600 O.2   206  THR206     -0.2866
     65  CB        27.5060   33.4270   -1.7000 C.3   206  THR206      0.1770
     66  OG1       28.0790   32.2670   -1.1070 O.3   206  THR206     -0.2211
     67  CG2       27.9030   34.7110   -0.9750 C.3   206  THR206      0.0375
     68  N         25.0200   28.8970    1.8650 N.3   237  ASP237     -0.1239
     69  CA        25.6920   29.9920    2.5560 C.3   237  ASP237      0.1674
     70  C         24.7110   30.8960    3.2820 C.2   237  ASP237      0.2266
     71  O         23.8530   31.5170    2.6530 O.2   237  ASP237     -0.2867
     72  CB        26.4870   30.7920    1.5360 C.3   237  ASP237      0.1410
     73  CG        27.3560   31.8620    2.1690 C.2   237  ASP237      0.3668
     74  OD1       27.3200   32.0090    3.4100 O.co2 237  ASP237     -0.2456
     75  OD2       28.1000   32.5070    1.4170 O.co2 237  ASP237     -0.2456
     76  N         25.2890   33.6740    4.4590 N.3   239  TRP239     -0.1241
     77  CA        25.4620   35.0350    3.9890 C.3   239  TRP239      0.1605
     78  C         24.3790   35.4400    2.9900 C.2   239  TRP239      0.2264
     79  O         24.2310   36.6390    2.7150 O.2   239  TRP239     -0.2867
     80  CB        26.8390   35.2590    3.3660 C.3   239  TRP239      0.0550
     81  CG        27.9930   35.3770    4.3080 C.ar  239  TRP239      0.0003
     82  CD1       28.8890   34.4130    4.6560 C.ar  239  TRP239      0.0946
     83  CD2       28.4420   36.5760    4.9610 C.ar  239  TRP239      0.0152
     84  NE1       29.8600   34.9180    5.4870 N.ar  239  TRP239     -0.2442
     85  CE2       29.6240   36.2580    5.6610 C.ar  239  TRP239      0.0810
     86  CE3       27.9900   37.9080    4.9650 C.ar  239  TRP239      0.0012
     87  CZ2       30.3420   37.2250    6.3710 C.ar  239  TRP239      0.0191
     88  CZ3       28.7170   38.8660    5.6480 C.ar  239  TRP239      0.0001
     89  CH2       29.8790   38.5190    6.3440 C.ar  239  TRP239      0.0015
     90  N         22.3730   38.3390    4.3450 N.3   242  TYR242     -0.1227
     91  CA        23.0300   39.6380    4.1170 C.3   242  TYR242      0.1736
     92  C         22.8110   40.1260    2.7020 C.2   242  TYR242      0.2595
     93  O         22.3990   41.2580    2.4770 O.2   242  TYR242     -0.2718
     94  CB        24.5250   39.4720    4.3990 C.3   242  TYR242      0.0548
     95  CG        25.4350   40.5620    3.9000 C.ar  242  TYR242     -0.0200
     96  CD1       25.5060   41.7850    4.5450 C.ar  242  TYR242     -0.0009
     97  CD2       26.2870   40.3410    2.8320 C.ar  242  TYR242     -0.0009
     98  CE1       26.4090   42.7380    4.1540 C.ar  242  TYR242      0.0417
     99  CE2       27.1930   41.3140    2.4140 C.ar  242  TYR242      0.0417
    100  CZ        27.2470   42.5180    3.0850 C.ar  242  TYR242      0.1957
    101  OH        28.1590   43.4740    2.7150 O.3   242  TYR242     -0.2866
    102  N         23.0870   39.2620    1.7240 N.am  243  GLU243     -0.1979
    103  CA        22.9990   39.6370    0.3190 C.3   243  GLU243      0.1602
    104  C         21.6020   40.1250   -0.0510 C.2   243  GLU243      0.2287
    105  O         21.4610   40.9920   -0.8990 O.2   243  GLU243     -0.2864
    106  CB        23.4530   38.5030   -0.6280 C.3   243  GLU243      0.0415
    107  CG        24.9570   38.2280   -0.5670 C.3   243  GLU243      0.1163
    108  CD        25.7740   39.3430   -1.1400 C.2   243  GLU243      0.3649
    109  OE1       25.3600   39.9060   -2.1640 O.co2 243  GLU243     -0.2457
    110  OE2       26.8690   39.6350   -0.6190 O.co2 243  GLU243     -0.2457
    111  N         27.4940   40.7480    9.8150 N.3   261  ASP261     -0.1239
    112  CA        27.7880   39.7460   10.8180 C.3   261  ASP261      0.1674
    113  C         26.5750   39.3820   11.6750 C.2   261  ASP261      0.2266
    114  O         26.4990   38.2620   12.1530 O.2   261  ASP261     -0.2867
    115  CB        29.0290   40.1490   11.6300 C.3   261  ASP261      0.1410
    116  CG        30.2340   40.3340   10.7180 C.2   261  ASP261      0.3668
    117  OD1       30.7120   39.3110   10.1770 O.co2 261  ASP261     -0.2456
    118  OD2       30.6540   41.4880   10.4890 O.co2 261  ASP261     -0.2456
    119  N         28.7940   27.8310    4.4590 N.3   290  GLU290     -0.1231
    120  CA        29.2990   29.0480    5.1010 C.3   290  GLU290      0.1699
    121  C         28.1000   29.6690    5.8310 C.2   290  GLU290      0.2592
    122  O         26.9480   29.3710    5.4700 O.2   290  GLU290     -0.2718
    123  CB        29.8970   30.0360    4.1070 C.3   290  GLU290      0.0402
    124  CG        31.2110   29.6150    3.4470 C.3   290  GLU290      0.1161
    125  CD        31.6710   30.6750    2.4610 C.2   290  GLU290      0.3649
    126  OE1       31.9920   31.8050    2.9270 O.co2 290  GLU290     -0.2457
    127  OE2       31.7000   30.4080    1.2290 O.co2 290  GLU290     -0.2457
    128  N         28.2870   30.5700    6.7970 N.am  291  HIS291     -0.1962
    129  CA        29.5430   30.9080    7.4740 C.3   291  HIS291      0.1772
    130  C         29.9450   29.7410    8.3570 C.2   291  HIS291      0.2462
    131  O         29.1080   29.2250    9.1090 O.2   291  HIS291     -0.2730
    132  CB        29.2930   32.1350    8.3320 C.3   291  HIS291      0.0785
    133  CG        30.5100   32.7200    8.9420 C.ar  291  HIS291      0.0821
    134  ND1       31.3120   32.0310    9.8380 N.ar  291  HIS291     -0.2267
    135  CD2       31.0690   33.9390    8.7650 C.ar  291  HIS291      0.1154
    136  CE1       32.3070   32.8270   10.1880 C.ar  291  HIS291      0.1986
    137  NE2       32.1790   33.9870    9.5620 N.ar  291  HIS291     -0.2212
    138  N         31.2210   29.3290    8.3270 N.am  292  PRO292     -0.2727
    139  CA        31.6080   28.1240    9.0950 C.3   292  PRO292      0.1402
    140  C         31.3640   28.2020   10.6010 C.2   292  PRO292      0.2269
    141  O         31.1330   27.1710   11.2230 O.2   292  PRO292     -0.2865
    142  CB        33.1050   27.9720    8.7980 C.3   292  PRO292      0.0296
    143  CG        33.2720   28.6200    7.4520 C.3   292  PRO292      0.0237
    144  CD        32.3510   29.8160    7.5090 C.3   292  PRO292      0.0939
    145  N         33.2240   40.7180   12.5410 N.3   507  LYS507     -0.1245
    146  CA        33.6040   39.3150   12.4490 C.3   507  LYS507      0.1561
    147  C         33.9730   38.7580   13.8180 C.2   507  LYS507      0.2260
    148  O         33.4690   37.7250   14.2470 O.2   507  LYS507     -0.2867
    149  CB        34.7550   39.1410   11.4450 C.3   507  LYS507      0.0271
    150  CG        35.3220   37.7560   11.3540 C.3   507  LYS507      0.0035
    151  CD        36.2790   37.6280   10.1690 C.3   507  LYS507      0.0206
    152  CE        36.8570   36.2290   10.0530 C.3   507  LYS507      0.1093
    153  NZ        37.7370   36.1010    8.8550 N.3   507  LYS507     -0.1314
@<TRIPOS>BOND
     1    45    46    2
     2    45    44    1
     3    44    43    1
     4    44    47    1
     5    52    53    1
     6    55    54    2
     7    56    53    1
     8    56    57    1
     9    48    47    1
    10    48    49    1
    11    53    54    1
    12    57    58    1
    13    58    59    1
    14    49    51   ar
    15    49    50   ar
    16    63    62    1
    17    63    64    2
    18    61    62    1
    19   109   108   ar
    20    59    60    1
    21    62    65    1
    22    65    66    1
    23    65    67    1
    24   108   110   ar
    25   108   107    1
    26   105   104    2
    27   106   107    1
    28   106   103    1
    29   104   103    1
    30   103   102    1
    31   127   125   ar
    32    75    73   ar
    33    72    73    1
    34    72    69    1
    35   102    92   am
    36    68    69    1
    37    73    74   ar
    38    99    97   ar
    39    99   100   ar
    40   125   126   ar
    41   125   124    1
    42    93    92    2
    43    69    70    1
    44    71    70    2
    45    92    91    1
    46    79    78    2
    47   101   100    1
    48    97    95   ar
    49    30    29    2
    50    78    77    1
    51   100    98   ar
    52    12    11    1
    53    80    77    1
    54    80    81    1
    55   124   123    1
    56    27    28    1
    57    95    94    1
    58    95    96   ar
    59    77    76    1
    60    29    28    1
    61    29    35   am
    62   123   120    1
    63    91    90    1
    64    91    94    1
    65    28    31    1
    66    98    96   ar
    67    11    10   ar
    68    11     9   ar
    69    81    82   ar
    70    81    83   ar
    71   119   120    1
    72    10     8   ar
    73    82    84   ar
    74     9     7   ar
    75    83    86   ar
    76    83    85   ar
    77    86    88   ar
    78   120   121    1
    79    35    36    1
    80    36    37    1
    81    36    39    1
    82    33    32   ar
    83    37    38    2
    84   122   121    2
    85    84    85   ar
    86    31    32    1
    87     8     6   ar
    88    88    89   ar
    89    85    87   ar
    90   121   128   am
    91    32    34   ar
    92     7     6   ar
    93    39    40    1
    94     6     5    1
    95    89    87   ar
    96   128   129    1
    97   143   144    1
    98   143   142    1
    99     5     2    1
   100     2     1    1
   101     2     3    1
   102   129   132    1
   103   129   130    1
   104   144   138    1
   105    40    41   ar
   106    40    42   ar
   107     3     4    2
   108   138   130   am
   109   138   139    1
   110   132   133    1
   111   130   131    2
   112   135   133   ar
   113   135   137   ar
   114   142   139    1
   115   153   152    1
   116   133   134   ar
   117   139   140    1
   118   137   136   ar
   119   111   112    1
   120   134   136   ar
   121    21    19   ar
   122    21    22   ar
   123    19    18   ar
   124   152   151    1
   125   151   150    1
   126   117   116   ar
   127   118   116   ar
   128   140   141    2
   129   116   115    1
   130   112   115    1
   131   112   113    1
   132    22    24   ar
   133    22    20   ar
   134    18    17    1
   135    18    20   ar
   136   150   149    1
   137   149   146    1
   138    24    26   ar
   139    17    14    1
   140   113   114    2
   141    20    23   ar
   142    13    14    1
   143   146   145    1
   144   146   147    1
   145    14    15    1
   146    16    15    2
   147    26    25   ar
   148    23    25   ar
   149   147   148    2
