@<TRIPOS>MOLECULE
tmp/4d6iA01.pdb
 99 99 0 0 0
SMALL
GASTEIGER

@<TRIPOS>ATOM
      1  N        -39.4190  -28.1750    8.0020 N.3    20  TYR20      -0.1241
      2  CA       -39.8750  -29.4340    7.4220 C.3    20  TYR20       0.1605
      3  C        -41.0800  -29.9760    8.1740 C.2    20  TYR20       0.2264
      4  O        -41.0050  -30.2270    9.3860 O.2    20  TYR20      -0.2867
      5  CB       -38.7300  -30.4600    7.4480 C.3    20  TYR20       0.0534
      6  CG       -37.7630  -30.3530    6.2880 C.ar   20  TYR20      -0.0201
      7  CD1      -37.0960  -29.1440    5.9960 C.ar   20  TYR20      -0.0009
      8  CD2      -37.5070  -31.4630    5.4760 C.ar   20  TYR20      -0.0009
      9  CE1      -36.2100  -29.0640    4.9250 C.ar   20  TYR20       0.0417
     10  CE2      -36.6240  -31.3900    4.4150 C.ar   20  TYR20       0.0417
     11  CZ       -35.9840  -30.1990    4.1400 C.ar   20  TYR20       0.1957
     12  OH       -35.1220  -30.1550    3.0750 O.3    20  TYR20      -0.2866
     13  N        -40.4870  -31.1160   12.1320 N.3    34  TRP34      -0.1241
     14  CA       -39.3790  -31.9490   12.6330 C.3    34  TRP34       0.1605
     15  C        -38.3290  -31.0460   13.2870 C.2    34  TRP34       0.2264
     16  O        -37.9140  -30.0340   12.6990 O.2    34  TRP34      -0.2867
     17  CB       -38.7400  -32.7700   11.4980 C.3    34  TRP34       0.0550
     18  CG       -39.5980  -33.9270   11.0360 C.ar   34  TRP34       0.0003
     19  CD1      -40.2560  -34.0410    9.8400 C.ar   34  TRP34       0.0946
     20  CD2      -39.8780  -35.1340   11.7630 C.ar   34  TRP34       0.0152
     21  NE1      -40.9200  -35.2390    9.7740 N.ar   34  TRP34      -0.2442
     22  CE2      -40.7190  -35.9250   10.9490 C.ar   34  TRP34       0.0810
     23  CE3      -39.5020  -35.6210   13.0280 C.ar   34  TRP34       0.0012
     24  CZ2      -41.1950  -37.1870   11.3550 C.ar   34  TRP34       0.0191
     25  CZ3      -39.9840  -36.8670   13.4380 C.ar   34  TRP34       0.0001
     26  CH2      -40.8120  -37.6440   12.5920 C.ar   34  TRP34       0.0015
     27  N        -41.8680  -32.4460    3.5140 N.3    61  ASP61      -0.1225
     28  CA       -41.1730  -33.6230    4.0430 C.3    61  ASP61       0.1805
     29  C        -42.0320  -34.8910    3.9350 C.2    61  ASP61       0.2597
     30  O        -42.3810  -35.2970    2.8250 O.2    61  ASP61      -0.2718
     31  CB       -40.7100  -33.3500    5.4870 C.3    61  ASP61       0.1424
     32  CG       -39.5530  -34.2470    5.9180 C.2    61  ASP61       0.3668
     33  OD1      -39.0840  -35.1060    5.1170 O.co2  61  ASP61      -0.2456
     34  OD2      -39.1080  -34.0820    7.0680 O.co2  61  ASP61      -0.2456
     35  N        -42.4150  -35.4700    5.0710 N.am   62  ASP62      -0.1974
     36  CA       -43.1500  -36.7470    5.0700 C.3    62  ASP62       0.1709
     37  C        -44.6570  -36.6320    5.3450 C.2    62  ASP62       0.2293
     38  O        -45.2580  -37.5540    5.8950 O.2    62  ASP62      -0.2864
     39  CB       -42.4800  -37.7580    6.0190 C.3    62  ASP62       0.1436
     40  CG       -42.5130  -37.3200    7.4900 C.2    62  ASP62       0.3671
     41  OD1      -42.7020  -36.1200    7.7780 O.co2  62  ASP62      -0.2456
     42  OD2      -42.3470  -38.2060    8.3690 O.co2  62  ASP62      -0.2456
     43  N        -25.3260  -33.7450    4.5100 N.3   239  TRP239     -0.1241
     44  CA       -25.5270  -35.1250    4.0490 C.3   239  TRP239      0.1605
     45  C        -24.4080  -35.5910    3.0790 C.2   239  TRP239      0.2264
     46  O        -24.2920  -36.7810    2.7960 O.2   239  TRP239     -0.2867
     47  CB       -26.9030  -35.2920    3.3790 C.3   239  TRP239      0.0550
     48  CG       -28.0980  -35.4580    4.2880 C.ar  239  TRP239      0.0003
     49  CD1      -29.0020  -34.4810    4.6610 C.ar  239  TRP239      0.0946
     50  CD2      -28.5400  -36.6700    4.9150 C.ar  239  TRP239      0.0152
     51  NE1      -29.9710  -35.0240    5.4670 N.ar  239  TRP239     -0.2442
     52  CE2      -29.7140  -36.3620    5.6400 C.ar  239  TRP239      0.0810
     53  CE3      -28.0690  -37.9990    4.9150 C.ar  239  TRP239      0.0012
     54  CZ2      -30.4290  -37.3350    6.3700 C.ar  239  TRP239      0.0191
     55  CZ3      -28.7800  -38.9710    5.6340 C.ar  239  TRP239      0.0001
     56  CH2      -29.9530  -38.6250    6.3490 C.ar  239  TRP239      0.0015
     57  N        -27.5560  -40.8710    9.8650 N.3   261  ASP261     -0.1239
     58  CA       -27.8190  -39.8470   10.8910 C.3   261  ASP261      0.1674
     59  C        -26.6110  -39.4540   11.7430 C.2   261  ASP261      0.2266
     60  O        -26.5230  -38.3030   12.1760 O.2   261  ASP261     -0.2867
     61  CB       -29.0700  -40.1840   11.7170 C.3   261  ASP261      0.1410
     62  CG       -30.3060  -40.3660   10.8380 C.2   261  ASP261      0.3668
     63  OD1      -30.8520  -39.3610   10.3420 O.co2 261  ASP261     -0.2456
     64  OD2      -30.7320  -41.5170   10.6250 O.co2 261  ASP261     -0.2456
     65  N        -28.8610  -27.9720    4.4370 N.3   290  GLU290     -0.1231
     66  CA       -29.3550  -29.1660    5.1290 C.3   290  GLU290      0.1699
     67  C        -28.1270  -29.7630    5.8240 C.2   290  GLU290      0.2592
     68  O        -27.0050  -29.4140    5.4410 O.2   290  GLU290     -0.2718
     69  CB       -29.9560  -30.1760    4.1340 C.3   290  GLU290      0.0402
     70  CG       -31.2420  -29.7410    3.4280 C.3   290  GLU290      0.1161
     71  CD       -31.7610  -30.8120    2.4720 C.2   290  GLU290      0.3649
     72  OE1      -32.0460  -31.9390    2.9330 O.co2 290  GLU290     -0.2457
     73  OE2      -31.8790  -30.5370    1.2600 O.co2 290  GLU290     -0.2457
     74  N        -28.2770  -30.6280    6.8380 N.am  291  HIS291     -0.1962
     75  CA       -29.5430  -30.9900    7.4950 C.3   291  HIS291      0.1772
     76  C        -29.9560  -29.8190    8.3960 C.2   291  HIS291      0.2462
     77  O        -29.1170  -29.2960    9.1340 O.2   291  HIS291     -0.2730
     78  CB       -29.3280  -32.2680    8.3410 C.3   291  HIS291      0.0785
     79  CG       -30.5830  -32.8490    8.9120 C.ar  291  HIS291      0.0821
     80  ND1      -31.3770  -32.1730    9.8170 N.ar  291  HIS291     -0.2267
     81  CD2      -31.1630  -34.0640    8.7390 C.ar  291  HIS291      0.1154
     82  CE1      -32.4030  -32.9350   10.1540 C.ar  291  HIS291      0.1986
     83  NE2      -32.2990  -34.0870    9.5140 N.ar  291  HIS291     -0.2212
     84  N        -31.2330  -29.3930    8.3400 N.am  292  PRO292     -0.2727
     85  CA       -31.6940  -28.1900    9.0780 C.3   292  PRO292      0.1402
     86  C        -31.4920  -28.2210   10.6010 C.2   292  PRO292      0.2269
     87  O        -31.3350  -27.1730   11.2150 O.2   292  PRO292     -0.2865
     88  CB       -33.1940  -28.1320    8.7780 C.3   292  PRO292      0.0296
     89  CG       -33.3620  -28.8920    7.4590 C.3   292  PRO292      0.0237
     90  CD       -32.3190  -30.0050    7.5440 C.3   292  PRO292      0.0939
     91  N        -33.3130  -40.7970   12.5250 N.3   507  LYS507     -0.1245
     92  CA       -33.6900  -39.3820   12.4030 C.3   507  LYS507      0.1561
     93  C        -34.0860  -38.8020   13.7600 C.2   507  LYS507      0.2260
     94  O        -33.5610  -37.7650   14.1720 O.2   507  LYS507     -0.2867
     95  CB       -34.8040  -39.1990   11.3680 C.3   507  LYS507      0.0271
     96  CG       -35.4590  -37.8190   11.3590 C.3   507  LYS507      0.0035
     97  CD       -36.4740  -37.7630   10.2030 C.3   507  LYS507      0.0206
     98  CE       -36.9850  -36.3470    9.9540 C.3   507  LYS507      0.1093
     99  NZ       -37.8430  -36.3420    8.7140 N.3   507  LYS507     -0.1314
@<TRIPOS>BOND
     1    73    71   ar
     2    71    72   ar
     3    71    70    1
     4    46    45    2
     5    30    29    2
     6    12    11    1
     7    45    44    1
     8    47    44    1
     9    47    48    1
    10    70    69    1
    11    27    28    1
    12    29    28    1
    13    29    35   am
    14    28    31    1
    15    44    43    1
    16    69    66    1
    17    11    10   ar
    18    11     9   ar
    19    48    49   ar
    20    48    50   ar
    21    10     8   ar
    22    65    66    1
    23    49    51   ar
    24    50    53   ar
    25    50    52   ar
    26    53    55   ar
    27     9     7   ar
    28    36    35    1
    29    36    37    1
    30    36    39    1
    31    33    32   ar
    32    66    67    1
    33    37    38    2
    34    68    67    2
    35    51    52   ar
    36     8     6   ar
    37    31    32    1
    38    55    56   ar
    39    52    54   ar
    40    67    74   am
    41    32    34   ar
    42     7     6   ar
    43    39    40    1
    44     6     5    1
    45    56    54   ar
    46    74    75    1
    47     2     5    1
    48     2     1    1
    49     2     3    1
    50    89    90    1
    51    89    88    1
    52    40    41   ar
    53    40    42   ar
    54    75    78    1
    55    75    76    1
    56    90    84    1
    57     3     4    2
    58    84    76   am
    59    84    85    1
    60    78    79    1
    61    76    77    2
    62    99    98    1
    63    81    79   ar
    64    81    83   ar
    65    88    85    1
    66    79    80   ar
    67    85    86    1
    68    83    82   ar
    69    21    19   ar
    70    21    22   ar
    71    80    82   ar
    72    19    18   ar
    73    57    58    1
    74    98    97    1
    75    97    96    1
    76    63    62   ar
    77    86    87    2
    78    64    62   ar
    79    62    61    1
    80    58    61    1
    81    58    59    1
    82    22    24   ar
    83    22    20   ar
    84    18    17    1
    85    18    20   ar
    86    24    26   ar
    87    96    95    1
    88    95    92    1
    89    17    14    1
    90    59    60    2
    91    20    23   ar
    92    13    14    1
    93    92    91    1
    94    92    93    1
    95    26    25   ar
    96    14    15    1
    97    16    15    2
    98    23    25   ar
    99    93    94    2
