@<TRIPOS>MOLECULE
tmp/4d6iA00.pdb
 173 169 0 0 0
SMALL
GASTEIGER

@<TRIPOS>ATOM
      1  N        -39.4190  -28.1750    8.0020 N.3    20  TYR20      -0.1241
      2  CA       -39.8750  -29.4340    7.4220 C.3    20  TYR20       0.1605
      3  C        -41.0800  -29.9760    8.1740 C.2    20  TYR20       0.2264
      4  O        -41.0050  -30.2270    9.3860 O.2    20  TYR20      -0.2867
      5  CB       -38.7300  -30.4600    7.4480 C.3    20  TYR20       0.0534
      6  CG       -37.7630  -30.3530    6.2880 C.ar   20  TYR20      -0.0201
      7  CD1      -37.0960  -29.1440    5.9960 C.ar   20  TYR20      -0.0009
      8  CD2      -37.5070  -31.4630    5.4760 C.ar   20  TYR20      -0.0009
      9  CE1      -36.2100  -29.0640    4.9250 C.ar   20  TYR20       0.0417
     10  CE2      -36.6240  -31.3900    4.4150 C.ar   20  TYR20       0.0417
     11  CZ       -35.9840  -30.1990    4.1400 C.ar   20  TYR20       0.1957
     12  OH       -35.1220  -30.1550    3.0750 O.3    20  TYR20      -0.2866
     13  N        -41.3410  -26.9250    3.8190 N.3    59  HIS59      -0.1241
     14  CA       -41.0530  -28.1300    3.0520 C.3    59  HIS59       0.1621
     15  C        -42.0400  -29.1860    3.5490 C.2    59  HIS59       0.2264
     16  O        -42.2850  -29.2570    4.7490 O.2    59  HIS59      -0.2867
     17  CB       -39.6060  -28.5560    3.2910 C.3    59  HIS59       0.0745
     18  CG       -39.1190  -29.6470    2.3750 C.ar   59  HIS59       0.0817
     19  ND1      -39.6420  -30.9240    2.3850 N.ar   59  HIS59      -0.2268
     20  CD2      -38.1340  -29.6550    1.4450 C.ar   59  HIS59       0.1154
     21  CE1      -39.0140  -31.6660    1.4850 C.ar   59  HIS59       0.1986
     22  NE2      -38.0930  -30.9220    0.9010 N.ar   59  HIS59      -0.2212
     23  N        -41.8680  -32.4460    3.5140 N.3    61  ASP61      -0.1239
     24  CA       -41.1730  -33.6230    4.0430 C.3    61  ASP61       0.1674
     25  C        -42.0320  -34.8910    3.9350 C.2    61  ASP61       0.2266
     26  O        -42.3810  -35.2970    2.8250 O.2    61  ASP61      -0.2867
     27  CB       -40.7100  -33.3500    5.4870 C.3    61  ASP61       0.1410
     28  CG       -39.5530  -34.2470    5.9180 C.2    61  ASP61       0.3668
     29  OD1      -39.0840  -35.1060    5.1170 O.co2  61  ASP61      -0.2456
     30  OD2      -39.1080  -34.0820    7.0680 O.co2  61  ASP61      -0.2456
     31  N        -40.4440  -31.5720   -5.7430 N.3   103  THR103     -0.1203
     32  CA       -39.2950  -32.3060   -5.2410 C.3   103  THR103      0.1994
     33  C        -39.4270  -33.7930   -5.5930 C.2   103  THR103      0.2617
     34  O        -40.5460  -34.3150   -5.7210 O.2   103  THR103     -0.2717
     35  CB       -39.0980  -32.0710   -3.7070 C.3   103  THR103      0.1784
     36  OG1      -37.8100  -32.5480   -3.3160 O.3   103  THR103     -0.2211
     37  CG2      -40.1770  -32.7710   -2.8840 C.3   103  THR103      0.0376
     38  N        -38.2960  -34.4700   -5.7890 N.am  104  ALA104     -0.1979
     39  CA       -38.3200  -35.8800   -6.1560 C.3   104  ALA104      0.1597
     40  C        -39.2470  -36.1470   -7.3540 C.2   104  ALA104      0.2287
     41  O        -40.0650  -37.0870   -7.3390 O.2   104  ALA104     -0.2864
     42  CB       -38.7330  -36.7330   -4.9380 C.3   104  ALA104      0.0319
     43  N        -43.3020  -40.4610   -3.8650 N.3   110  HIS110     -0.1241
     44  CA       -42.2230  -39.7590   -3.1710 C.3   110  HIS110      0.1621
     45  C        -42.6690  -38.5690   -2.3170 C.2   110  HIS110      0.2264
     46  O        -42.0660  -38.2960   -1.2730 O.2   110  HIS110     -0.2867
     47  CB       -41.1610  -39.2990   -4.1750 C.3   110  HIS110      0.0745
     48  CG       -40.2600  -40.4090   -4.6340 C.ar  110  HIS110      0.0817
     49  ND1      -39.7160  -40.4580   -5.8990 N.ar  110  HIS110     -0.2268
     50  CD2      -39.8110  -41.5080   -3.9870 C.ar  110  HIS110      0.1154
     51  CE1      -38.9730  -41.5460   -6.0140 C.ar  110  HIS110      0.1986
     52  NE2      -39.0220  -42.2040   -4.8680 N.ar  110  HIS110     -0.2212
     53  N        -36.7020  -28.5600   -5.5980 N.3   137  THR137     -0.1203
     54  CA       -35.4350  -29.0800   -5.0750 C.3   137  THR137      0.1994
     55  C        -35.2720  -30.5870   -5.2440 C.2   137  THR137      0.2617
     56  O        -36.1960  -31.3760   -4.9460 O.2   137  THR137     -0.2717
     57  CB       -35.2370  -28.6980   -3.5740 C.3   137  THR137      0.1784
     58  OG1      -33.9510  -29.1420   -3.1360 O.3   137  THR137     -0.2211
     59  CG2      -36.3300  -29.3140   -2.6610 C.3   137  THR137      0.0376
     60  N        -34.0960  -30.9700   -5.7290 N.am  138  ALA138     -0.1979
     61  CA       -33.6390  -32.3650   -5.7490 C.3   138  ALA138      0.1597
     62  C        -34.5000  -33.3430   -6.5490 C.2   138  ALA138      0.2287
     63  O        -35.0840  -34.2790   -5.9890 O.2   138  ALA138     -0.2864
     64  CB       -33.3930  -32.8870   -4.3180 C.3   138  ALA138      0.0319
     65  N        -32.8340  -34.3890   -9.5800 N.3   140  TYR140     -0.1227
     66  CA       -31.7860  -34.8500  -10.5220 C.3   140  TYR140      0.1736
     67  C        -31.7870  -36.3650  -10.6170 C.2   140  TYR140      0.2595
     68  O        -31.4960  -36.9300  -11.6810 O.2   140  TYR140     -0.2718
     69  CB       -30.3680  -34.3730  -10.1160 C.3   140  TYR140      0.0548
     70  CG       -30.0410  -34.6400   -8.6510 C.ar  140  TYR140     -0.0200
     71  CD1      -29.5620  -35.8840   -8.2340 C.ar  140  TYR140     -0.0009
     72  CD2      -30.2250  -33.6370   -7.6840 C.ar  140  TYR140     -0.0009
     73  CE1      -29.2840  -36.1350   -6.8950 C.ar  140  TYR140      0.0417
     74  CE2      -29.9510  -33.8740   -6.3380 C.ar  140  TYR140      0.0417
     75  CZ       -29.4910  -35.1290   -5.9540 C.ar  140  TYR140      0.1957
     76  OH       -29.2230  -35.3540   -4.6280 O.3   140  TYR140     -0.2866
     77  N        -32.0990  -37.0050   -9.4910 N.am  141  TRP141     -0.1976
     78  CA       -32.0990  -38.4580   -9.3600 C.3   141  TRP141      0.1640
     79  C        -33.4030  -39.1290   -9.8310 C.2   141  TRP141      0.2290
     80  O        -33.4790  -40.3520   -9.9210 O.2   141  TRP141     -0.2864
     81  CB       -31.7880  -38.8480   -7.9070 C.3   141  TRP141      0.0576
     82  CG       -32.7700  -38.2870   -6.9330 C.ar  141  TRP141      0.0006
     83  CD1      -32.7750  -37.0180   -6.4110 C.ar  141  TRP141      0.0946
     84  CD2      -33.9150  -38.9580   -6.3710 C.ar  141  TRP141      0.0152
     85  NE1      -33.8440  -36.8660   -5.5530 N.ar  141  TRP141     -0.2442
     86  CE2      -34.5600  -38.0340   -5.5070 C.ar  141  TRP141      0.0810
     87  CE3      -34.4510  -40.2490   -6.5070 C.ar  141  TRP141      0.0012
     88  CZ2      -35.7250  -38.3530   -4.7850 C.ar  141  TRP141      0.0191
     89  CZ3      -35.6210  -40.5710   -5.7820 C.ar  141  TRP141      0.0001
     90  CH2      -36.2360  -39.6200   -4.9290 C.ar  141  TRP141      0.0015
     91  N        -27.2510  -27.8460   -5.6350 N.3   204  LYS204     -0.1245
     92  CA       -27.6070  -28.6090   -4.4530 C.3   204  LYS204      0.1561
     93  C        -26.5320  -29.6640   -4.2530 C.2   204  LYS204      0.2260
     94  O        -26.5060  -30.6490   -4.9830 O.2   204  LYS204     -0.2867
     95  CB       -28.9810  -29.2570   -4.5970 C.3   204  LYS204      0.0271
     96  CG       -29.4820  -29.7800   -3.2410 C.3   204  LYS204      0.0035
     97  CD       -30.7770  -30.5080   -3.3290 C.3   204  LYS204      0.0206
     98  CE       -31.3350  -30.7490   -1.9380 C.3   204  LYS204      0.1093
     99  NZ       -30.7950  -31.9940   -1.3320 N.3   204  LYS204     -0.1314
    100  N        -25.6690  -32.0210   -2.2210 N.3   206  THR206     -0.1204
    101  CA       -25.9780  -33.3370   -1.6540 C.3   206  THR206      0.1979
    102  C        -25.3350  -34.5780   -2.3100 C.2   206  THR206      0.2459
    103  O        -24.6920  -35.3410   -1.5990 O.2   206  THR206     -0.2732
    104  CB       -27.4950  -33.5690   -1.5680 C.3   206  THR206      0.1783
    105  OG1      -28.1320  -32.4110   -0.9920 O.3   206  THR206     -0.2211
    106  CG2      -27.8070  -34.8180   -0.7100 C.3   206  THR206      0.0376
    107  N        -25.5270  -34.8020   -3.6360 N.am  207  PRO207     -0.2728
    108  CA       -25.0680  -36.0730   -4.2470 C.3   207  PRO207      0.1401
    109  C        -23.5440  -36.0750   -4.4760 C.2   207  PRO207      0.2269
    110  O        -23.0750  -36.2090   -5.5980 O.2   207  PRO207     -0.2865
    111  CB       -25.8090  -36.1030   -5.5870 C.3   207  PRO207      0.0296
    112  CG       -25.9580  -34.6440   -5.9440 C.3   207  PRO207      0.0237
    113  CD       -26.0490  -33.8690   -4.6590 C.3   207  PRO207      0.0939
    114  N        -27.4160  -24.7130   -2.2550 N.3   235  LEU235     -0.1245
    115  CA       -27.8720  -25.3670   -1.0610 C.3   235  LEU235      0.1561
    116  C        -26.7080  -26.2730   -0.6820 C.2   235  LEU235      0.2260
    117  O        -26.2980  -27.1400   -1.4730 O.2   235  LEU235     -0.2867
    118  CB       -29.1750  -26.1510   -1.3080 C.3   235  LEU235      0.0270
    119  CG       -29.8410  -26.7510   -0.0530 C.3   235  LEU235      0.0019
    120  CD1      -31.2940  -27.0240   -0.3050 C.3   235  LEU235      0.0001
    121  CD2      -29.1520  -28.0170    0.4250 C.3   235  LEU235      0.0001
    122  N        -25.0370  -28.9730    1.8830 N.3   237  ASP237     -0.1239
    123  CA       -25.7210  -30.0670    2.5650 C.3   237  ASP237      0.1674
    124  C        -24.7440  -30.9720    3.3140 C.2   237  ASP237      0.2266
    125  O        -23.8510  -31.5760    2.7040 O.2   237  ASP237     -0.2867
    126  CB       -26.5680  -30.8450    1.5320 C.3   237  ASP237      0.1410
    127  CG       -27.4350  -31.9360    2.1620 C.2   237  ASP237      0.3668
    128  OD1      -27.3530  -32.1490    3.3920 O.co2 237  ASP237     -0.2456
    129  OD2      -28.2170  -32.5710    1.4120 O.co2 237  ASP237     -0.2456
    130  N        -25.3260  -33.7450    4.5100 N.3   239  TRP239     -0.1241
    131  CA       -25.5270  -35.1250    4.0490 C.3   239  TRP239      0.1605
    132  C        -24.4080  -35.5910    3.0790 C.2   239  TRP239      0.2264
    133  O        -24.2920  -36.7810    2.7960 O.2   239  TRP239     -0.2867
    134  CB       -26.9030  -35.2920    3.3790 C.3   239  TRP239      0.0550
    135  CG       -28.0980  -35.4580    4.2880 C.ar  239  TRP239      0.0003
    136  CD1      -29.0020  -34.4810    4.6610 C.ar  239  TRP239      0.0946
    137  CD2      -28.5400  -36.6700    4.9150 C.ar  239  TRP239      0.0152
    138  NE1      -29.9710  -35.0240    5.4670 N.ar  239  TRP239     -0.2442
    139  CE2      -29.7140  -36.3620    5.6400 C.ar  239  TRP239      0.0810
    140  CE3      -28.0690  -37.9990    4.9150 C.ar  239  TRP239      0.0012
    141  CZ2      -30.4290  -37.3350    6.3700 C.ar  239  TRP239      0.0191
    142  CZ3      -28.7800  -38.9710    5.6340 C.ar  239  TRP239      0.0001
    143  CH2      -29.9530  -38.6250    6.3490 C.ar  239  TRP239      0.0015
    144  N        -22.4000  -38.4750    4.4970 N.3   242  TYR242     -0.1227
    145  CA       -23.0860  -39.7570    4.2400 C.3   242  TYR242      0.1736
    146  C        -22.8610  -40.2820    2.8180 C.2   242  TYR242      0.2595
    147  O        -22.3930  -41.4180    2.6450 O.2   242  TYR242     -0.2718
    148  CB       -24.5820  -39.5790    4.5060 C.3   242  TYR242      0.0548
    149  CG       -25.5250  -40.6560    3.9910 C.ar  242  TYR242     -0.0200
    150  CD1      -25.6410  -41.8860    4.6480 C.ar  242  TYR242     -0.0009
    151  CD2      -26.3480  -40.4160    2.8970 C.ar  242  TYR242     -0.0009
    152  CE1      -26.5470  -42.8570    4.2230 C.ar  242  TYR242      0.0417
    153  CE2      -27.2590  -41.3720    2.4540 C.ar  242  TYR242      0.0417
    154  CZ       -27.3440  -42.6000    3.1220 C.ar  242  TYR242      0.1957
    155  OH       -28.2320  -43.5550    2.7130 O.3   242  TYR242     -0.2866
    156  N        -23.1380  -39.4390    1.8170 N.am  243  GLU243     -0.1979
    157  CA       -23.0170  -39.8250    0.3960 C.3   243  GLU243      0.1602
    158  C        -21.6240  -40.3250    0.0410 C.2   243  GLU243      0.2287
    159  O        -21.4830  -41.2480   -0.7600 O.2   243  GLU243     -0.2864
    160  CB       -23.4200  -38.6490   -0.5520 C.3   243  GLU243      0.0415
    161  CG       -24.9450  -38.3240   -0.5490 C.3   243  GLU243      0.1163
    162  CD       -25.7840  -39.4980   -1.0740 C.2   243  GLU243      0.3649
    163  OE1      -25.3560  -40.1160   -2.0610 O.co2 243  GLU243     -0.2457
    164  OE2      -26.8740  -39.8060   -0.5120 O.co2 243  GLU243     -0.2457
    165  N        -28.8610  -27.9720    4.4370 N.3   290  GLU290     -0.1245
    166  CA       -29.3550  -29.1660    5.1290 C.3   290  GLU290      0.1567
    167  C        -28.1270  -29.7630    5.8240 C.2   290  GLU290      0.2260
    168  O        -27.0050  -29.4140    5.4410 O.2   290  GLU290     -0.2867
    169  CB       -29.9560  -30.1760    4.1340 C.3   290  GLU290      0.0388
    170  CG       -31.2420  -29.7410    3.4280 C.3   290  GLU290      0.1160
    171  CD       -31.7610  -30.8120    2.4720 C.2   290  GLU290      0.3649
    172  OE1      -32.0460  -31.9390    2.9330 O.co2 290  GLU290     -0.2457
    173  OE2      -31.8790  -30.5370    1.2600 O.co2 290  GLU290     -0.2457
@<TRIPOS>BOND
     1    68    67    2
     2    67    66    1
     3    67    77   am
     4    66    69    1
     5    66    65    1
     6    69    70    1
     7    80    79    2
     8    79    78    1
     9    77    78    1
    10    78    81    1
    11    70    71   ar
    12    70    72   ar
    13    71    73   ar
    14    81    82    1
    15    72    74   ar
    16    40    41    2
    17    40    39    1
    18    82    83   ar
    19    82    84   ar
    20    73    75   ar
    21    62    63    2
    22    62    61    1
    23    87    84   ar
    24    87    89   ar
    25    83    85   ar
    26    84    86   ar
    27    74    75   ar
    28    39    38    1
    29    39    42    1
    30    51    49   ar
    31    51    52   ar
    32    75    76    1
    33   112   111    1
    34   112   113    1
    35    49    48   ar
    36    38    33   am
    37    89    90   ar
    38    61    60    1
    39    61    64    1
    40    31    32    1
    41    60    55   am
    42    34    33    2
    43    91    92    1
    44    53    54    1
    45   110   109    2
    46    33    32    1
    47   111   108    1
    48    85    86   ar
    49    86    88   ar
    50    55    54    1
    51    55    56    2
    52    32    35    1
    53    54    57    1
    54    94    93    2
    55    90    88   ar
    56    52    50   ar
    57   113   107    1
    58    48    47    1
    59    48    50   ar
    60    95    92    1
    61    95    96    1
    62   109   108    1
    63    92    93    1
    64   108   107    1
    65    47    44    1
    66    43    44    1
    67    35    36    1
    68    35    37    1
    69   107   102   am
    70    57    58    1
    71    57    59    1
    72    97    96    1
    73    97    98    1
    74    44    45    1
    75    45    46    2
    76   102   101    1
    77   102   103    2
    78   114   115    1
    79   100   101    1
    80   163   162   ar
    81    98    99    1
    82   101   104    1
    83   104   105    1
    84   104   106    1
    85   117   116    2
    86   118   115    1
    87   118   119    1
    88   162   161    1
    89   162   164   ar
    90   115   116    1
    91   159   158    2
    92   160   161    1
    93   160   157    1
    94   120   119    1
    95   119   121    1
    96   158   157    1
    97   157   156    1
    98    22    20   ar
    99    22    21   ar
   100   173   171   ar
   101   129   127   ar
   102    20    18   ar
   103    21    19   ar
   104   126   127    1
   105   126   123    1
   106   156   146   am
   107   122   123    1
   108   127   128   ar
   109    18    19   ar
   110    18    17    1
   111   153   151   ar
   112   153   154   ar
   113   171   172   ar
   114   171   170    1
   115   123   124    1
   116   147   146    2
   117   125   124    2
   118   155   154    1
   119   133   132    2
   120   146   145    1
   121    26    25    2
   122   151   149   ar
   123    14    17    1
   124    14    15    1
   125    14    13    1
   126    12    11    1
   127   132   131    1
   128   154   152   ar
   129   134   131    1
   130   134   135    1
   131   170   169    1
   132    23    24    1
   133    15    16    2
   134    25    24    1
   135   149   148    1
   136   149   150   ar
   137    24    27    1
   138   131   130    1
   139   169   166    1
   140    11    10   ar
   141    11     9   ar
   142   152   150   ar
   143   145   144    1
   144   145   148    1
   145   135   136   ar
   146   135   137   ar
   147    10     8   ar
   148   165   166    1
   149   136   138   ar
   150   140   137   ar
   151   140   142   ar
   152   137   139   ar
   153     9     7   ar
   154    29    28   ar
   155   166   167    1
   156   168   167    2
   157   138   139   ar
   158     8     6   ar
   159    27    28    1
   160   142   143   ar
   161   139   141   ar
   162    28    30   ar
   163     7     6   ar
   164     6     5    1
   165   143   141   ar
   166     2     5    1
   167     2     1    1
   168     2     3    1
   169     3     4    2
