@<TRIPOS>MOLECULE
tmp/4d6pB00.pdb
 147 138 0 0 0
SMALL
GASTEIGER

@<TRIPOS>ATOM
      1  N          2.4300  -26.7880   44.3250 N.3    33  PHE33      -0.1227
      2  CA         1.9450  -25.5230   44.8560 C.3    33  PHE33       0.1736
      3  C          3.1260  -24.6240   45.1920 C.2    33  PHE33       0.2596
      4  O          4.1520  -25.1020   45.6960 O.2    33  PHE33      -0.2718
      5  CB         0.9960  -25.7160   46.0610 C.3    33  PHE33       0.0547
      6  CG         1.6830  -26.0050   47.3770 C.ar   33  PHE33      -0.0202
      7  CD1        2.2650  -24.9880   48.1260 C.ar   33  PHE33      -0.0042
      8  CD2        1.6790  -27.2880   47.9050 C.ar   33  PHE33      -0.0042
      9  CE1        2.8730  -25.2520   49.3320 C.ar   33  PHE33      -0.0003
     10  CE2        2.2760  -27.5490   49.1220 C.ar   33  PHE33      -0.0003
     11  CZ         2.8790  -26.5300   49.8280 C.ar   33  PHE33      -0.0000
     12  N          2.9780  -23.3350   44.8820 N.am   34  GLY34      -0.1942
     13  CA         3.9960  -22.3370   45.1740 C.3    34  GLY34       0.2014
     14  C          5.0830  -22.1930   44.1260 C.2    34  GLY34       0.2640
     15  O          5.9800  -21.3430   44.2780 O.2    34  GLY34      -0.2714
     16  N          5.0210  -22.9980   43.0630 N.am   35  SER35      -0.1935
     17  CA         6.1170  -23.0590   42.0950 C.3    35  SER35       0.2055
     18  C          6.1850  -21.8660   41.1530 C.2    35  SER35       0.2644
     19  O          7.2060  -21.6480   40.5060 O.2    35  SER35      -0.2714
     20  CB         6.1170  -24.3680   41.2910 C.3    35  SER35       0.2130
     21  OG         4.8520  -24.6270   40.7240 O.3    35  SER35      -0.2179
     22  N          5.1030  -21.1090   41.0550 N.am   36  GLY36      -0.1939
     23  CA         5.1310  -19.8710   40.2940 C.3    36  GLY36       0.2014
     24  C          4.1440  -19.7930   39.1420 C.2    36  GLY36       0.2639
     25  O          4.1350  -18.8130   38.3950 O.2    36  GLY36      -0.2714
     26  N          3.2950  -20.8050   39.0080 N.am   37  LYS37      -0.1963
     27  CA         2.3730  -20.8790   37.8860 C.3    37  LYS37       0.1728
     28  C          1.4840  -19.6300   37.7330 C.2    37  LYS37       0.2617
     29  O          1.4210  -19.0350   36.6610 O.2    37  LYS37      -0.2715
     30  CB         1.5190  -22.1430   37.9890 C.3    37  LYS37       0.0311
     31  CG         2.3680  -23.4160   38.0220 C.3    37  LYS37       0.0038
     32  CD         1.4920  -24.6720   38.0330 C.3    37  LYS37       0.0206
     33  CE         0.6230  -24.7660   39.2920 C.3    37  LYS37       0.1093
     34  NZ         1.3900  -24.9920   40.5850 N.3    37  LYS37      -0.1314
     35  N          0.8230  -19.2370   38.8190 N.am   38  THR38      -0.1937
     36  CA        -0.1000  -18.1100   38.7790 C.3    38  THR38       0.2028
     37  C          0.6430  -16.7740   38.6190 C.2    38  THR38       0.2642
     38  O          0.1650  -15.8440   37.9350 O.2    38  THR38      -0.2714
     39  CB        -1.0000  -18.1430   40.0390 C.3    38  THR38       0.1808
     40  OG1       -1.7750  -19.3620   40.0340 O.3    38  THR38      -0.2208
     41  CG2       -1.9270  -16.9610   40.1000 C.3    38  THR38       0.0379
     42  N          1.8320  -16.6790   39.2100 N.am   39  GLN39      -0.1976
     43  CA         2.6240  -15.4620   39.0530 C.3    39  GLN39       0.1601
     44  C          3.0860  -15.2730   37.6060 C.2    39  GLN39       0.2287
     45  O          3.0920  -14.1570   37.0870 O.2    39  GLN39      -0.2864
     46  CB         3.7980  -15.4320   40.0360 C.3    39  GLN39       0.0394
     47  CG         3.3290  -15.2350   41.4490 C.3    39  GLN39       0.0908
     48  CD         2.6510  -13.8830   41.6420 C.2    39  GLN39       0.2608
     49  OE1        3.1740  -12.8560   41.2140 O.2    39  GLN39      -0.2717
     50  NE2        1.4770  -13.8810   42.2730 N.am   39  GLN39      -0.0878
     51  N         -9.8630  -20.7560   40.8540 N.3    67  GLU67      -0.1245
     52  CA        -9.6640  -20.7820   42.3000 C.3    67  GLU67       0.1567
     53  C         -9.4810  -19.3840   42.8970 C.2    67  GLU67       0.2260
     54  O         -8.9670  -19.2310   44.0160 O.2    67  GLU67      -0.2867
     55  CB        -8.5060  -21.7190   42.6780 C.3    67  GLU67       0.0388
     56  CG        -8.8270  -23.2020   42.4420 C.3    67  GLU67       0.1160
     57  CD        -7.6720  -24.1300   42.7610 C.2    67  GLU67       0.3649
     58  OE1       -6.5790  -23.9500   42.1880 O.co2  67  GLU67      -0.2457
     59  OE2       -7.8610  -25.0540   43.5830 O.co2  67  GLU67      -0.2457
     60  N         -7.5800  -16.7640   42.2750 N.3    69  THR69      -0.1218
     61  CA        -6.2400  -16.2890   42.5980 C.3    69  THR69       0.1862
     62  C         -5.7970  -15.1150   41.7120 C.2    69  THR69       0.2287
     63  O         -4.7000  -14.6020   41.8700 O.2    69  THR69      -0.2866
     64  CB        -5.2020  -17.4410   42.6410 C.3    69  THR69       0.1770
     65  OG1       -5.2880  -18.2160   41.4470 O.3    69  THR69      -0.2211
     66  CG2       -5.5140  -18.3490   43.8380 C.3    69  THR69       0.0375
     67  N         -1.8950   -6.9320   41.7510 N.3    74  ARG74      -0.1245
     68  CA        -0.6360   -7.5130   41.3050 C.3    74  ARG74       0.1563
     69  C         -0.4090   -7.1560   39.8410 C.2    74  ARG74       0.2260
     70  O          0.7160   -6.9040   39.4240 O.2    74  ARG74      -0.2867
     71  CB        -0.6630   -9.0340   41.5030 C.3    74  ARG74       0.0307
     72  CG         0.5930   -9.7300   41.0690 C.3    74  ARG74       0.0489
     73  CD         1.8530   -9.1890   41.7560 C.3    74  ARG74       0.2205
     74  NE         2.9580  -10.1170   41.5340 N.pl3  74  ARG74      -0.0865
     75  CZ         4.2450   -9.7940   41.4740 C.cat  74  ARG74       0.5346
     76  NH1        4.6370   -8.5310   41.6180 N.pl3  74  ARG74       0.1354
     77  NH2        5.1430  -10.7440   41.2450 N.pl3  74  ARG74       0.1354
     78  N          0.7080   -3.5020   39.9030 N.3    77  GLU77      -0.1245
     79  CA         2.1110   -3.4380   40.3020 C.3    77  GLU77       0.1567
     80  C          3.0840   -3.8390   39.1840 C.2    77  GLU77       0.2260
     81  O          4.0470   -3.1390   38.9100 O.2    77  GLU77      -0.2867
     82  CB         2.3480   -4.2980   41.5510 C.3    77  GLU77       0.0388
     83  CG         3.8010   -4.3490   41.9830 C.3    77  GLU77       0.1160
     84  CD         4.0340   -5.2840   43.1390 C.2    77  GLU77       0.3649
     85  OE1        3.4970   -6.4080   43.1060 O.co2  77  GLU77      -0.2457
     86  OE2        4.7620   -4.8990   44.0810 O.co2  77  GLU77      -0.2457
     87  N         -6.3330  -20.7400   34.5770 N.3   131  ASP131     -0.1239
     88  CA        -5.6410  -21.0340   35.8280 C.3   131  ASP131      0.1674
     89  C         -6.7680  -21.3560   36.8120 C.2   131  ASP131      0.2266
     90  O         -7.4550  -20.4380   37.2570 O.2   131  ASP131     -0.2867
     91  CB        -4.8660  -19.7690   36.2600 C.3   131  ASP131      0.1410
     92  CG        -3.9380  -19.9900   37.4790 C.2   131  ASP131      0.3668
     93  OD1       -3.6490  -21.1440   37.8560 O.co2 131  ASP131     -0.2456
     94  OD2       -3.5150  -18.9770   38.0860 O.co2 131  ASP131     -0.2456
     95  N         -1.4660  -28.2900   38.4660 N.3   177  GLN177     -0.1245
     96  CA        -0.7700  -28.5490   39.7250 C.3   177  GLN177      0.1566
     97  C         -0.3560  -30.0020   39.9010 C.2   177  GLN177      0.2260
     98  O         -1.1670  -30.9190   39.7650 O.2   177  GLN177     -0.2867
     99  CB        -1.6320  -28.1310   40.9130 C.3   177  GLN177      0.0367
    100  CG        -0.8980  -28.1950   42.2420 C.3   177  GLN177      0.0905
    101  CD        -1.8160  -27.9230   43.4100 C.2   177  GLN177      0.2608
    102  OE1       -2.6130  -28.7810   43.7980 O.2   177  GLN177     -0.2717
    103  NE2       -1.7150  -26.7260   43.9830 N.am  177  GLN177     -0.0878
    104  N         10.5110  -24.9530   42.6780 N.3   197  LYS197     -0.1245
    105  CA        11.1500  -23.9920   43.5440 C.3   197  LYS197      0.1561
    106  C         12.5670  -24.4600   43.8100 C.2   197  LYS197      0.2260
    107  O         12.8070  -25.6450   43.9970 O.2   197  LYS197     -0.2867
    108  CB        10.3820  -23.8790   44.8550 C.3   197  LYS197      0.0271
    109  CG        10.5730  -22.5500   45.5550 C.3   197  LYS197      0.0035
    110  CD        10.1810  -22.6400   47.0220 C.3   197  LYS197      0.0206
    111  CE        10.3670  -21.3010   47.7190 C.3   197  LYS197      0.1093
    112  NZ         9.3180  -20.3200   47.3160 N.3   197  LYS197     -0.1314
    113  N         13.2290  -19.8500   40.9590 N.3   203  ARG203     -0.1245
    114  CA        12.3600  -20.8240   40.3150 C.3   203  ARG203      0.1563
    115  C         13.1180  -21.3730   39.1180 C.2   203  ARG203      0.2260
    116  O         13.8780  -20.6460   38.4770 O.2   203  ARG203     -0.2867
    117  CB        11.0500  -20.1770   39.8400 C.3   203  ARG203      0.0307
    118  CG        10.1050  -19.6580   40.9360 C.3   203  ARG203      0.0489
    119  CD         9.8890  -20.7000   42.0200 C.3   203  ARG203      0.2205
    120  NE         8.8630  -20.3340   42.9930 N.pl3 203  ARG203     -0.0865
    121  CZ         9.0480  -19.4930   44.0080 C.cat 203  ARG203      0.5346
    122  NH1       10.2220  -18.9030   44.1790 N.pl3 203  ARG203      0.1354
    123  NH2        8.0610  -19.2450   44.8590 N.pl3 203  ARG203      0.1354
    124  N         10.7010  -14.2500   41.2550 N.3   222  ILE222     -0.1231
    125  CA         9.4390  -13.5050   41.2660 C.3   222  ILE222      0.1692
    126  C          9.6580  -12.1970   42.0250 C.2   222  ILE222      0.2593
    127  O         10.1320  -12.2090   43.1630 O.2   222  ILE222     -0.2718
    128  CB         8.3260  -14.3190   41.9450 C.3   222  ILE222      0.0266
    129  CG1        8.2010  -15.6770   41.2550 C.3   222  ILE222      0.0019
    130  CG2        6.9890  -13.5790   41.9270 C.3   222  ILE222      0.0020
    131  CD1        7.2320  -16.5930   41.9310 C.3   222  ILE222      0.0001
    132  N          9.3290  -11.0680   41.4020 N.am  223  THR223     -0.1939
    133  CA         9.6770   -9.7640   41.9670 C.3   223  THR223      0.2028
    134  C          8.5480   -8.7570   41.7720 C.2   223  THR223      0.2642
    135  O          7.4300   -9.1370   41.4420 O.2   223  THR223     -0.2714
    136  CB        10.9460   -9.1850   41.2930 C.3   223  THR223      0.1808
    137  OG1       10.6310   -8.7500   39.9600 O.3   223  THR223     -0.2208
    138  CG2       12.0690  -10.2210   41.2500 C.3   223  THR223      0.0379
    139  N          8.8440   -7.4700   41.9590 N.am  224  GLU224     -0.1976
    140  CA         7.8570   -6.4360   41.6890 C.3   224  GLU224      0.1602
    141  C          7.6000   -6.2540   40.1930 C.2   224  GLU224      0.2287
    142  O          6.6390   -5.5960   39.8140 O.2   224  GLU224     -0.2864
    143  CB         8.2480   -5.0980   42.3370 C.3   224  GLU224      0.0415
    144  CG         9.3820   -4.3720   41.6590 C.3   224  GLU224      0.1163
    145  CD        10.7410   -4.9350   42.0180 C.2   224  GLU224      0.3649
    146  OE1       10.8130   -5.8140   42.9130 O.co2 224  GLU224     -0.2457
    147  OE2       11.7390   -4.4920   41.4040 O.co2 224  GLU224     -0.2457
@<TRIPOS>BOND
     1    87    88    1
     2    88    91    1
     3    88    89    1
     4    91    92    1
     5    29    28    2
     6    89    90    2
     7    45    44    2
     8    92    93   ar
     9    92    94   ar
    10    44    43    1
    11    28    27    1
    12    28    35   am
    13    27    30    1
    14    27    26    1
    15    38    37    2
    16    30    31    1
    17    31    32    1
    18    32    33    1
    19    25    24    2
    20    95    96    1
    21   116   115    2
    22    37    36    1
    23    37    42   am
    24    36    35    1
    25    36    39    1
    26    81    80    2
    27    26    24   am
    28    43    42    1
    29    43    46    1
    30   115   114    1
    31    24    23    1
    32    80    79    1
    33    33    34    1
    34    70    69    2
    35    96    97    1
    36    96    99    1
    37    98    97    2
    38   142   141    2
    39   117   114    1
    40   117   118    1
    41    69    68    1
    42    78    79    1
    43   137   136    1
    44    40    39    1
    45    46    47    1
    46    39    41    1
    47   141   140    1
    48    23    22    1
    49    79    82    1
    50   114   113    1
    51    19    18    2
    52    21    20    1
    53    51    52    1
    54    99   100    1
    55   118   119    1
    56    22    18   am
    57    72    71    1
    58    72    73    1
    59    18    17    1
    60    49    48    2
    61    77    75    1
    62   138   136    1
    63   124   125    1
    64   129   131    1
    65   129   128    1
    66   125   128    1
    67   125   126    1
    68    20    17    1
    69   136   133    1
    70    68    71    1
    71    68    67    1
    72   132   133    1
    73   132   126   am
    74   147   145   ar
    75   135   134    2
    76    65    64    1
    77    47    48    1
    78    75    74    2
    79    75    76    1
    80    74    73    1
    81    82    83    1
    82    48    50   am
    83   144   145    1
    84   144   143    1
    85   140   139    1
    86   140   143    1
    87    62    63    2
    88    62    61    1
    89   134   139   am
    90   134   133    1
    91   130   128    1
    92    83    84    1
    93   145   146   ar
    94   119   120    1
    95   126   127    2
    96    17    16    1
    97    58    57   ar
    98   100   101    1
    99    60    61    1
   100    52    55    1
   101    52    53    1
   102    56    55    1
   103    56    57    1
   104    61    64    1
   105    64    66    1
   106   104   105    1
   107    57    59   ar
   108    53    54    2
   109   120   121    2
   110    16    14   am
   111    85    84   ar
   112    84    86   ar
   113   101   102    2
   114   101   103   am
   115   105   106    1
   116   105   108    1
   117   106   107    2
   118   121   122    1
   119   121   123    1
   120    14    15    2
   121    14    13    1
   122     1     2    1
   123   108   109    1
   124     2     3    1
   125     2     5    1
   126    12    13    1
   127    12     3   am
   128     3     4    2
   129   109   110    1
   130     5     6    1
   131   110   111    1
   132   112   111    1
   133     6     8   ar
   134     6     7   ar
   135     8    10   ar
   136     7     9   ar
   137    10    11   ar
   138     9    11   ar
