@<TRIPOS>MOLECULE
tmp/4d6tC02.pdb
 180 171 0 0 0
SMALL
GASTEIGER

@<TRIPOS>ATOM
      1  N         52.7580   10.0500    4.3590 N.3    12  ALA12      -0.1231
      2  CA        53.1950   10.4250    5.6810 C.3    12  ALA12       0.1694
      3  C         52.6930    9.4560    6.7590 C.2    12  ALA12       0.2592
      4  O         52.5220    9.8420    7.9140 O.2    12  ALA12      -0.2718
      5  CB        52.7980   11.8610    5.9680 C.3    12  ALA12       0.0304
      6  N         52.4850    8.1960    6.3630 N.am   13  PHE13      -0.1976
      7  CA        52.3870    7.0520    7.3050 C.3    13  PHE13       0.1639
      8  C         53.1290    5.7630    6.8870 C.2    13  PHE13       0.2290
      9  O         53.3220    4.8780    7.7230 O.2    13  PHE13      -0.2864
     10  CB        50.9260    6.6740    7.5170 C.3    13  PHE13       0.0560
     11  CG        50.2690    7.3360    8.6900 C.ar   13  PHE13      -0.0200
     12  CD1       50.9210    8.2730    9.4840 C.ar   13  PHE13      -0.0042
     13  CD2       48.9440    7.0400    8.9710 C.ar   13  PHE13      -0.0042
     14  CE1       50.2640    8.8780   10.5400 C.ar   13  PHE13      -0.0003
     15  CE2       48.2850    7.6450   10.0250 C.ar   13  PHE13      -0.0003
     16  CZ        48.9460    8.5640   10.8090 C.ar   13  PHE13      -0.0000
     17  N         57.0240    7.4890    4.5880 N.3    16  LEU16      -0.1245
     18  CA        57.5690    8.5780    5.3860 C.3    16  LEU16       0.1561
     19  C         58.9860    8.2590    5.8510 C.2    16  LEU16       0.2260
     20  O         59.2070    7.2490    6.5010 O.2    16  LEU16      -0.2867
     21  CB        56.6310    8.8500    6.5610 C.3    16  LEU16       0.0270
     22  CG        57.1720    9.2030    7.9350 C.3    16  LEU16       0.0019
     23  CD1       57.7830   10.5920    7.9980 C.3    16  LEU16       0.0001
     24  CD2       56.0320    9.0780    8.9230 C.3    16  LEU16       0.0001
     25  N         61.8320    8.1770    8.1540 N.3    18  ALA18      -0.1231
     26  CA        61.9900    8.3240    9.5860 C.3    18  ALA18       0.1682
     27  C         63.4610    8.1430    9.9330 C.2    18  ALA18       0.2471
     28  O         64.1840    7.5070    9.1730 O.2    18  ALA18      -0.2730
     29  CB        61.1480    7.2740   10.2990 C.3    18  ALA18       0.0304
     30  N         63.9150    8.6990   11.0750 N.am   19  PRO19      -0.2506
     31  CA        65.2470    8.3530   11.5760 C.3    19  PRO19       0.1487
     32  C         65.2990    6.8770   11.9780 C.2    19  PRO19       0.2276
     33  O         64.2540    6.2980   12.3300 O.2    19  PRO19      -0.2865
     34  CB        65.4420    9.2500   12.8060 C.3    19  PRO19       0.0556
     35  CG        64.2030   10.0470   12.9740 C.2    19  PRO19      -0.0078
     36  CD        63.2100    9.6710   11.9250 C.2    19  PRO19       0.0634
     37  N         65.4100    6.5770   16.5690 N.3    22  ILE22      -0.1245
     38  CA        64.4940    7.1050   17.5860 C.3    22  ILE22       0.1561
     39  C         64.1860    5.9970   18.5550 C.2    22  ILE22       0.2260
     40  O         63.9050    4.8740   18.1280 O.2    22  ILE22      -0.2867
     41  CB        63.1630    7.6840   17.0530 C.3    22  ILE22       0.0252
     42  CG1       62.5820    6.8020   15.9400 C.3    22  ILE22       0.0019
     43  CG2       63.3730    9.1270   16.6100 C.3    22  ILE22       0.0019
     44  CD1       61.1330    7.0750   15.6300 C.3    22  ILE22       0.0001
     45  N         59.8220    8.0220   21.4440 N.3    26  TRP26      -0.1241
     46  CA        59.0770    8.4310   20.2500 C.3    26  TRP26       0.1605
     47  C         57.8330    7.5700   20.0040 C.2    26  TRP26       0.2264
     48  O         56.9860    7.9190   19.1810 O.2    26  TRP26      -0.2867
     49  CB        59.9910    8.3790   19.0240 C.3    26  TRP26       0.0550
     50  CG        60.7890    9.6150   18.8380 C.ar   26  TRP26       0.0003
     51  CD1       60.6030   10.5510   17.8880 C.ar   26  TRP26       0.0946
     52  CD2       61.8890   10.0660   19.6350 C.ar   26  TRP26       0.0152
     53  NE1       61.5210   11.5590   18.0200 N.ar   26  TRP26      -0.2442
     54  CE2       62.3180   11.2880   19.0890 C.ar   26  TRP26       0.0810
     55  CE3       62.5530    9.5570   20.7550 C.ar   26  TRP26       0.0012
     56  CZ2       63.3640   12.0090   19.6130 C.ar   26  TRP26       0.0191
     57  CZ3       63.6050   10.2760   21.2760 C.ar   26  TRP26       0.0001
     58  CH2       64.0000   11.4920   20.7050 C.ar   26  TRP26       0.0015
     59  N         53.6420    9.4560   21.0130 N.3    29  GLY29      -0.1210
     60  CA        52.6290   10.1180   20.1930 C.3    29  GLY29       0.1956
     61  C         51.5370    9.1710   19.6890 C.2    29  GLY29       0.2612
     62  O         50.3500    9.4420   19.8350 O.2    29  GLY29      -0.2717
     63  N         51.9530    8.0650   19.0810 N.am   30  SER30      -0.1952
     64  CA        51.0360    7.0240   18.5920 C.3    30  SER30       0.1924
     65  C         50.0630    6.6030   19.6900 C.2    30  SER30       0.2314
     66  O         48.8430    6.5320   19.4860 O.2    30  SER30      -0.2863
     67  CB        51.8240    5.7800   18.1360 C.3    30  SER30       0.2116
     68  OG        53.1800    6.0810   17.8570 O.3    30  SER30      -0.2180
     69  N         47.4200    8.9240   20.4230 N.3    33  GLY33      -0.1210
     70  CA        46.3670    8.7020   19.4540 C.3    33  GLY33       0.1956
     71  C         45.4700    7.5650   19.8990 C.2    33  GLY33       0.2611
     72  O         44.2610    7.7460   20.0340 O.2    33  GLY33      -0.2717
     73  N         46.0500    6.3900   20.1270 N.am   34  ILE34      -0.1979
     74  CA        45.2800    5.2800   20.6740 C.3    34  ILE34       0.1595
     75  C         44.4520    5.7190   21.8960 C.2    34  ILE34       0.2287
     76  O         43.2570    5.4300   21.9640 O.2    34  ILE34      -0.2864
     77  CB        46.1810    4.0930   21.0360 C.3    34  ILE34       0.0276
     78  CG1       46.5710    3.3170   19.7900 C.3    34  ILE34       0.0022
     79  CG2       45.4910    3.1400   21.9870 C.3    34  ILE34       0.0022
     80  CD1       48.0380    3.4300   19.4660 C.3    34  ILE34       0.0001
     81  N         43.3940    8.7250   22.7030 N.3    36  LEU36      -0.1231
     82  CA        42.3300    9.5990   22.2340 C.3    36  LEU36       0.1693
     83  C         41.1800    8.8320   21.5730 C.2    36  LEU36       0.2591
     84  O         40.0150    9.0600   21.8890 O.2    36  LEU36      -0.2718
     85  CB        42.8980   10.6120   21.2440 C.3    36  LEU36       0.0284
     86  CG        41.9530   11.7020   20.7690 C.3    36  LEU36       0.0019
     87  CD1       41.4390   12.4910   21.9530 C.3    36  LEU36       0.0001
     88  CD2       42.6710   12.6060   19.7770 C.3    36  LEU36       0.0001
     89  N         41.5140    7.9340   20.6500 N.am   37  ILE37      -0.1980
     90  CA        40.5090    7.1550   19.9500 C.3    37  ILE37       0.1595
     91  C         39.7890    6.2570   20.9350 C.2    37  ILE37       0.2287
     92  O         38.5640    6.1910   20.9310 O.2    37  ILE37      -0.2864
     93  CB        41.1310    6.3170   18.8250 C.3    37  ILE37       0.0276
     94  CG1       41.5730    7.2460   17.6820 C.3    37  ILE37       0.0022
     95  CG2       40.1490    5.2580   18.3300 C.3    37  ILE37       0.0022
     96  CD1       42.4150    6.5870   16.5930 C.3    37  ILE37       0.0001
     97  N         41.1330   16.1610   18.1870 N.3   185  MET185     -0.1245
     98  CA        41.5010   15.3570   17.0510 C.3   185  MET185      0.1570
     99  C         41.7880   16.1940   15.7890 C.2   185  MET185      0.2261
    100  O         42.5410   15.7850   14.9160 O.2   185  MET185     -0.2867
    101  CB        40.3660   14.3830   16.7930 C.3   185  MET185      0.0387
    102  CG        40.6190   13.3830   15.6910 C.3   185  MET185      0.0595
    103  SD        39.5600   11.9710   16.0150 S.3   185  MET185     -0.1393
    104  CE        40.4530   10.7040   15.1110 C.3   185  MET185      0.0692
    105  N         45.1290   17.8610   16.4900 N.3   188  ALA188     -0.1231
    106  CA        46.1630   16.8330   16.3890 C.3   188  ALA188      0.1694
    107  C         46.6520   16.6900   14.9640 C.2   188  ALA188      0.2591
    108  O         47.8560   16.6310   14.7110 O.2   188  ALA188     -0.2718
    109  CB        45.6540   15.4970   16.9020 C.3   188  ALA188      0.0304
    110  N         45.7160   16.6350   14.0260 N.am  189  MET189     -0.1979
    111  CA        46.0860   16.5020   12.6240 C.3   189  MET189      0.1605
    112  C         46.9150   17.6910   12.1530 C.2   189  MET189      0.2287
    113  O         47.8190   17.5220   11.3750 O.2   189  MET189     -0.2864
    114  CB        44.8590   16.2540   11.7500 C.3   189  MET189      0.0413
    115  CG        44.4240   14.8050   11.8020 C.3   189  MET189      0.0598
    116  SD        42.7020   14.6160   11.3430 S.3   189  MET189     -0.1393
    117  CE        42.4340   12.8470   11.5770 C.3   189  MET189      0.0692
    118  N         50.4880   17.1840   13.5800 N.3   192  LEU192     -0.1245
    119  CA        51.2470   16.3130   12.6830 C.3   192  LEU192      0.1561
    120  C         51.6100   16.9780   11.3470 C.2   192  LEU192      0.2260
    121  O         52.7210   16.8170   10.8220 O.2   192  LEU192     -0.2867
    122  CB        50.4690   15.0320   12.4130 C.3   192  LEU192      0.0270
    123  CG        50.4110   14.0850   13.6070 C.3   192  LEU192      0.0019
    124  CD1       49.4810   12.9030   13.3340 C.3   192  LEU192      0.0001
    125  CD2       51.8160   13.5990   13.9430 C.3   192  LEU192      0.0001
    126  N         54.6190   18.8090   11.9510 N.3   195  LEU195     -0.1231
    127  CA        55.7430   17.9400   12.2080 C.3   195  LEU195      0.1693
    128  C         56.2960   17.3930   10.8830 C.2   195  LEU195      0.2592
    129  O         57.4990   17.4100   10.6670 O.2   195  LEU195     -0.2718
    130  CB        55.3240   16.8010   13.1340 C.3   195  LEU195      0.0284
    131  CG        56.3840   15.7320   13.4000 C.3   195  LEU195      0.0019
    132  CD1       57.6080   16.3310   14.0780 C.3   195  LEU195      0.0001
    133  CD2       55.7630   14.6150   14.2240 C.3   195  LEU195      0.0001
    134  N         55.4260   16.9260    9.9900 N.am  196  HIS196     -0.1976
    135  CA        55.8960   16.2880    8.7620 C.3   196  HIS196      0.1656
    136  C         56.5730   17.2410    7.7980 C.2   196  HIS196      0.2291
    137  O         57.1550   16.7980    6.8200 O.2   196  HIS196     -0.2864
    138  CB        54.7770   15.5070    8.0620 C.3   196  HIS196      0.0771
    139  CG        54.5170   14.1750    8.6910 C.ar  196  HIS196      0.0820
    140  ND1       53.2500   13.6620    8.8660 N.ar  196  HIS196     -0.2267
    141  CD2       55.3670   13.2600    9.2160 C.ar  196  HIS196      0.1154
    142  CE1       53.3320   12.4790    9.4480 C.ar  196  HIS196      0.1986
    143  NE2       54.6050   12.2130    9.6730 N.ar  196  HIS196     -0.2212
    144  N         60.8450   13.7580   12.1440 N.3   200  SER200     -0.1217
    145  CA        61.0890   13.6860   13.5900 C.3   200  SER200      0.1889
    146  C         62.5180   14.0550   14.0090 C.2   200  SER200      0.2288
    147  O         63.4730   13.8720   13.2580 O.2   200  SER200     -0.2866
    148  CB        60.7230   12.2930   14.1410 C.3   200  SER200      0.2089
    149  OG        59.3480   12.2220   14.5100 O.3   200  SER200     -0.2183
    150  N         59.0270    4.4570    7.4740 N.3   215  PHE215     -0.1241
    151  CA        58.1640    4.2170    8.6010 C.3   215  PHE215      0.1605
    152  C         57.6540    2.7930    8.5930 C.2   215  PHE215      0.2264
    153  O         57.5090    2.1590    9.6360 O.2   215  PHE215     -0.2867
    154  CB        56.9560    5.1590    8.5690 C.3   215  PHE215      0.0534
    155  CG        56.1090    5.0690    9.8070 C.ar  215  PHE215     -0.0203
    156  CD1       55.7560    3.8920   10.3060 C.ar  215  PHE215     -0.0042
    157  CD2       55.7520    6.1680   10.4670 C.ar  215  PHE215     -0.0042
    158  CE1       55.0320    3.8020   11.4710 C.ar  215  PHE215     -0.0003
    159  CE2       55.0170    6.0890   11.6250 C.ar  215  PHE215     -0.0003
    160  CZ        54.6640    4.9000   12.1180 C.ar  215  PHE215     -0.0000
    161  N         58.7090    1.1000   11.9650 N.3   219  TYR219     -0.1241
    162  CA        58.0360    1.7890   13.0590 C.3   219  TYR219      0.1605
    163  C         56.5510    1.4440   13.1850 C.2   219  TYR219      0.2264
    164  O         55.9150    1.8040   14.1830 O.2   219  TYR219     -0.2867
    165  CB        58.2750    3.2950   12.9580 C.3   219  TYR219      0.0534
    166  CG        59.6840    3.5970   13.3260 C.ar  219  TYR219     -0.0201
    167  CD1       60.0930    3.5320   14.6480 C.ar  219  TYR219     -0.0009
    168  CD2       60.6300    3.8850   12.3660 C.ar  219  TYR219     -0.0009
    169  CE1       61.3990    3.7930   15.0100 C.ar  219  TYR219      0.0417
    170  CE2       61.9460    4.1420   12.7180 C.ar  219  TYR219      0.0417
    171  CZ        62.3180    4.0960   14.0400 C.ar  219  TYR219      0.1957
    172  OH        63.6140    4.3540   14.4000 O.3   219  TYR219     -0.2866
    173  N         55.5280    0.3150   16.8230 N.3   223  ASP223     -0.1239
    174  CA        54.3690    0.9550   17.4350 C.3   223  ASP223      0.1674
    175  C         53.2390   -0.0190   17.8370 C.2   223  ASP223      0.2266
    176  O         52.5770    0.1990   18.8550 O.2   223  ASP223     -0.2867
    177  CB        53.8420    2.0840   16.5320 C.3   223  ASP223      0.1410
    178  CG        54.8060    3.2750   16.4380 C.2   223  ASP223      0.3668
    179  OD1       55.8890    3.2390   17.0740 O.co2 223  ASP223     -0.2456
    180  OD2       54.4710    4.2500   15.7260 O.co2 223  ASP223     -0.2456
@<TRIPOS>BOND
     1     1     2    1
     2    17    18    1
     3    18    19    1
     4    18    21    1
     5     2     5    1
     6     2     3    1
     7    19    20    2
     8     6     3   am
     9     6     7    1
    10    21    22    1
    11     3     4    2
    12   137   136    2
    13     8     7    1
    14     8     9    2
    15     7    10    1
    16   150   151    1
    17    10    11    1
    18   136   135    1
    19    22    23    1
    20    22    24    1
    21   138   139    1
    22   138   135    1
    23    25    26    1
    24   154   151    1
    25   154   155    1
    26   152   151    1
    27   152   153    2
    28    11    13   ar
    29    11    12   ar
    30   139   140   ar
    31   139   141   ar
    32   135   134    1
    33   140   142   ar
    34    13    15   ar
    35    28    27    2
    36   141   143   ar
    37   142   143   ar
    38    12    14   ar
    39    26    27    1
    40    26    29    1
    41   155   156   ar
    42   155   157   ar
    43    27    30   am
    44   134   128   am
    45    15    16   ar
    46   156   158   ar
    47   157   159   ar
    48    14    16   ar
    49   129   128    2
    50   121   120    2
    51   128   127    1
    52    30    31    1
    53    30    36    1
    54   116   117    1
    55   116   115    1
    56   120   119    1
    57   113   112    2
    58   158   160   ar
    59    31    32    1
    60    31    34    1
    61   159   160   ar
    62   114   115    1
    63   114   111    1
    64    36    35    2
    65   126   127    1
    66   161   162    1
    67    32    33    2
    68   144   145    1
    69   112   111    1
    70   127   130    1
    71   168   170   ar
    72   168   166   ar
    73   122   119    1
    74   122   123    1
    75   111   110    1
    76   119   118    1
    77   170   171   ar
    78    34    35    1
    79   165   162    1
    80   165   166    1
    81   162   163    1
    82   130   131    1
    83   163   164    2
    84   147   146    2
    85   166   167   ar
    86   124   123    1
    87   131   132    1
    88   131   133    1
    89   145   146    1
    90   145   148    1
    91   123   125    1
    92   110   107   am
    93   171   172    1
    94   171   169   ar
    95   148   149    1
    96   167   169   ar
    97   108   107    2
    98   100    99    2
    99   107   106    1
   100   104   103    1
   101    44    42    1
   102   102   103    1
   103   102   101    1
   104   180   178   ar
   105    99    98    1
   106    42    41    1
   107   106   105    1
   108   106   109    1
   109   178   177    1
   110   178   179   ar
   111   177   174    1
   112    37    38    1
   113    96    94    1
   114    43    41    1
   115   101    98    1
   116   173   174    1
   117    98    97    1
   118    41    38    1
   119   174   175    1
   120    38    39    1
   121    94    93    1
   122   175   176    2
   123    68    67    1
   124    51    53   ar
   125    51    50   ar
   126    53    54   ar
   127    40    39    2
   128    67    64    1
   129    95    93    1
   130    64    63    1
   131    64    65    1
   132    93    90    1
   133    50    49    1
   134    50    52   ar
   135    49    46    1
   136    63    61   am
   137    54    56   ar
   138    54    52   ar
   139    48    47    2
   140    70    71    1
   141    70    69    1
   142    80    78    1
   143    66    65    2
   144    56    58   ar
   145    52    55   ar
   146    61    62    2
   147    61    60    1
   148    88    86    1
   149    78    77    1
   150    71    72    2
   151    71    73   am
   152    90    89    1
   153    90    91    1
   154    47    46    1
   155    73    74    1
   156    60    59    1
   157    46    45    1
   158    89    83   am
   159    74    77    1
   160    74    75    1
   161    58    57   ar
   162    55    57   ar
   163    86    85    1
   164    86    87    1
   165    92    91    2
   166    77    79    1
   167    85    82    1
   168    83    84    2
   169    83    82    1
   170    75    76    2
   171    82    81    1
