@<TRIPOS>MOLECULE
tmp/4d6zA01.pdb
 170 164 0 0 0
SMALL
GASTEIGER

@<TRIPOS>ATOM
      1  N         22.3290   40.2440   -8.3910 N.3    77  ARG77      -0.1231
      2  CA        21.2090   40.0650   -9.3070 C.3    77  ARG77       0.1694
      3  C         20.0850   41.0200   -8.9590 C.2    77  ARG77       0.2591
      4  O         20.1310   41.7290   -7.9540 O.2    77  ARG77      -0.2718
      5  CB        20.7110   38.6150   -9.2900 C.3    77  ARG77       0.0321
      6  CG        21.8020   37.6330   -9.7160 C.3    77  ARG77       0.0489
      7  CD        21.2890   36.2290  -10.0210 C.3    77  ARG77       0.2205
      8  NE        22.3760   35.4110  -10.5620 N.pl3  77  ARG77      -0.0865
      9  CZ        23.1830   34.6760   -9.8080 C.cat  77  ARG77       0.5346
     10  NH1       23.0120   34.6600   -8.4960 N.pl3  77  ARG77       0.1354
     11  NH2       24.1680   33.9720  -10.3590 N.pl3  77  ARG77       0.1354
     12  N         19.0770   41.0420   -9.8160 N.am   78  ARG78      -0.1980
     13  CA        17.8930   41.8500   -9.5800 C.3    78  ARG78       0.1597
     14  C         17.0750   41.2680   -8.4190 C.2    78  ARG78       0.2287
     15  O         16.8490   40.0600   -8.3800 O.2    78  ARG78      -0.2864
     16  CB        17.0500   41.8890  -10.8570 C.3    78  ARG78       0.0334
     17  CG        16.1440   43.0810  -10.9650 C.3    78  ARG78       0.0492
     18  CD        15.0340   42.8450  -11.9740 C.3    78  ARG78       0.2205
     19  NE        15.4970   42.4140  -13.3000 N.pl3  78  ARG78      -0.0865
     20  CZ        14.7990   42.6450  -14.4050 C.cat  78  ARG78       0.5346
     21  NH1       13.6630   43.3270  -14.3180 N.pl3  78  ARG78       0.1354
     22  NH2       15.2380   42.2450  -15.5850 N.pl3  78  ARG78       0.1354
     23  N         13.5060   40.3580   -6.6710 N.3    80  PHE80      -0.1241
     24  CA        12.3740   39.8800   -7.4920 C.3    80  PHE80       0.1605
     25  C         11.0030   39.6300   -6.8360 C.2    80  PHE80       0.2264
     26  O         10.0570   39.2040   -7.5150 O.2    80  PHE80      -0.2867
     27  CB        12.7830   38.5940   -8.2070 C.3    80  PHE80       0.0534
     28  CG        13.0770   37.4380   -7.2890 C.ar   80  PHE80      -0.0203
     29  CD1       14.3390   37.2760   -6.7430 C.ar   80  PHE80      -0.0042
     30  CD2       12.1050   36.4890   -7.0110 C.ar   80  PHE80      -0.0042
     31  CE1       14.6150   36.2020   -5.9190 C.ar   80  PHE80      -0.0003
     32  CE2       12.3770   35.4160   -6.1960 C.ar   80  PHE80      -0.0003
     33  CZ        13.6310   35.2710   -5.6480 C.ar   80  PHE80      -0.0000
     34  N         22.0330   32.5190   -3.9280 N.3    91  SER91      -0.1202
     35  CA        21.6450   33.0870   -5.2120 C.3    91  SER91       0.2020
     36  C         20.9370   34.4370   -5.0720 C.2    91  SER91       0.2618
     37  O         20.8820   35.2210   -6.0210 O.2    91  SER91      -0.2717
     38  CB        20.7350   32.1020   -5.9460 C.3    91  SER91       0.2103
     39  OG        19.6320   31.7970   -5.1140 O.3    91  SER91      -0.2182
     40  N         20.4050   34.6930   -3.8870 N.am   92  ILE92      -0.1979
     41  CA        19.6140   35.8800   -3.6010 C.3    92  ILE92       0.1595
     42  C         20.4230   36.8670   -2.7500 C.2    92  ILE92       0.2287
     43  O         20.1650   38.0720   -2.7510 O.2    92  ILE92      -0.2864
     44  CB        18.2930   35.4760   -2.8760 C.3    92  ILE92       0.0276
     45  CG1       17.4730   34.5280   -3.7670 C.3    92  ILE92       0.0022
     46  CG2       17.4540   36.6800   -2.5190 C.3    92  ILE92       0.0022
     47  CD1       16.4200   33.7210   -3.0090 C.3    92  ILE92       0.0001
     48  N         10.5440   26.0600  -10.5680 N.3   184  ARG184     -0.1231
     49  CA        11.0740   27.3560  -10.9970 C.3   184  ARG184      0.1694
     50  C          9.9590   28.3940  -11.0450 C.2   184  ARG184      0.2592
     51  O          8.7990   28.0510  -11.2780 O.2   184  ARG184     -0.2718
     52  CB        11.7390   27.2440  -12.3760 C.3   184  ARG184      0.0321
     53  CG        12.6250   26.0270  -12.5370 C.3   184  ARG184      0.0489
     54  CD        13.0950   25.8480  -13.9860 C.3   184  ARG184      0.2205
     55  NE        12.1150   25.1660  -14.8310 N.pl3 184  ARG184     -0.0865
     56  CZ        12.2790   24.9260  -16.1310 C.cat 184  ARG184      0.5346
     57  NH1       13.3830   25.3220  -16.7520 N.pl3 184  ARG184      0.1354
     58  NH2       11.3340   24.2930  -16.8140 N.pl3 184  ARG184      0.1354
     59  N         10.3080   29.6550  -10.8120 N.am  185  PHE185     -0.1976
     60  CA         9.3280   30.7450  -10.8610 C.3   185  PHE185      0.1639
     61  C          9.0440   31.1220  -12.3020 C.2   185  PHE185      0.2290
     62  O          9.9730   31.2390  -13.0930 O.2   185  PHE185     -0.2864
     63  CB         9.8400   31.9840  -10.1150 C.3   185  PHE185      0.0560
     64  CG        10.0140   31.7770   -8.6410 C.ar  185  PHE185     -0.0200
     65  CD1        8.9730   31.3010   -7.8670 C.ar  185  PHE185     -0.0042
     66  CD2       11.2200   32.0740   -8.0330 C.ar  185  PHE185     -0.0042
     67  CE1        9.1370   31.1040   -6.5170 C.ar  185  PHE185     -0.0003
     68  CE2       11.3900   31.8770   -6.6860 C.ar  185  PHE185     -0.0003
     69  CZ        10.3550   31.3940   -5.9260 C.ar  185  PHE185     -0.0000
     70  N          8.2320   34.1370  -14.2150 N.3   187  PHE187     -0.1241
     71  CA         8.2190   35.5800  -13.9620 C.3   187  PHE187      0.1605
     72  C          7.2760   36.3520  -14.8840 C.2   187  PHE187      0.2264
     73  O          7.1160   37.5630  -14.7460 O.2   187  PHE187     -0.2867
     74  CB         9.6370   36.1350  -14.0400 C.3   187  PHE187      0.0534
     75  CG        10.4790   35.7550  -12.8600 C.ar  187  PHE187     -0.0203
     76  CD1       10.1800   36.2460  -11.5980 C.ar  187  PHE187     -0.0042
     77  CD2       11.5440   34.8830  -12.9950 C.ar  187  PHE187     -0.0042
     78  CE1       10.9410   35.8900  -10.4950 C.ar  187  PHE187     -0.0003
     79  CE2       12.3060   34.5230  -11.8950 C.ar  187  PHE187     -0.0003
     80  CZ        12.0000   35.0310  -10.6430 C.ar  187  PHE187     -0.0000
     81  N          8.4210   31.6480   -1.9370 N.3   213  PHE213     -0.1241
     82  CA         8.6640   30.2540   -1.5940 C.3   213  PHE213      0.1605
     83  C          7.5580   29.8400   -0.6160 C.2   213  PHE213      0.2264
     84  O          7.3370   30.5140    0.3810 O.2   213  PHE213     -0.2867
     85  CB        10.0480   30.0580   -0.9670 C.3   213  PHE213      0.0534
     86  CG        11.2020   30.3500   -1.9060 C.ar  213  PHE213     -0.0203
     87  CD1       11.6830   29.3690   -2.7650 C.ar  213  PHE213     -0.0042
     88  CD2       11.8100   31.5930   -1.9100 C.ar  213  PHE213     -0.0042
     89  CE1       12.7410   29.6290   -3.6290 C.ar  213  PHE213     -0.0003
     90  CE2       12.8660   31.8640   -2.7680 C.ar  213  PHE213     -0.0003
     91  CZ        13.3360   30.8820   -3.6320 C.ar  213  PHE213     -0.0000
     92  N         17.5360   26.2230   -1.4640 N.3   264  ILE264     -0.1245
     93  CA        17.8620   26.7880   -2.7630 C.3   264  ILE264      0.1561
     94  C         18.5140   25.7190   -3.6450 C.2   264  ILE264      0.2260
     95  O         18.3470   25.7440   -4.8620 O.2   264  ILE264     -0.2867
     96  CB        18.7790   28.0490   -2.6360 C.3   264  ILE264      0.0252
     97  CG1       18.5640   29.0090   -3.8190 C.3   264  ILE264      0.0019
     98  CG2       20.2540   27.6730   -2.4780 C.3   264  ILE264      0.0019
     99  CD1       17.2070   29.6960   -3.8230 C.3   264  ILE264      0.0001
    100  N         15.6590   23.7610   -5.0690 N.3   267  PHE267     -0.1227
    101  CA        15.0480   24.6440   -6.0470 C.3   267  PHE267      0.1736
    102  C         15.9160   24.8090   -7.3070 C.2   267  PHE267      0.2595
    103  O         15.4060   24.8220   -8.4420 O.2   267  PHE267     -0.2718
    104  CB        14.7740   25.9890   -5.3760 C.3   267  PHE267      0.0547
    105  CG        14.2530   27.0270   -6.2980 C.ar  267  PHE267     -0.0202
    106  CD1       12.9000   27.0920   -6.5950 C.ar  267  PHE267     -0.0042
    107  CD2       15.1100   27.9610   -6.8550 C.ar  267  PHE267     -0.0042
    108  CE1       12.4140   28.0630   -7.4520 C.ar  267  PHE267     -0.0003
    109  CE2       14.6310   28.9370   -7.7110 C.ar  267  PHE267     -0.0003
    110  CZ        13.2820   28.9890   -8.0110 C.ar  267  PHE267     -0.0000
    111  N         17.2310   24.9150   -7.1210 N.am  268  ALA268     -0.1980
    112  CA        18.1350   25.0720   -8.2620 C.3   268  ALA268      0.1597
    113  C         18.2280   23.8080   -9.1040 C.2   268  ALA268      0.2287
    114  O         18.3100   23.8830  -10.3300 O.2   268  ALA268     -0.2864
    115  CB        19.5300   25.4690   -7.8010 C.3   268  ALA268      0.0319
    116  N         15.3830   22.0090  -13.2840 N.3   272  THR272     -0.1218
    117  CA        16.4210   22.3160  -14.2610 C.3   272  THR272      0.1862
    118  C         17.0250   21.0140  -14.8190 C.2   272  THR272      0.2287
    119  O         17.1350   20.8270  -16.0310 O.2   272  THR272     -0.2866
    120  CB        17.5320   23.1690  -13.6350 C.3   272  THR272      0.1770
    121  OG1       18.0860   22.4670  -12.5140 O.3   272  THR272     -0.2211
    122  CG2       16.9700   24.5190  -13.1660 C.3   272  THR272      0.0375
    123  N         18.4570   27.1060  -20.1950 N.3   332  ILE332     -0.1231
    124  CA        17.2420   27.3300  -19.4340 C.3   332  ILE332      0.1692
    125  C         17.2590   28.5580  -18.5010 C.2   332  ILE332      0.2592
    126  O         16.1860   29.0040  -18.1270 O.2   332  ILE332     -0.2718
    127  CB        16.8800   26.0930  -18.6040 C.3   332  ILE332      0.0266
    128  CG1       18.0620   25.6960  -17.7280 C.3   332  ILE332      0.0019
    129  CG2       16.4400   24.9210  -19.5390 C.3   332  ILE332      0.0020
    130  CD1       17.8280   24.4440  -16.9560 C.3   332  ILE332      0.0001
    131  N         18.4180   29.1200  -18.1400 N.am  333  ALA333     -0.1966
    132  CA        18.3950   30.4240  -17.4220 C.3   333  ALA333      0.1728
    133  C         17.9040   31.5940  -18.2940 C.2   333  ALA333      0.2616
    134  O         17.3870   32.5900  -17.7710 O.2   333  ALA333     -0.2715
    135  CB        19.7390   30.7600  -16.8660 C.3   333  ALA333      0.0334
    136  N         18.0790   31.4330  -19.6080 N.am  334  MET334     -0.1963
    137  CA        17.6470   32.3720  -20.6550 C.3   334  MET334      0.1736
    138  C         18.4130   33.6860  -20.6900 C.2   334  MET334      0.2616
    139  O         18.8250   34.1330  -21.7640 O.2   334  MET334     -0.2715
    140  CB        16.1510   32.6600  -20.5370 C.3   334  MET334      0.0427
    141  CG        15.3080   31.4480  -20.9020 C.3   334  MET334      0.0599
    142  SD        13.5660   31.8130  -20.7720 S.3   334  MET334     -0.1393
    143  CE        13.4310   32.0270  -18.9950 C.3   334  MET334      0.0692
    144  N         18.6130   34.2880  -19.5290 N.am  335  ARG335     -0.1963
    145  CA        19.3100   35.5710  -19.3920 C.3   335  ARG335      0.1729
    146  C         20.2040   35.5080  -18.1860 C.2   335  ARG335      0.2616
    147  O         19.8630   34.8240  -17.2120 O.2   335  ARG335     -0.2715
    148  CB        18.3370   36.7390  -19.1670 C.3   335  ARG335      0.0348
    149  CG        17.4000   37.0530  -20.2670 C.3   335  ARG335      0.0492
    150  CD        16.2560   37.9080  -19.7210 C.3   335  ARG335      0.2205
    151  NE        15.5550   38.5690  -20.8120 N.pl3 335  ARG335     -0.0865
    152  CZ        14.6490   39.5230  -20.6450 C.cat 335  ARG335      0.5346
    153  NH1       14.3240   39.9240  -19.4250 N.pl3 335  ARG335      0.1354
    154  NH2       14.0620   40.0670  -21.6970 N.pl3 335  ARG335      0.1354
    155  N         21.3070   36.2540  -18.2220 N.am  336  LEU336     -0.1977
    156  CA        22.0920   36.5430  -17.0250 C.3   336  LEU336      0.1596
    157  C         21.8790   38.0120  -16.6660 C.2   336  LEU336      0.2287
    158  O         21.7360   38.8400  -17.5540 O.2   336  LEU336     -0.2864
    159  CB        23.5820   36.2740  -17.2500 C.3   336  LEU336      0.0297
    160  CG        23.9840   34.9770  -17.9510 C.3   336  LEU336      0.0022
    161  CD1       25.4880   34.9990  -18.2880 C.3   336  LEU336      0.0001
    162  CD2       23.6210   33.7670  -17.0630 C.3   336  LEU336      0.0001
    163  N          9.1160   30.4460  -18.7430 N.3   445  LEU445     -0.1245
    164  CA        10.0790   29.3410  -18.5800 C.3   445  LEU445      0.1561
    165  C         10.4550   28.7340  -19.9290 C.2   445  LEU445      0.2260
    166  O          9.5860   28.5110  -20.7770 O.2   445  LEU445     -0.2867
    167  CB         9.5070   28.2330  -17.6760 C.3   445  LEU445      0.0270
    168  CG         9.1740   28.6420  -16.2340 C.3   445  LEU445      0.0019
    169  CD1        8.8430   27.4330  -15.4020 C.3   445  LEU445      0.0001
    170  CD2       10.3070   29.4250  -15.6050 C.3   445  LEU445      0.0001
@<TRIPOS>BOND
     1   139   138    2
     2   154   152    1
     3   141   142    1
     4   141   140    1
     5   151   152    2
     6   151   150    1
     7   166   165    2
     8   142   143    1
     9   138   137    1
    10   138   144   am
    11   137   140    1
    12   137   136    1
    13   152   153    1
    14   149   150    1
    15   149   148    1
    16   123   124    1
    17   165   164    1
    18   136   133   am
    19   129   127    1
    20   144   145    1
    21   124   127    1
    22   124   125    1
    23   145   148    1
    24   145   146    1
    25   163   164    1
    26   127   128    1
    27   164   167    1
    28   125   131   am
    29   125   126    2
    30   133   134    2
    31   133   132    1
    32   161   160    1
    33   155   146   am
    34   155   156    1
    35   146   147    2
    36   131   132    1
    37   160   159    1
    38   160   162    1
    39   128   130    1
    40   167   168    1
    41   158   157    2
    42   132   135    1
    43   159   156    1
    44   156   157    1
    45    58    56    1
    46    57    56    1
    47   168   170    1
    48   168   169    1
    49    56    55    2
    50   119   118    2
    51    22    20    1
    52    72    73    2
    53    72    71    1
    54    55    54    1
    55   118   117    1
    56    20    21    1
    57    20    19    2
    58   117   120    1
    59   117   116    1
    60    70    71    1
    61    74    71    1
    62    74    75    1
    63    54    53    1
    64   120   122    1
    65   120   121    1
    66    19    18    1
    67    62    61    2
    68    77    75   ar
    69    77    79   ar
    70    75    76   ar
    71    53    52    1
    72    52    49    1
    73    61    60    1
    74    18    17    1
    75    79    80   ar
    76    76    78   ar
    77    51    50    2
    78    50    49    1
    79    50    59   am
    80    49    48    1
    81    17    16    1
    82    60    59    1
    83    60    63    1
    84    16    13    1
    85    80    78   ar
    86     8     7    1
    87     8     9    2
    88    11     9    1
    89   114   113    2
    90    63    64    1
    91     7     6    1
    92    12    13    1
    93    12     3   am
    94     9    10    1
    95     6     5    1
    96    13    14    1
    97     2     5    1
    98     2     3    1
    99     2     1    1
   100   113   112    1
   101     3     4    2
   102    64    66   ar
   103    64    65   ar
   104   103   102    2
   105    14    15    2
   106   112   115    1
   107   112   111    1
   108    27    24    1
   109    27    28    1
   110    66    68   ar
   111   110   109   ar
   112   110   108   ar
   113    65    67   ar
   114   109   107   ar
   115    26    25    2
   116    24    25    1
   117    24    23    1
   118   108   106   ar
   119   102   111   am
   120   102   101    1
   121    28    30   ar
   122    28    29   ar
   123    30    32   ar
   124   107   105   ar
   125    29    31   ar
   126    68    69   ar
   127   106   105   ar
   128    67    69   ar
   129   105   104    1
   130    32    33   ar
   131   101   104    1
   132   101   100    1
   133    37    36    2
   134    38    35    1
   135    38    39    1
   136    31    33   ar
   137    35    36    1
   138    35    34    1
   139    36    40   am
   140    95    94    2
   141    40    41    1
   142    99    97    1
   143    97    96    1
   144    45    47    1
   145    45    44    1
   146    94    93    1
   147    91    89   ar
   148    91    90   ar
   149    89    87   ar
   150    41    44    1
   151    41    42    1
   152    44    46    1
   153    90    88   ar
   154    87    86   ar
   155    93    96    1
   156    93    92    1
   157    43    42    2
   158    96    98    1
   159    81    82    1
   160    88    86   ar
   161    86    85    1
   162    82    85    1
   163    82    83    1
   164    83    84    2
