@<TRIPOS>MOLECULE
tmp/4d71A00.pdb
 167 164 0 0 0
SMALL
GASTEIGER

@<TRIPOS>ATOM
      1  N          6.7560   28.3370   -8.0100 N.3    20  TYR20      -0.1241
      2  CA         6.2870   29.5830   -7.3940 C.3    20  TYR20       0.1605
      3  C          5.0870   30.1460   -8.1430 C.2    20  TYR20       0.2264
      4  O          5.1890   30.4310   -9.3400 O.2    20  TYR20      -0.2867
      5  CB         7.4170   30.6350   -7.3990 C.3    20  TYR20       0.0534
      6  CG         8.4140   30.5160   -6.2650 C.ar   20  TYR20      -0.0201
      7  CD1        9.0700   29.3020   -5.9850 C.ar   20  TYR20      -0.0009
      8  CD2        8.6990   31.6180   -5.4720 C.ar   20  TYR20      -0.0009
      9  CE1        9.9900   29.2080   -4.9260 C.ar   20  TYR20       0.0417
     10  CE2        9.6190   31.5430   -4.4340 C.ar   20  TYR20       0.0417
     11  CZ        10.2620   30.3440   -4.1760 C.ar   20  TYR20       0.1957
     12  OH        11.1480   30.2950   -3.1360 O.3    20  TYR20      -0.2866
     13  N          4.8050   27.0800   -3.7850 N.3    59  HIS59      -0.1241
     14  CA         5.1030   28.3080   -3.0300 C.3    59  HIS59       0.1621
     15  C          4.1420   29.3710   -3.5400 C.2    59  HIS59       0.2264
     16  O          3.9710   29.5050   -4.7610 O.2    59  HIS59      -0.2867
     17  CB         6.5560   28.7260   -3.2790 C.3    59  HIS59       0.0745
     18  CG         7.0590   29.8160   -2.3750 C.ar   59  HIS59       0.0817
     19  ND1        6.6150   31.1220   -2.4520 N.ar   59  HIS59      -0.2268
     20  CD2        8.0340   29.8070   -1.4360 C.ar   59  HIS59       0.1154
     21  CE1        7.2720   31.8630   -1.5740 C.ar   59  HIS59       0.1986
     22  NE2        8.1490   31.0900   -0.9510 N.ar   59  HIS59      -0.2212
     23  N          4.2770   32.6210   -3.4830 N.3    61  ASP61      -0.1239
     24  CA         4.9650   33.8200   -4.0200 C.3    61  ASP61       0.1674
     25  C          4.1160   35.0950   -3.9290 C.2    61  ASP61       0.2266
     26  O          3.7940   35.5100   -2.8210 O.2    61  ASP61      -0.2867
     27  CB         5.4640   33.5550   -5.4470 C.3    61  ASP61       0.1410
     28  CG         6.6040   34.4780   -5.8750 C.2    61  ASP61       0.3668
     29  OD1        7.0780   35.3160   -5.0750 O.co2  61  ASP61      -0.2456
     30  OD2        7.0450   34.3330   -7.0360 O.co2  61  ASP61      -0.2456
     31  N          5.7070   31.7220    5.7200 N.3   103  THR103     -0.1203
     32  CA         6.8910   32.4590    5.2410 C.3   103  THR103      0.1994
     33  C          6.7320   33.9360    5.6210 C.2   103  THR103      0.2617
     34  O          5.5950   34.4210    5.8030 O.2   103  THR103     -0.2717
     35  CB         7.1160   32.2560    3.7040 C.3   103  THR103      0.1784
     36  OG1        8.4200   32.7290    3.3410 O.3   103  THR103     -0.2211
     37  CG2        6.0580   32.9990    2.8700 C.3   103  THR103      0.0376
     38  N          7.8530   34.6460    5.7960 N.am  104  ALA104     -0.1979
     39  CA         7.8060   36.0660    6.1550 C.3   104  ALA104      0.1597
     40  C          6.8900   36.3330    7.3630 C.2   104  ALA104      0.2287
     41  O          6.1350   37.3200    7.3790 O.2   104  ALA104     -0.2864
     42  CB         7.3700   36.9140    4.9340 C.3   104  ALA104      0.0319
     43  N          2.8070   40.7010    3.8210 N.3   110  TYR110     -0.1241
     44  CA         3.8980   39.9950    3.1170 C.3   110  TYR110      0.1605
     45  C          3.5030   38.7740    2.2980 C.2   110  TYR110      0.2264
     46  O          4.1650   38.4800    1.3070 O.2   110  TYR110     -0.2867
     47  CB         5.0020   39.5470    4.0840 C.3   110  TYR110      0.0534
     48  CG         5.8720   40.6670    4.6310 C.ar  110  TYR110     -0.0201
     49  CD1        6.1780   41.8040    3.8580 C.ar  110  TYR110     -0.0009
     50  CD2        6.4330   40.5620    5.9040 C.ar  110  TYR110     -0.0009
     51  CE1        6.9830   42.8340    4.3700 C.ar  110  TYR110      0.0417
     52  CE2        7.2350   41.5880    6.4300 C.ar  110  TYR110      0.0417
     53  CZ         7.5080   42.7100    5.6590 C.ar  110  TYR110      0.1957
     54  OH         8.3040   43.7030    6.1980 O.3   110  TYR110     -0.2866
     55  N          9.4080   28.6940    5.6100 N.3   137  THR137     -0.1203
     56  CA        10.6810   29.2030    5.0950 C.3   137  THR137      0.1994
     57  C         10.8810   30.7050    5.2700 C.2   137  THR137      0.2617
     58  O          9.9710   31.5180    4.9980 O.2   137  THR137     -0.2717
     59  CB        10.9220   28.7800    3.5970 C.3   137  THR137      0.1784
     60  OG1       12.1920   29.2730    3.1650 O.3   137  THR137     -0.2211
     61  CG2        9.8450   29.3560    2.6750 C.3   137  THR137      0.0376
     62  N         12.0710   31.0650    5.7520 N.am  138  ALA138     -0.1979
     63  CA        12.5260   32.4630    5.7210 C.3   138  ALA138      0.1597
     64  C         11.6660   33.4450    6.5210 C.2   138  ALA138      0.2287
     65  O         11.1070   34.4090    5.9720 O.2   138  ALA138     -0.2864
     66  CB        12.7120   32.9530    4.2670 C.3   138  ALA138      0.0319
     67  N         13.3890   34.4160    9.5000 N.3   140  TYR140     -0.1227
     68  CA        14.4690   34.9000   10.3860 C.3   140  TYR140      0.1736
     69  C         14.4970   36.4260   10.4680 C.2   140  TYR140      0.2595
     70  O         14.8820   36.9910   11.5030 O.2   140  TYR140     -0.2718
     71  CB        15.8550   34.4050    9.9350 C.3   140  TYR140      0.0548
     72  CG        16.1610   34.6920    8.4770 C.ar  140  TYR140     -0.0200
     73  CD1       16.6600   35.9320    8.0690 C.ar  140  TYR140     -0.0009
     74  CD2       15.9420   33.7100    7.5090 C.ar  140  TYR140     -0.0009
     75  CE1       16.9250   36.1980    6.7200 C.ar  140  TYR140      0.0417
     76  CE2       16.1970   33.9570    6.1680 C.ar  140  TYR140      0.0417
     77  CZ        16.6880   35.1920    5.7800 C.ar  140  TYR140      0.1957
     78  OH        16.9390   35.4000    4.4450 O.3   140  TYR140     -0.2866
     79  N         14.1060   37.0810    9.3740 N.am  141  TRP141     -0.1976
     80  CA        14.1100   38.5450    9.2730 C.3   141  TRP141      0.1640
     81  C         12.8050   39.2090    9.7620 C.2   141  TRP141      0.2290
     82  O         12.7110   40.4440    9.8160 O.2   141  TRP141     -0.2864
     83  CB        14.4310   38.9880    7.8410 C.3   141  TRP141      0.0576
     84  CG        13.4650   38.4400    6.8520 C.ar  141  TRP141      0.0006
     85  CD1       13.5000   37.2000    6.2640 C.ar  141  TRP141      0.0946
     86  CD2       12.2870   39.0850    6.3670 C.ar  141  TRP141      0.0152
     87  NE1       12.4180   37.0520    5.4160 N.ar  141  TRP141     -0.2442
     88  CE2       11.6630   38.1950    5.4620 C.ar  141  TRP141      0.0810
     89  CE3       11.7080   40.3440    6.5900 C.ar  141  TRP141      0.0012
     90  CZ2       10.4700   38.5130    4.7960 C.ar  141  TRP141      0.0191
     91  CZ3       10.5300   40.6630    5.9240 C.ar  141  TRP141      0.0001
     92  CH2        9.9200   39.7540    5.0390 C.ar  141  TRP141      0.0015
     93  N         18.9310   27.9750    5.5910 N.3   204  LYS204     -0.1245
     94  CA        18.5620   28.7240    4.3900 C.3   204  LYS204      0.1561
     95  C         19.6120   29.8010    4.1870 C.2   204  LYS204      0.2260
     96  O         19.6150   30.8160    4.8880 O.2   204  LYS204     -0.2867
     97  CB        17.1470   29.3180    4.4900 C.3   204  LYS204      0.0271
     98  CG        16.7670   30.0230    3.1660 C.3   204  LYS204      0.0035
     99  CD        15.4340   30.6890    3.2330 C.3   204  LYS204      0.0206
    100  CE        14.8540   30.9510    1.8430 C.3   204  LYS204      0.1093
    101  NZ        15.3910   32.2000    1.1900 N.3   204  LYS204     -0.1314
    102  N         20.5270   32.1410    2.1570 N.3   206  THR206     -0.1204
    103  CA        20.2130   33.4720    1.5910 C.3   206  THR206      0.1979
    104  C         20.8850   34.7040    2.2430 C.2   206  THR206      0.2459
    105  O         21.5660   35.4590    1.5420 O.2   206  THR206     -0.2732
    106  CB        18.7010   33.7060    1.5710 C.3   206  THR206      0.1783
    107  OG1       18.0640   32.5730    0.9860 O.3   206  THR206     -0.2211
    108  CG2       18.3470   34.9660    0.7540 C.3   206  THR206      0.0376
    109  N         20.6950   34.9230    3.5620 N.am  207  PRO207     -0.2728
    110  CA        21.1470   36.2130    4.1210 C.3   207  PRO207      0.1401
    111  C         22.6590   36.2260    4.3810 C.2   207  PRO207      0.2269
    112  O         23.1170   36.3800    5.5110 O.2   207  PRO207     -0.2865
    113  CB        20.3620   36.3040    5.4290 C.3   207  PRO207      0.0296
    114  CG        20.2700   34.8610    5.8660 C.3   207  PRO207      0.0237
    115  CD        20.1490   34.0430    4.6180 C.3   207  PRO207      0.0939
    116  N         21.1840   29.0570   -1.9280 N.3   237  ASP237     -0.1239
    117  CA        20.5150   30.1530   -2.6250 C.3   237  ASP237      0.1674
    118  C         21.4680   31.0420   -3.3870 C.2   237  ASP237      0.2266
    119  O         22.3310   31.6900   -2.7920 O.2   237  ASP237     -0.2867
    120  CB        19.6960   30.9800   -1.6200 C.3   237  ASP237      0.1410
    121  CG        18.8200   32.0240   -2.2970 C.2   237  ASP237      0.3668
    122  OD1       18.8700   32.1420   -3.5420 O.co2 237  ASP237     -0.2456
    123  OD2       18.0660   32.7140   -1.5690 O.co2 237  ASP237     -0.2456
    124  N         20.8860   33.8500   -4.5830 N.3   239  TRP239     -0.1241
    125  CA        20.6930   35.2320   -4.1360 C.3   239  TRP239      0.1605
    126  C         21.7820   35.6540   -3.1370 C.2   239  TRP239      0.2264
    127  O         21.8910   36.8230   -2.8280 O.2   239  TRP239     -0.2867
    128  CB        19.3260   35.4180   -3.4530 C.3   239  TRP239      0.0550
    129  CG        18.1110   35.5460   -4.3650 C.ar  239  TRP239      0.0003
    130  CD1       17.2180   34.5540   -4.6960 C.ar  239  TRP239      0.0946
    131  CD2       17.6380   36.7390   -4.9950 C.ar  239  TRP239      0.0152
    132  NE1       16.2190   35.0660   -5.5020 N.ar  239  TRP239     -0.2442
    133  CE2       16.4550   36.4050   -5.6980 C.ar  239  TRP239      0.0810
    134  CE3       18.0930   38.0660   -5.0280 C.ar  239  TRP239      0.0012
    135  CZ2       15.7230   37.3510   -6.4250 C.ar  239  TRP239      0.0191
    136  CZ3       17.3570   39.0170   -5.7600 C.ar  239  TRP239      0.0001
    137  CH2       16.1750   38.6510   -6.4320 C.ar  239  TRP239      0.0015
    138  N         23.7660   38.5170   -4.4760 N.3   242  TYR242     -0.1227
    139  CA        23.0950   39.8080   -4.2590 C.3   242  TYR242      0.1736
    140  C         23.2980   40.3240   -2.8350 C.2   242  TYR242      0.2595
    141  O         23.7330   41.4730   -2.6610 O.2   242  TYR242     -0.2718
    142  CB        21.6140   39.6310   -4.5630 C.3   242  TYR242      0.0548
    143  CG        20.6690   40.6890   -4.0230 C.ar  242  TYR242     -0.0200
    144  CD1       20.5570   41.9210   -4.6510 C.ar  242  TYR242     -0.0009
    145  CD2       19.8510   40.4210   -2.9250 C.ar  242  TYR242     -0.0009
    146  CE1       19.6420   42.8970   -4.2000 C.ar  242  TYR242      0.0417
    147  CE2       18.9420   41.3860   -2.4520 C.ar  242  TYR242      0.0417
    148  CZ        18.8480   42.6150   -3.1030 C.ar  242  TYR242      0.1957
    149  OH        17.9620   43.5680   -2.6620 O.3   242  TYR242     -0.2866
    150  N         23.0170   39.4820   -1.8250 N.am  243  GLU243     -0.1979
    151  CA        23.1300   39.8970   -0.4050 C.3   243  GLU243      0.1602
    152  C         24.5400   40.3840   -0.0580 C.2   243  GLU243      0.2287
    153  O         24.6860   41.3200    0.7290 O.2   243  GLU243     -0.2864
    154  CB        22.7030   38.7460    0.5810 C.3   243  GLU243      0.0415
    155  CG        21.1940   38.4020    0.5250 C.3   243  GLU243      0.1163
    156  CD        20.3260   39.5060    1.1340 C.2   243  GLU243      0.3649
    157  OE1       20.7550   40.1260    2.1260 O.co2 243  GLU243     -0.2457
    158  OE2       19.1970   39.7340    0.6480 O.co2 243  GLU243     -0.2457
    159  N         17.3700   28.0580   -4.4620 N.3   290  GLU290     -0.1245
    160  CA        16.8490   29.2320   -5.1570 C.3   290  GLU290      0.1567
    161  C         18.0680   29.8750   -5.8630 C.2   290  GLU290      0.2260
    162  O         19.2090   29.5670   -5.5110 O.2   290  GLU290     -0.2867
    163  CB        16.2370   30.2450   -4.1670 C.3   290  GLU290      0.0388
    164  CG        14.9490   29.8180   -3.4570 C.3   290  GLU290      0.1160
    165  CD        14.4160   30.8870   -2.4970 C.2   290  GLU290      0.3649
    166  OE1       14.1220   32.0260   -2.9500 O.co2 290  GLU290     -0.2457
    167  OE2       14.2840   30.5920   -1.2900 O.co2 290  GLU290     -0.2457
@<TRIPOS>BOND
     1     4     3    2
     2     3     2    1
     3     1     2    1
     4     5     2    1
     5     5     6    1
     6    30    28   ar
     7   137   135   ar
     8   137   136   ar
     9   135   133   ar
    10     6     7   ar
    11     6     8   ar
    12     7     9   ar
    13    28    27    1
    14    28    29   ar
    15   161   162    2
    16   161   160    1
    17   136   134   ar
    18   133   132   ar
    19   133   131   ar
    20   132   130   ar
    21     8    10   ar
    22    27    24    1
    23   160   159    1
    24   160   163    1
    25   134   131   ar
    26   131   129   ar
    27     9    11   ar
    28    16    15    2
    29   130   129   ar
    30   144   146   ar
    31   144   143   ar
    32   124   125    1
    33   142   139    1
    34   142   143    1
    35   138   139    1
    36    10    11   ar
    37   129   128    1
    38   139   140    1
    39   146   148   ar
    40    11    12    1
    41   163   164    1
    42   125   128    1
    43   125   126    1
    44   143   145   ar
    45    24    25    1
    46    24    23    1
    47    25    26    2
    48    13    14    1
    49   122   121   ar
    50    15    14    1
    51   164   165    1
    52   118   119    2
    53   118   117    1
    54    17    14    1
    55    17    18    1
    56   126   127    2
    57   148   149    1
    58   148   147   ar
    59   166   165   ar
    60   145   147   ar
    61   140   141    2
    62   140   150   am
    63   117   116    1
    64   117   120    1
    65   165   167   ar
    66    19    18   ar
    67    19    21   ar
    68    18    20   ar
    69   121   120    1
    70   121   123   ar
    71   150   151    1
    72    21    22   ar
    73    20    22   ar
    74   151   152    1
    75   151   154    1
    76   152   153    2
    77   155   154    1
    78   155   156    1
    79   158   156   ar
    80   108   106    1
    81   107   106    1
    82   156   157   ar
    83   101   100    1
    84    46    45    2
    85   105   104    2
    86   106   103    1
    87   103   102    1
    88   103   104    1
    89   100    99    1
    90   104   109   am
    91    45    44    1
    92    61    59    1
    93    37    35    1
    94    44    43    1
    95    44    47    1
    96    60    59    1
    97    98    99    1
    98    98    97    1
    99    36    35    1
   100   109   110    1
   101   109   115    1
   102    59    56    1
   103    35    32    1
   104    49    51   ar
   105    49    48   ar
   106    47    48    1
   107   110   111    1
   108   110   113    1
   109    95    94    1
   110    95    96    2
   111    66    63    1
   112    51    53   ar
   113   111   112    2
   114    94    97    1
   115    94    93    1
   116    78    77    1
   117   115   114    1
   118    48    50   ar
   119    90    92   ar
   120    90    88   ar
   121    42    39    1
   122    58    57    2
   123    92    91   ar
   124    56    57    1
   125    56    55    1
   126    32    33    1
   127    32    31    1
   128    57    62   am
   129    87    88   ar
   130    87    85   ar
   131   113   114    1
   132    88    86   ar
   133    33    38   am
   134    33    34    2
   135    53    54    1
   136    53    52   ar
   137    63    62    1
   138    63    64    1
   139    77    76   ar
   140    77    75   ar
   141    38    39    1
   142    50    52   ar
   143    91    89   ar
   144    65    64    2
   145    39    40    1
   146    76    74   ar
   147    85    84   ar
   148    86    89   ar
   149    86    84   ar
   150    75    73   ar
   151    84    83    1
   152    40    41    2
   153    74    72   ar
   154    83    80    1
   155    73    72   ar
   156    72    71    1
   157    80    79    1
   158    80    81    1
   159    79    69   am
   160    67    68    1
   161    81    82    2
   162    71    68    1
   163    68    69    1
   164    69    70    2
