@<TRIPOS>MOLECULE
tmp/4d76A00.pdb
 214 213 0 0 0
SMALL
GASTEIGER

@<TRIPOS>ATOM
      1  N        -57.6280   36.9270   -3.5200 N.3    26  ARG26      -0.1231
      2  CA       -57.1320   35.5730   -3.2780 C.3    26  ARG26       0.1694
      3  C        -55.7860   35.2780   -3.9590 C.2    26  ARG26       0.2592
      4  O        -55.4310   35.8800   -4.9740 O.2    26  ARG26      -0.2718
      5  CB       -58.1280   34.5290   -3.7870 C.3    26  ARG26       0.0321
      6  CG       -58.3770   34.5810   -5.2870 C.3    26  ARG26       0.0489
      7  CD       -59.7610   35.1330   -5.5920 C.3    26  ARG26       0.2205
      8  NE       -60.7640   34.0820   -5.7710 N.pl3  26  ARG26      -0.0865
      9  CZ       -62.0720   34.2170   -5.5350 C.cat  26  ARG26       0.5346
     10  NH1      -62.5790   35.3610   -5.0750 N.pl3  26  ARG26       0.1354
     11  NH2      -62.8870   33.1890   -5.7480 N.pl3  26  ARG26       0.1354
     12  N        -55.0810   34.2970   -3.4100 N.am   27  HIS27      -0.1962
     13  CA       -53.8730   33.7700   -4.0370 C.3    27  HIS27       0.1787
     14  C        -54.2010   33.1890   -5.4090 C.2    27  HIS27       0.2620
     15  O        -55.1630   32.4350   -5.5610 O.2    27  HIS27      -0.2715
     16  CB       -53.2410   32.7070   -3.1460 C.3    27  HIS27       0.0785
     17  CG       -52.1840   31.8950   -3.8200 C.ar   27  HIS27       0.0821
     18  ND1      -50.8500   32.2590   -3.8280 N.ar   27  HIS27      -0.2267
     19  CD2      -52.2580   30.7180   -4.4860 C.ar   27  HIS27       0.1154
     20  CE1      -50.1520   31.3480   -4.4840 C.ar   27  HIS27       0.1986
     21  NE2      -50.9830   30.4070   -4.9040 N.ar   27  HIS27      -0.2212
     22  N        -53.3840   33.5440   -6.3940 N.am   28  LEU28      -0.1963
     23  CA       -53.5360   33.0750   -7.7500 C.3    28  LEU28       0.1728
     24  C        -52.4690   32.0730   -8.1630 C.2    28  LEU28       0.2616
     25  O        -52.7780   31.0000   -8.6800 O.2    28  LEU28      -0.2715
     26  CB       -53.5090   34.2730   -8.7130 C.3    28  LEU28       0.0311
     27  CG       -53.5990   33.9720  -10.2210 C.3    28  LEU28       0.0022
     28  CD1      -54.9460   33.3500  -10.5780 C.3    28  LEU28       0.0001
     29  CD2      -53.3880   35.2380  -11.0400 C.3    28  LEU28       0.0001
     30  N        -51.2070   32.4030   -7.9100 N.am   29  CYS29      -0.1968
     31  CA       -50.0850   31.6400   -8.4480 C.3    29  CYS29       0.1712
     32  C        -48.8230   31.9840   -7.7080 C.2    29  CYS29       0.2296
     33  O        -48.7480   32.9930   -7.0270 O.2    29  CYS29      -0.2864
     34  CB       -49.8450   31.9660   -9.9130 C.3    29  CYS29       0.0983
     35  SG       -50.8320   30.9940  -11.0500 S.3    29  CYS29      -0.0798
     36  N        -49.7910   30.4650  -17.9720 N.3    44  HIS44      -0.1226
     37  CA       -51.1600   29.9860  -17.7540 C.3    44  HIS44       0.1752
     38  C        -51.8750   30.6260  -16.5660 C.2    44  HIS44       0.2596
     39  O        -53.1130   30.5840  -16.4770 O.2    44  HIS44      -0.2718
     40  CB       -51.1860   28.4620  -17.6450 C.3    44  HIS44       0.0759
     41  CG       -50.7070   27.9400  -16.3310 C.ar   44  HIS44       0.0818
     42  ND1      -49.5080   27.2860  -16.1840 N.ar   44  HIS44      -0.2268
     43  CD2      -51.2750   27.9690  -15.1040 C.ar   44  HIS44       0.1154
     44  CE1      -49.3510   26.9420  -14.9180 C.ar   44  HIS44       0.1986
     45  NE2      -50.4140   27.3410  -14.2450 N.ar   44  HIS44      -0.2212
     46  N        -51.1120   31.2110  -15.6390 N.am   45  CYS45      -0.1970
     47  CA       -51.7020   31.9430  -14.5120 C.3    45  CYS45       0.1712
     48  C        -52.6020   33.1240  -14.9070 C.2    45  CYS45       0.2296
     49  O        -53.4380   33.5540  -14.1110 O.2    45  CYS45      -0.2864
     50  CB       -50.6040   32.4550  -13.5930 C.3    45  CYS45       0.0983
     51  SG       -49.8120   31.0890  -12.7500 S.3    45  CYS45      -0.0798
     52  N        -54.7620   33.4140  -17.5110 N.3    47  TYR47      -0.1241
     53  CA       -55.9870   33.1170  -18.2310 C.3    47  TYR47       0.1605
     54  C        -57.0990   34.0360  -17.7580 C.2    47  TYR47       0.2264
     55  O        -57.4270   34.0780  -16.5710 O.2    47  TYR47      -0.2867
     56  CB       -56.4170   31.6540  -18.0540 C.3    47  TYR47       0.0534
     57  CG       -57.7170   31.3870  -18.7810 C.ar   47  TYR47      -0.0201
     58  CD1      -57.7300   31.1780  -20.1590 C.ar   47  TYR47      -0.0009
     59  CD2      -58.9270   31.4160  -18.1050 C.ar   47  TYR47      -0.0009
     60  CE1      -58.9140   30.9630  -20.8390 C.ar   47  TYR47       0.0417
     61  CE2      -60.1250   31.2100  -18.7800 C.ar   47  TYR47       0.0417
     62  CZ       -60.1020   30.9820  -20.1410 C.ar   47  TYR47       0.1957
     63  OH       -61.2850   30.7680  -20.8020 O.3    47  TYR47      -0.2866
     64  N        -52.5900   23.1700   -2.9740 N.3   134  TYR134     -0.1241
     65  CA       -53.3200   22.0870   -2.3390 C.3   134  TYR134      0.1605
     66  C        -52.3650   21.0040   -1.8330 C.2   134  TYR134      0.2264
     67  O        -51.3370   20.7430   -2.4520 O.2   134  TYR134     -0.2867
     68  CB       -54.2520   21.4140   -3.3570 C.3   134  TYR134      0.0534
     69  CG       -55.4250   22.2000   -3.9030 C.ar  134  TYR134     -0.0201
     70  CD1      -55.5830   23.5730   -3.6830 C.ar  134  TYR134     -0.0009
     71  CD2      -56.3730   21.5490   -4.6970 C.ar  134  TYR134     -0.0009
     72  CE1      -56.6550   24.2630   -4.2170 C.ar  134  TYR134      0.0417
     73  CE2      -57.4460   22.2310   -5.2460 C.ar  134  TYR134      0.0417
     74  CZ       -57.5870   23.5780   -5.0040 C.ar  134  TYR134      0.1957
     75  OH       -58.6470   24.2310   -5.5610 O.3   134  TYR134     -0.2866
     76  N        -57.6350   23.0600   -0.4130 N.3   140  LYS140     -0.1231
     77  CA       -57.6530   24.5070   -0.5200 C.3   140  LYS140      0.1693
     78  C        -56.2280   25.0430   -0.4490 C.2   140  LYS140      0.2591
     79  O        -55.2810   24.2920   -0.2170 O.2   140  LYS140     -0.2718
     80  CB       -58.5120   25.1030    0.5940 C.3   140  LYS140      0.0285
     81  CG       -58.0500   24.7570    2.0010 C.3   140  LYS140      0.0035
     82  CD       -58.9600   25.3980    3.0310 C.3   140  LYS140      0.0206
     83  CE       -58.8140   24.7390    4.3910 C.3   140  LYS140      0.1093
     84  NZ       -59.7000   25.4000    5.3870 N.3   140  LYS140     -0.1314
     85  N        -56.0990   26.3470   -0.6670 N.am  141  ILE141     -0.1980
     86  CA       -54.8150   27.0400   -0.5420 C.3   141  ILE141      0.1595
     87  C        -54.3940   26.9790    0.9170 C.2   141  ILE141      0.2287
     88  O        -55.2060   27.2200    1.7990 O.2   141  ILE141     -0.2864
     89  CB       -54.9470   28.5070   -1.0130 C.3   141  ILE141      0.0276
     90  CG1      -55.3070   28.5580   -2.5110 C.3   141  ILE141      0.0022
     91  CG2      -53.6870   29.3240   -0.7230 C.3   141  ILE141      0.0022
     92  CD1      -54.3850   27.8040   -3.4420 C.3   141  ILE141      0.0001
     93  N        -45.2220   16.1740   -4.7070 N.3   182  ASP182     -0.1225
     94  CA       -45.3930   16.8660   -5.9770 C.3   182  ASP182      0.1805
     95  C        -45.9490   18.2690   -5.7410 C.2   182  ASP182      0.2598
     96  O        -46.5040   18.5530   -4.6920 O.2   182  ASP182     -0.2718
     97  CB       -46.4080   16.0840   -6.8360 C.3   182  ASP182      0.1424
     98  CG       -46.2520   16.3070   -8.3450 C.2   182  ASP182      0.3668
     99  OD1      -45.4120   17.1190   -8.8050 O.co2 182  ASP182     -0.2456
    100  OD2      -47.0040   15.6290   -9.0970 O.co2 182  ASP182     -0.2456
    101  N        -45.8650   19.1160   -6.7560 N.am  183  ALA183     -0.1966
    102  CA       -46.6870   20.3290   -6.7940 C.3   183  ALA183      0.1728
    103  C        -48.1570   19.9620   -7.0330 C.2   183  ALA183      0.2616
    104  O        -48.4510   18.8730   -7.5310 O.2   183  ALA183     -0.2715
    105  CB       -46.1890   21.2470   -7.8950 C.3   183  ALA183      0.0334
    106  N        -49.0780   20.8620   -6.6840 N.am  184  CYS184     -0.1954
    107  CA       -50.5110   20.6590   -6.9650 C.3   184  CYS184      0.1843
    108  C        -51.1580   22.0220   -7.2310 C.2   184  CYS184      0.2625
    109  O        -50.4450   23.0120   -7.4550 O.2   184  CYS184     -0.2714
    110  CB       -51.2070   19.9180   -5.8220 C.3   184  CYS184      0.0997
    111  SG       -52.8050   19.1560   -6.2660 S.3   184  CYS184     -0.0797
    112  N        -52.4840   22.0770   -7.2000 N.am  185  LYS185     -0.1963
    113  CA       -53.2030   23.2860   -7.5780 C.3   185  LYS185      0.1728
    114  C        -52.8670   24.4490   -6.6480 C.2   185  LYS185      0.2616
    115  O        -52.8720   24.2970   -5.4280 O.2   185  LYS185     -0.2715
    116  CB       -54.7030   23.0310   -7.6020 C.3   185  LYS185      0.0311
    117  CG       -55.1180   22.1360   -8.7630 C.3   185  LYS185      0.0038
    118  CD       -56.6290   22.0300   -8.8840 C.3   185  LYS185      0.0206
    119  CE       -57.0010   21.1560  -10.0790 C.3   185  LYS185      0.1093
    120  NZ       -58.4750   20.9710  -10.1920 N.3   185  LYS185     -0.1314
    121  N        -52.5790   25.6050   -7.2350 N.am  186  GLY186     -0.1955
    122  CA       -52.1590   26.7710   -6.4600 C.3   186  GLY186      0.1869
    123  C        -50.6450   26.9090   -6.3810 C.2   186  GLY186      0.2309
    124  O        -50.1480   27.9860   -6.0190 O.2   186  GLY186     -0.2863
    125  N        -48.7360   26.4380   -9.0950 N.3   188  SER188     -0.1217
    126  CA       -48.2280   26.7210  -10.4180 C.3   188  SER188      0.1889
    127  C        -47.6030   28.1210  -10.4920 C.2   188  SER188      0.2288
    128  O        -48.0020   29.0410   -9.7660 O.2   188  SER188     -0.2866
    129  CB       -49.3180   26.5610  -11.4580 C.3   188  SER188      0.2089
    130  OG       -50.2020   27.6450  -11.4000 O.3   188  SER188     -0.2183
    131  N        -43.1140   25.6000  -12.1900 N.3   206  THR206     -0.1203
    132  CA       -44.2330   24.6570  -12.0540 C.3   206  THR206      0.1994
    133  C        -45.3120   24.9170  -13.1090 C.2   206  THR206      0.2619
    134  O        -45.8690   26.0040  -13.1900 O.2   206  THR206     -0.2717
    135  CB       -44.7980   24.7490  -10.6370 C.3   206  THR206      0.1784
    136  OG1      -43.7390   24.4580   -9.7120 O.3   206  THR206     -0.2211
    137  CG2      -45.9540   23.7750  -10.4090 C.3   206  THR206      0.0376
    138  N        -45.6140   23.9010  -13.9120 N.am  207  SER207     -0.1937
    139  CA       -46.3730   24.1290  -15.1340 C.3   207  SER207      0.2055
    140  C        -47.6040   23.2250  -15.2380 C.2   207  SER207      0.2643
    141  O        -48.7260   23.7170  -15.1820 O.2   207  SER207     -0.2714
    142  CB       -45.4710   23.9760  -16.3360 C.3   207  SER207      0.2130
    143  OG       -46.1790   24.2680  -17.5310 O.3   207  SER207     -0.2179
    144  N        -47.4000   21.9170  -15.3690 N.am  208  TRP208     -0.1959
    145  CA       -48.5410   20.9970  -15.5530 C.3   208  TRP208      0.1771
    146  C        -48.2290   19.5670  -15.1390 C.2   208  TRP208      0.2620
    147  O        -47.0880   19.2050  -14.8570 O.2   208  TRP208     -0.2715
    148  CB       -49.0410   21.0120  -17.0080 C.3   208  TRP208      0.0590
    149  CG       -48.0690   20.5290  -18.0550 C.ar  208  TRP208      0.0006
    150  CD1      -47.0910   21.2610  -18.6600 C.ar  208  TRP208      0.0946
    151  CD2      -48.0060   19.2180  -18.6490 C.ar  208  TRP208      0.0152
    152  NE1      -46.4040   20.4910  -19.5610 N.ar  208  TRP208     -0.2442
    153  CE2      -46.9560   19.2340  -19.5800 C.ar  208  TRP208      0.0810
    154  CE3      -48.7440   18.0330  -18.4790 C.ar  208  TRP208      0.0012
    155  CZ2      -46.6120   18.1100  -20.3530 C.ar  208  TRP208      0.0191
    156  CZ3      -48.3930   16.9090  -19.2460 C.ar  208  TRP208      0.0001
    157  CH2      -47.3340   16.9560  -20.1550 C.ar  208  TRP208      0.0015
    158  N        -49.2700   18.7470  -15.1220 N.am  209  GLY209     -0.1940
    159  CA       -49.0990   17.3290  -14.8440 C.3   209  GLY209      0.2014
    160  C        -50.4540   16.6740  -14.7650 C.2   209  GLY209      0.2639
    161  O        -51.4780   17.3730  -14.7810 O.2   209  GLY209     -0.2714
    162  N        -50.4850   15.3410  -14.6800 N.am  210  GLU210     -0.1963
    163  CA       -51.7600   14.6390  -14.5090 C.3   210  GLU210      0.1733
    164  C        -52.0780   14.3850  -13.0370 C.2   210  GLU210      0.2617
    165  O        -51.4210   13.5760  -12.3940 O.2   210  GLU210     -0.2715
    166  CB       -51.7820   13.3200  -15.2960 C.3   210  GLU210      0.0429
    167  CG       -53.1330   12.5920  -15.2320 C.3   210  GLU210      0.1163
    168  CD       -54.3100   13.4380  -15.7160 C.2   210  GLU210      0.3649
    169  OE1      -54.2210   13.9970  -16.8210 O.co2 210  GLU210     -0.2457
    170  OE2      -55.3340   13.5470  -15.0000 O.co2 210  GLU210     -0.2457
    171  N        -53.0990   15.0590  -12.5130 N.am  211  GLY211     -0.1940
    172  CA       -53.4230   14.9970  -11.0920 C.3   211  GLY211      0.2014
    173  C        -52.2320   15.5330  -10.3010 C.2   211  GLY211      0.2639
    174  O        -51.4380   16.3100  -10.8240 O.2   211  GLY211     -0.2714
    175  N        -52.0940   15.0920   -9.0610 N.am  212  CYS212     -0.1967
    176  CA       -51.0020   15.5330   -8.1960 C.3   212  CYS212      0.1712
    177  C        -50.4310   14.3360   -7.4400 C.2   212  CYS212      0.2296
    178  O        -51.1710   13.6230   -6.7650 O.2   212  CYS212     -0.2864
    179  CB       -51.5130   16.5670   -7.1870 C.3   212  CYS212      0.0983
    180  SG       -52.3370   18.0110   -7.9170 S.3   212  CYS212     -0.0798
    181  N        -46.4010    9.5770  -12.7510 N.3   217  ARG217     -0.1245
    182  CA       -46.8590   10.8050  -13.3860 C.3   217  ARG217      0.1563
    183  C        -46.0450   11.9380  -12.7640 C.2   217  ARG217      0.2260
    184  O        -46.5270   12.6160  -11.8770 O.2   217  ARG217     -0.2867
    185  CB       -48.3480   11.0350  -13.1280 C.3   217  ARG217      0.0307
    186  CG       -49.3020   10.0660  -13.8170 C.3   217  ARG217      0.0489
    187  CD       -49.2460   10.1840  -15.3350 C.3   217  ARG217      0.2205
    188  NE       -50.4320    9.5950  -15.9570 N.pl3 217  ARG217     -0.0865
    189  CZ       -50.8540    9.8340  -17.1990 C.cat 217  ARG217      0.5346
    190  NH1      -50.1910   10.6460  -17.9990 N.pl3 217  ARG217      0.1354
    191  NH2      -51.9550    9.2430  -17.6520 N.pl3 217  ARG217      0.1354
    192  N        -44.2050   15.6020  -12.2720 N.3   219  GLY219     -0.1210
    193  CA       -44.5390   16.9810  -12.6200 C.3   219  GLY219      0.1956
    194  C        -43.7590   17.4640  -13.8210 C.2   219  GLY219      0.2612
    195  O        -42.6090   17.0700  -14.0420 O.2   219  GLY219     -0.2717
    196  N        -44.3720   18.3380  -14.5950 N.am  220  VAL220     -0.1965
    197  CA       -43.7070   18.9450  -15.7280 C.3   220  VAL220      0.1727
    198  C        -43.5300   20.4260  -15.4700 C.2   220  VAL220      0.2616
    199  O        -44.4650   21.1270  -15.0310 O.2   220  VAL220     -0.2715
    200  CB       -44.4770   18.6920  -17.0480 C.3   220  VAL220      0.0290
    201  CG1      -43.6580   19.1320  -18.2450 C.3   220  VAL220      0.0023
    202  CG2      -44.8170   17.2180  -17.1600 C.3   220  VAL220      0.0023
    203  N        -42.3080   20.8710  -15.7440 N.am  221  TYR221     -0.1974
    204  CA       -41.8410   22.2130  -15.4570 C.3   221  TYR221      0.1639
    205  C        -41.2560   22.8490  -16.7030 C.2   221  TYR221      0.2290
    206  O        -40.6270   22.1840  -17.5280 O.2   221  TYR221     -0.2864
    207  CB       -40.7350   22.1600  -14.3810 C.3   221  TYR221      0.0560
    208  CG       -41.2220   21.5760  -13.0870 C.ar  221  TYR221     -0.0198
    209  CD1      -41.3510   20.2000  -12.9160 C.ar  221  TYR221     -0.0009
    210  CD2      -41.5680   22.3970  -12.0320 C.ar  221  TYR221     -0.0009
    211  CE1      -41.8330   19.6700  -11.7290 C.ar  221  TYR221      0.0417
    212  CE2      -42.0500   21.8770  -10.8500 C.ar  221  TYR221      0.0417
    213  CZ       -42.1670   20.5190  -10.6910 C.ar  221  TYR221      0.1957
    214  OH       -42.6480   20.0540   -9.4800 O.3   221  TYR221     -0.2866
@<TRIPOS>BOND
     1    60    58   ar
     2    60    62   ar
     3    63    62    1
     4   155   157   ar
     5   155   153   ar
     6    58    57   ar
     7   157   156   ar
     8    62    61   ar
     9   153   152   ar
    10   153   151   ar
    11   152   150   ar
    12   156   154   ar
    13    57    59   ar
    14    57    56    1
    15    61    59   ar
    16   150   149   ar
    17   151   154   ar
    18   151   149   ar
    19   201   200    1
    20    53    56    1
    21    53    54    1
    22    53    52    1
    23   149   148    1
    24   190   189    1
    25    36    37    1
    26    54    55    2
    27    37    40    1
    28    37    38    1
    29   191   189    1
    30    40    41    1
    31   143   142    1
    32   206   205    2
    33   189   188    2
    34   202   200    1
    35   200   197    1
    36   148   145    1
    37   169   168   ar
    38   205   204    1
    39    38    39    2
    40    38    46   am
    41   142   139    1
    42    41    42   ar
    43    41    43   ar
    44    42    44   ar
    45   188   187    1
    46   203   198   am
    47   203   204    1
    48   197   198    1
    49   197   196    1
    50   168   167    1
    51   168   170   ar
    52    46    47    1
    53   145   144    1
    54   145   146    1
    55   198   199    2
    56   204   207    1
    57   144   140   am
    58   187   186    1
    59   166   167    1
    60   166   163    1
    61   140   141    2
    62   140   139    1
    63   146   158   am
    64   146   147    2
    65   139   138    1
    66   158   159    1
    67    43    45   ar
    68    44    45   ar
    69    48    47    1
    70    48    49    2
    71   159   160    1
    72   161   160    2
    73   160   162   am
    74   162   163    1
    75   196   194   am
    76    47    50    1
    77   163   164    1
    78   207   208    1
    79   195   194    2
    80   138   133   am
    81   194   193    1
    82   186   185    1
    83    50    51    1
    84   182   185    1
    85   182   183    1
    86   182   181    1
    87   134   133    2
    88   133   132    1
    89   208   209   ar
    90   208   210   ar
    91   164   171   am
    92   164   165    2
    93   209   211   ar
    94   183   184    2
    95    51    35    1
    96   193   192    1
    97   171   172    1
    98   131   132    1
    99   132   135    1
   100   210   212   ar
   101   211   213   ar
   102   129   130    1
   103   129   126    1
   104   172   173    1
   105    35    34    1
   106    29    27    1
   107   212   213   ar
   108   174   173    2
   109   213   214    1
   110   135   137    1
   111   135   136    1
   112    28    27    1
   113   127   126    1
   114   127   128    2
   115   126   125    1
   116   173   175   am
   117    27    26    1
   118   120   119    1
   119   119   118    1
   120    34    31    1
   121   100    98   ar
   122   175   176    1
   123   118   117    1
   124    99    98   ar
   125   117   116    1
   126    26    23    1
   127    25    24    2
   128    31    30    1
   129    31    32    1
   130    98    97    1
   131   176   177    1
   132   176   179    1
   133    24    30   am
   134    24    23    1
   135   180   179    1
   136   180   111    1
   137   105   102    1
   138    23    22    1
   139    32    33    2
   140   116   113    1
   141   113   112    1
   142   113   114    1
   143   104   103    2
   144   109   108    2
   145   177   178    2
   146   121   114   am
   147   121   122    1
   148   108   112   am
   149   108   107    1
   150   103   102    1
   151   103   106   am
   152   107   106    1
   153   107   110    1
   154    97    94    1
   155   102   101    1
   156   101    95   am
   157   114   115    2
   158   122   123    1
   159    22    14   am
   160   123   124    2
   161   111   110    1
   162    94    95    1
   163    94    93    1
   164     8     7    1
   165     8     9    2
   166    11     9    1
   167    95    96    2
   168     7     6    1
   169    75    74    1
   170    15    14    2
   171     9    10    1
   172    14    13    1
   173     6     5    1
   174    73    74   ar
   175    73    71   ar
   176    74    72   ar
   177     4     3    2
   178    21    19   ar
   179    21    20   ar
   180    71    69   ar
   181    19    17   ar
   182    20    18   ar
   183    72    70   ar
   184    13    12    1
   185    13    16    1
   186     3    12   am
   187     3     2    1
   188    69    70   ar
   189    69    68    1
   190    18    17   ar
   191    17    16    1
   192     5     2    1
   193     1     2    1
   194    92    90    1
   195    68    65    1
   196    64    65    1
   197    90    89    1
   198    67    66    2
   199    65    66    1
   200    89    91    1
   201    89    86    1
   202    85    86    1
   203    85    78   am
   204    86    87    1
   205    77    78    1
   206    77    76    1
   207    77    80    1
   208    78    79    2
   209    80    81    1
   210    87    88    2
   211    81    82    1
   212    82    83    1
   213    83    84    1
