@<TRIPOS>MOLECULE
tmp/4d78A01.pdb
 188 179 0 0 0
SMALL
GASTEIGER

@<TRIPOS>ATOM
      1  N        -16.1840   40.6330   -6.8520 N.3    79  ARG79      -0.1245
      2  CA       -17.2070   40.5500   -7.8710 C.3    79  ARG79       0.1563
      3  C        -18.3190   41.5310   -7.5470 C.2    79  ARG79       0.2260
      4  O        -18.2520   42.2600   -6.5610 O.2    79  ARG79      -0.2867
      5  CB       -17.7110   39.1320   -8.0260 C.3    79  ARG79       0.0307
      6  CG       -16.6070   38.1410   -8.3130 C.3    79  ARG79       0.0489
      7  CD       -17.1340   36.7180   -8.3030 C.3    79  ARG79       0.2205
      8  NE       -16.0750   35.8260   -8.7790 N.pl3  79  ARG79      -0.0865
      9  CZ       -15.2890   35.0890   -7.9960 C.cat  79  ARG79       0.5346
     10  NH1      -15.4390   35.1000   -6.6690 N.pl3  79  ARG79       0.1354
     11  NH2      -14.3440   34.3330   -8.5370 N.pl3  79  ARG79       0.1354
     12  N        -23.7650   40.6640   -4.5310 N.3    82  PHE82      -0.1241
     13  CA       -24.5420   39.5260   -5.0040 C.3    82  PHE82       0.1605
     14  C        -26.0640   39.7070   -5.0820 C.2    82  PHE82       0.2264
     15  O        -26.7060   39.2380   -6.0310 O.2    82  PHE82      -0.2867
     16  CB       -24.1860   38.2680   -4.1990 C.3    82  PHE82       0.0534
     17  CG       -24.6510   36.9950   -4.8420 C.ar   82  PHE82      -0.0203
     18  CD1      -24.2620   36.6730   -6.1380 C.ar   82  PHE82      -0.0042
     19  CD2      -25.4970   36.1350   -4.1700 C.ar   82  PHE82      -0.0042
     20  CE1      -24.6950   35.5050   -6.7480 C.ar   82  PHE82      -0.0003
     21  CE2      -25.9330   34.9640   -4.7650 C.ar   82  PHE82      -0.0003
     22  CZ       -25.5340   34.6480   -6.0580 C.ar   82  PHE82      -0.0000
     23  N        -24.3230   34.2840    4.5330 N.3    88  MET88      -0.1245
     24  CA       -23.5200   33.8520    3.3960 C.3    88  MET88       0.1570
     25  C        -22.5680   34.9260    2.8960 C.2    88  MET88       0.2261
     26  O        -21.7690   34.6740    1.9760 O.2    88  MET88      -0.2867
     27  CB       -24.4060   33.4320    2.2340 C.3    88  MET88       0.0387
     28  CG       -25.1050   32.1170    2.4340 C.3    88  MET88       0.0595
     29  SD       -23.9850   30.7400    2.6920 S.3    88  MET88      -0.1393
     30  CE       -23.2360   30.6320    1.0600 C.3    88  MET88       0.0692
     31  N        -16.7310   32.9460   -1.9960 N.3    93  SER93      -0.1202
     32  CA       -17.0080   33.4990   -3.3450 C.3    93  SER93       0.2020
     33  C        -17.7410   34.8540   -3.3290 C.2    93  SER93       0.2618
     34  O        -17.8160   35.5340   -4.3480 O.2    93  SER93      -0.2717
     35  CB       -17.7770   32.4800   -4.2010 C.3    93  SER93       0.2103
     36  OG       -18.8960   31.9710   -3.4930 O.3    93  SER93      -0.2182
     37  N        -18.2410   35.2320   -2.1550 N.am   94  ILE94      -0.1979
     38  CA       -19.1000   36.3910   -1.9690 C.3    94  ILE94       0.1595
     39  C        -18.3390   37.4610   -1.1650 C.2    94  ILE94       0.2287
     40  O        -18.6080   38.6570   -1.2800 O.2    94  ILE94      -0.2864
     41  CB       -20.4470   35.9310   -1.3290 C.3    94  ILE94       0.0276
     42  CG1      -21.3320   35.2950   -2.4110 C.3    94  ILE94       0.0022
     43  CG2      -21.2090   37.0530   -0.6370 C.3    94  ILE94       0.0022
     44  CD1      -22.3510   34.3020   -1.8880 C.3    94  ILE94       0.0001
     45  N        -31.3340   25.7120   -4.5500 N.3   184  LEU184     -0.1231
     46  CA       -30.5510   26.7590   -3.8840 C.3   184  LEU184      0.1693
     47  C        -30.5200   28.0710   -4.6700 C.2   184  LEU184      0.2591
     48  O        -30.4180   29.1540   -4.0810 O.2   184  LEU184     -0.2718
     49  CB       -29.1210   26.2730   -3.5940 C.3   184  LEU184      0.0284
     50  CG       -28.6520   26.1490   -2.1350 C.3   184  LEU184      0.0019
     51  CD1      -27.3650   25.3450   -2.0180 C.3   184  LEU184      0.0001
     52  CD2      -28.4590   27.5180   -1.5100 C.3   184  LEU184      0.0001
     53  N        -30.5910   27.9750   -5.9940 N.am  185  LEU185     -0.1980
     54  CA       -30.7410   29.1630   -6.8300 C.3   185  LEU185      0.1596
     55  C        -31.7300   28.9560   -7.9670 C.2   185  LEU185      0.2287
     56  O        -31.6540   27.9700   -8.7000 O.2   185  LEU185     -0.2864
     57  CB       -29.3910   29.6570   -7.3800 C.3   185  LEU185      0.0297
     58  CG       -28.5480   30.6160   -6.5270 C.3   185  LEU185      0.0022
     59  CD1      -27.8450   31.6320   -7.4110 C.3   185  LEU185      0.0001
     60  CD2      -29.3690   31.3220   -5.4570 C.3   185  LEU185      0.0001
     61  N        -31.8600   31.4660  -10.1810 N.3   187  PHE187     -0.1241
     62  CA       -31.2980   32.6180  -10.8690 C.3   187  PHE187      0.1605
     63  C        -32.0470   32.5590  -12.1820 C.2   187  PHE187      0.2264
     64  O        -31.8100   31.6810  -13.0120 O.2   187  PHE187     -0.2867
     65  CB       -29.7760   32.4940  -10.9630 C.3   187  PHE187      0.0534
     66  CG       -29.0550   33.8090  -10.8770 C.ar  187  PHE187     -0.0203
     67  CD1      -29.2650   34.7930  -11.8290 C.ar  187  PHE187     -0.0042
     68  CD2      -28.1660   34.0610   -9.8450 C.ar  187  PHE187     -0.0042
     69  CE1      -28.6040   36.0040  -11.7530 C.ar  187  PHE187     -0.0003
     70  CE2      -27.5010   35.2700   -9.7630 C.ar  187  PHE187     -0.0003
     71  CZ       -27.7200   36.2430  -10.7190 C.ar  187  PHE187     -0.0000
     72  N        -32.3780   31.7990   -1.1630 N.3   215  PHE215     -0.1241
     73  CA       -32.6160   30.4410   -0.7000 C.3   215  PHE215      0.1605
     74  C        -33.2710   30.6760    0.6500 C.2   215  PHE215      0.2264
     75  O        -32.7320   30.3290    1.7000 O.2   215  PHE215     -0.2867
     76  CB       -31.3020   29.6820   -0.5360 C.3   215  PHE215      0.0534
     77  CG       -30.1640   30.5360   -0.0560 C.ar  215  PHE215     -0.0203
     78  CD1      -30.1310   30.9990    1.2490 C.ar  215  PHE215     -0.0042
     79  CD2      -29.1280   30.8780   -0.9090 C.ar  215  PHE215     -0.0042
     80  CE1      -29.0850   31.7850    1.6950 C.ar  215  PHE215     -0.0003
     81  CE2      -28.0800   31.6640   -0.4710 C.ar  215  PHE215     -0.0003
     82  CZ       -28.0580   32.1190    0.8330 C.ar  215  PHE215     -0.0000
     83  N        -21.5960   25.3370    2.6010 N.3   263  ILE263     -0.1231
     84  CA       -22.7030   25.5190    1.6600 C.3   263  ILE263      0.1692
     85  C        -22.1800   25.8570    0.2860 C.2   263  ILE263      0.2591
     86  O        -22.5850   25.2350   -0.6800 O.2   263  ILE263     -0.2718
     87  CB       -23.7530   26.5450    2.1030 C.3   263  ILE263      0.0266
     88  CG1      -24.6500   25.9450    3.2040 C.3   263  ILE263      0.0019
     89  CG2      -24.5870   26.9700    0.8950 C.3   263  ILE263      0.0020
     90  CD1      -24.9890   26.8810    4.3460 C.3   263  ILE263      0.0001
     91  N        -21.2610   26.8130    0.1920 N.am  264  ILE264     -0.1980
     92  CA       -20.6390   27.0940   -1.1060 C.3   264  ILE264      0.1595
     93  C        -20.1810   25.7660   -1.7090 C.2   264  ILE264      0.2287
     94  O        -20.6680   25.3620   -2.7460 O.2   264  ILE264     -0.2864
     95  CB       -19.4710   28.1330   -1.0390 C.3   264  ILE264      0.0276
     96  CG1      -19.9300   29.5090   -1.5210 C.3   264  ILE264      0.0022
     97  CG2      -18.2810   27.7060   -1.8990 C.3   264  ILE264      0.0022
     98  CD1      -20.2600   29.5900   -3.0010 C.3   264  ILE264      0.0001
     99  N        -22.7400   23.1970   -2.7910 N.3   267  PHE267     -0.1227
    100  CA       -23.3800   23.6050   -4.0060 C.3   267  PHE267      0.1736
    101  C        -22.3960   23.4380   -5.1550 C.2   267  PHE267      0.2595
    102  O        -22.6110   22.6250   -6.0310 O.2   267  PHE267     -0.2718
    103  CB       -23.8570   25.0500   -3.9390 C.3   267  PHE267      0.0547
    104  CG       -24.3210   25.5730   -5.2650 C.ar  267  PHE267     -0.0202
    105  CD1      -25.5970   25.2730   -5.7370 C.ar  267  PHE267     -0.0042
    106  CD2      -23.4680   26.3270   -6.0730 C.ar  267  PHE267     -0.0042
    107  CE1      -26.0230   25.7430   -6.9750 C.ar  267  PHE267     -0.0003
    108  CE2      -23.8910   26.7980   -7.3130 C.ar  267  PHE267     -0.0003
    109  CZ       -25.1710   26.5080   -7.7620 C.ar  267  PHE267     -0.0000
    110  N        -21.3180   24.2170   -5.1300 N.am  268  ALA268     -0.1980
    111  CA       -20.3450   24.2910   -6.2060 C.3   268  ALA268      0.1597
    112  C        -20.0150   22.9480   -6.8400 C.2   268  ALA268      0.2287
    113  O        -20.1150   22.7920   -8.0560 O.2   268  ALA268     -0.2864
    114  CB       -19.0570   24.8890   -5.6840 C.3   268  ALA268      0.0319
    115  N        -23.5530   21.1940   -8.5590 N.3   271  GLU271     -0.1231
    116  CA       -24.1980   21.7270   -9.7570 C.3   271  GLU271      0.1699
    117  C        -23.2650   21.8160  -10.9670 C.2   271  GLU271      0.2592
    118  O        -23.6920   21.5910  -12.1080 O.2   271  GLU271     -0.2718
    119  CB       -24.8530   23.0860   -9.4530 C.3   271  GLU271      0.0402
    120  CG       -25.2810   23.9090  -10.6730 C.3   271  GLU271      0.1161
    121  CD       -26.4410   23.3050  -11.4590 C.2   271  GLU271      0.3649
    122  OE1      -27.3520   22.7000  -10.8390 O.co2 271  GLU271     -0.2457
    123  OE2      -26.4440   23.4560  -12.7040 O.co2 271  GLU271     -0.2457
    124  N        -22.0020   22.1570  -10.7300 N.am  272  THR272     -0.1953
    125  CA       -21.0720   22.2830  -11.8340 C.3   272  THR272      0.1897
    126  C        -20.7790   20.9290  -12.4470 C.2   272  THR272      0.2313
    127  O        -21.1440   20.6630  -13.5950 O.2   272  THR272     -0.2863
    128  CB       -19.7440   22.9120  -11.4130 C.3   272  THR272      0.1794
    129  OG1      -19.1460   22.1120  -10.3980 O.3   272  THR272     -0.2208
    130  CG2      -19.9650   24.3130  -10.9200 C.3   272  THR272      0.0378
    131  N        -19.6030   27.0690  -18.1230 N.3   332  ILE332     -0.1231
    132  CA       -20.6850   27.0730  -17.1740 C.3   332  ILE332      0.1692
    133  C        -20.8360   28.3840  -16.4110 C.2   332  ILE332      0.2592
    134  O        -21.8240   28.5870  -15.7410 O.2   332  ILE332     -0.2718
    135  CB       -20.4380   25.8690  -16.2570 C.3   332  ILE332      0.0266
    136  CG1      -21.7270   25.1560  -15.9750 C.3   332  ILE332      0.0019
    137  CG2      -19.6530   26.2010  -15.0120 C.3   332  ILE332      0.0020
    138  CD1      -21.9320   24.0470  -16.9590 C.3   332  ILE332      0.0001
    139  N        -19.8690   29.2720  -16.5110 N.am  333  ALA333     -0.1966
    140  CA       -19.9320   30.5160  -15.7590 C.3   333  ALA333      0.1728
    141  C        -20.3510   31.6740  -16.6210 C.2   333  ALA333      0.2616
    142  O        -20.8620   32.6480  -16.1360 O.2   333  ALA333     -0.2715
    143  CB       -18.6080   30.8050  -15.1170 C.3   333  ALA333      0.0334
    144  N        -20.1190   31.5620  -17.9130 N.am  334  MET334     -0.1963
    145  CA       -20.6300   32.5190  -18.8650 C.3   334  MET334      0.1736
    146  C        -19.8010   33.7840  -18.8960 C.2   334  MET334      0.2616
    147  O        -19.3500   34.1940  -19.9340 O.2   334  MET334     -0.2715
    148  CB       -22.0900   32.7790  -18.5730 C.3   334  MET334      0.0427
    149  CG       -23.0480   32.1900  -19.5760 C.3   334  MET334      0.0599
    150  SD       -24.6180   31.8260  -18.8150 S.3   334  MET334     -0.1393
    151  CE       -24.1540   31.7050  -17.1130 C.3   334  MET334      0.0692
    152  N        -19.6260   34.4120  -17.7510 N.am  335  ARG335     -0.1977
    153  CA       -18.8780   35.6450  -17.6520 C.3   335  ARG335      0.1597
    154  C        -18.0630   35.6830  -16.4150 C.2   335  ARG335      0.2287
    155  O        -18.5110   35.2460  -15.3980 O.2   335  ARG335     -0.2864
    156  CB       -19.8680   36.7660  -17.4840 C.3   335  ARG335      0.0334
    157  CG       -20.8590   36.9410  -18.5850 C.3   335  ARG335      0.0492
    158  CD       -21.9140   37.9040  -18.1230 C.3   335  ARG335      0.2205
    159  NE       -22.5830   38.5620  -19.2220 N.pl3 335  ARG335     -0.0865
    160  CZ       -23.4380   39.5510  -19.0690 C.cat 335  ARG335      0.5346
    161  NH1      -23.7190   39.9880  -17.8730 N.pl3 335  ARG335      0.1354
    162  NH2      -24.0010   40.0990  -20.1100 N.pl3 335  ARG335      0.1354
    163  N        -10.9440   29.7770   -9.9250 N.3   405  CYS405     -0.1235
    164  CA       -11.8090   28.7730   -9.2800 C.3   405  CYS405      0.1677
    165  C        -10.9950   27.9240   -8.3320 C.2   405  CYS405      0.2270
    166  O        -10.2200   27.0620   -8.7830 O.2   405  CYS405     -0.2867
    167  CB       -12.5070   27.8650  -10.3020 C.3   405  CYS405      0.0956
    168  SG       -13.3760   26.4180   -9.5970 S.3   405  CYS405     -0.0801
    169  N        -30.0100   32.5630  -15.9890 N.3   444  GLY444     -0.1210
    170  CA       -28.6380   32.9280  -15.6490 C.3   444  GLY444      0.1956
    171  C        -27.8460   31.7160  -15.2250 C.2   444  GLY444      0.2612
    172  O        -26.8600   31.8430  -14.5050 O.2   444  GLY444     -0.2717
    173  N        -28.2910   30.5380  -15.6590 N.am  445  LEU445     -0.1965
    174  CA       -27.5750   29.3020  -15.3990 C.3   445  LEU445      0.1728
    175  C        -27.4110   28.8310  -16.8440 C.2   445  LEU445      0.2616
    176  O        -28.3930   28.7910  -17.6000 O.2   445  LEU445     -0.2715
    177  CB       -28.2710   28.2370  -14.5540 C.3   445  LEU445      0.0311
    178  CG       -27.6980   28.0870  -13.1420 C.3   445  LEU445      0.0022
    179  CD1      -28.5820   28.7470  -12.0900 C.3   445  LEU445      0.0001
    180  CD2      -27.4940   26.6150  -12.8120 C.3   445  LEU445      0.0001
    181  N        -26.1710   28.5110  -17.2350 N.am  446  LEU446     -0.1977
    182  CA       -25.9230   27.9170  -18.5450 C.3   446  LEU446      0.1596
    183  C        -26.3750   26.4660  -18.4970 C.2   446  LEU446      0.2287
    184  O        -25.6800   25.6030  -17.9800 O.2   446  LEU446     -0.2864
    185  CB       -24.4590   28.0250  -18.9610 C.3   446  LEU446      0.0297
    186  CG       -24.0830   27.4150  -20.3140 C.3   446  LEU446      0.0022
    187  CD1      -24.5660   28.2930  -21.4460 C.3   446  LEU446      0.0001
    188  CD2      -22.5880   27.2330  -20.4280 C.3   446  LEU446      0.0001
@<TRIPOS>BOND
     1   187   186    1
     2   188   186    1
     3   186   185    1
     4   162   160    1
     5   147   146    2
     6   149   150    1
     7   149   148    1
     8   159   160    2
     9   159   158    1
    10   160   161    1
    11   185   182    1
    12   146   145    1
    13   146   152   am
    14   145   148    1
    15   145   144    1
    16   150   151    1
    17   157   158    1
    18   157   156    1
    19   182   183    1
    20   182   181    1
    21   183   184    2
    22   131   132    1
    23   144   141   am
    24   152   153    1
    25   153   156    1
    26   153   154    1
    27   176   175    2
    28   181   175   am
    29   132   133    1
    30   132   135    1
    31   138   136    1
    32   175   174    1
    33   141   142    2
    34   141   140    1
    35   139   133   am
    36   139   140    1
    37   154   155    2
    38   133   134    2
    39   135   136    1
    40   135   137    1
    41   169   170    1
    42   140   143    1
    43   173   174    1
    44   173   171   am
    45   170   171    1
    46   174   177    1
    47   171   172    2
    48   177   178    1
    49   127   126    2
    50   178   180    1
    51   178   179    1
    52    64    63    2
    53   123   121   ar
    54   126   125    1
    55    63    62    1
    56   118   117    2
    57   125   128    1
    58   125   124    1
    59    67    69   ar
    60    67    66   ar
    61    69    71   ar
    62   121   122   ar
    63   121   120    1
    64   128   130    1
    65   128   129    1
    66   117   124   am
    67   117   116    1
    68    65    66    1
    69    65    62    1
    70    66    68   ar
    71    62    61    1
    72    71    70   ar
    73   120   119    1
    74   167   168    1
    75   167   164    1
    76   163   164    1
    77    68    70   ar
    78   116   119    1
    79   116   115    1
    80   164   165    1
    81   166   165    2
    82     8     7    1
    83     8     9    2
    84    56    55    2
    85    11     9    1
    86     6     7    1
    87     6     5    1
    88   113   112    2
    89     5     2    1
    90     9    10    1
    91    55    54    1
    92     2     3    1
    93     2     1    1
    94   109   108   ar
    95   109   107   ar
    96     3     4    2
    97    59    58    1
    98    57    54    1
    99    57    58    1
   100   108   106   ar
   101   107   105   ar
   102   112   111    1
   103    54    53    1
   104    20    18   ar
   105    20    22   ar
   106    58    60    1
   107   111   114    1
   108   111   110    1
   109    18    17   ar
   110   106   104   ar
   111    22    21   ar
   112    15    14    2
   113   102   101    2
   114    53    47   am
   115   105   104   ar
   116   104   103    1
   117   101   110   am
   118   101   100    1
   119    14    13    1
   120    13    12    1
   121    13    16    1
   122    17    16    1
   123    17    19   ar
   124    21    19   ar
   125    47    48    2
   126    47    46    1
   127    45    46    1
   128    34    33    2
   129    35    36    1
   130    35    32    1
   131   100   103    1
   132   100    99    1
   133    46    49    1
   134    49    50    1
   135    32    33    1
   136    32    31    1
   137    33    37   am
   138    98    96    1
   139    94    93    2
   140    42    44    1
   141    42    41    1
   142    37    38    1
   143    50    51    1
   144    50    52    1
   145    38    41    1
   146    38    39    1
   147    97    95    1
   148    93    92    1
   149    96    95    1
   150    41    43    1
   151    40    39    2
   152    72    73    1
   153    92    95    1
   154    92    91    1
   155    79    81   ar
   156    79    77   ar
   157    73    76    1
   158    73    74    1
   159    86    85    2
   160    76    77    1
   161    81    82   ar
   162    77    78   ar
   163    91    85   am
   164    85    84    1
   165    74    75    2
   166    82    80   ar
   167    89    87    1
   168    30    29    1
   169    78    80   ar
   170    84    87    1
   171    84    83    1
   172    26    25    2
   173    87    88    1
   174    27    28    1
   175    27    24    1
   176    28    29    1
   177    25    24    1
   178    88    90    1
   179    24    23    1
