@<TRIPOS>MOLECULE
tmp/4d79C00.pdb
 175 166 0 0 0
SMALL
GASTEIGER

@<TRIPOS>ATOM
      1  N          1.4300   63.6930   77.3190 N.3    35  VAL35      -0.1231
      2  CA         2.5630   63.0260   77.9500 C.3    35  VAL35       0.1692
      3  C          2.0550   61.7520   78.6220 C.2    35  VAL35       0.2592
      4  O          1.2750   61.8070   79.5760 O.2    35  VAL35      -0.2718
      5  CB         3.2760   63.9610   78.9440 C.3    35  VAL35       0.0266
      6  CG1        4.5820   63.3250   79.3580 C.3    35  VAL35       0.0020
      7  CG2        3.5240   65.2850   78.3030 C.3    35  VAL35       0.0020
      8  N          2.5180   60.6010   78.1370 N.am   36  GLY36      -0.1957
      9  CA         2.0540   59.3020   78.6110 C.3    36  GLY36       0.1869
     10  C          0.9820   58.7670   77.6930 C.2    36  GLY36       0.2309
     11  O         -0.1110   59.3280   77.6390 O.2    36  GLY36      -0.2863
     12  N         -0.6460   55.8380   77.5350 N.3    38  GLY38      -0.1210
     13  CA        -1.0880   54.5730   78.1090 C.3    38  GLY38       0.1956
     14  C         -2.5900   54.4370   78.2580 C.2    38  GLY38       0.2612
     15  O         -3.3480   54.8170   77.3750 O.2    38  GLY38      -0.2717
     16  N         -3.0180   53.9020   79.4070 N.am   39  GLY39      -0.1942
     17  CA        -4.4160   53.5980   79.6270 C.3    39  GLY39       0.2014
     18  C         -5.3050   54.8170   79.5600 C.2    39  GLY39       0.2638
     19  O         -6.4880   54.6960   79.2200 O.2    39  GLY39      -0.2714
     20  N         -4.7550   55.9890   79.8970 N.am   40  VAL40      -0.1977
     21  CA        -5.4790   57.2740   79.8150 C.3    40  VAL40       0.1596
     22  C         -5.0820   58.0680   78.5750 C.2    40  VAL40       0.2287
     23  O         -5.9410   58.4950   77.7900 O.2    40  VAL40      -0.2864
     24  CB        -5.2380   58.0930   81.1060 C.3    40  VAL40       0.0276
     25  CG1       -5.8170   59.4850   80.9660 C.3    40  VAL40       0.0022
     26  CG2       -5.8510   57.3550   82.3370 C.3    40  VAL40       0.0022
     27  N          4.4610   62.1710   73.8820 N.3    59  ILE59      -0.1231
     28  CA         5.7070   61.9120   74.6160 C.3    59  ILE59       0.1692
     29  C          5.5760   60.6100   75.4090 C.2    59  ILE59       0.2592
     30  O          4.8770   60.5600   76.4220 O.2    59  ILE59      -0.2718
     31  CB         6.0570   63.0730   75.5460 C.3    59  ILE59       0.0266
     32  CG1        6.0020   64.3990   74.7510 C.3    59  ILE59       0.0019
     33  CG2        7.4160   62.8380   76.1790 C.3    59  ILE59       0.0020
     34  CD1        6.5520   65.6220   75.4930 C.3    59  ILE59       0.0001
     35  N          6.3350   59.5920   75.0030 N.am   60  ASP60      -0.1960
     36  CA         6.3880   58.3150   75.7140 C.3    60  ASP60       0.1840
     37  C          7.5570   57.5150   75.1350 C.2    60  ASP60       0.2622
     38  O          7.7960   57.5510   73.9250 O.2    60  ASP60      -0.2715
     39  CB         5.0500   57.5470   75.5700 C.3    60  ASP60       0.1450
     40  CG         4.8010   56.5190   76.6850 C.2    60  ASP60       0.3671
     41  OD1        5.7670   55.8470   77.1210 O.co2  60  ASP60      -0.2456
     42  OD2        3.6170   56.3510   77.1020 O.co2  60  ASP60      -0.2456
     43  N          8.2490   56.7520   75.9690 N.am   61  MET61      -0.1963
     44  CA         9.2880   55.8890   75.4140 C.3    61  MET61       0.1736
     45  C          8.9810   54.4140   75.5800 C.2    61  MET61       0.2616
     46  O          9.8100   53.5800   75.2020 O.2    61  MET61      -0.2715
     47  CB        10.6480   56.1880   76.0550 C.3    61  MET61       0.0427
     48  CG        10.8550   55.7220   77.4710 C.3    61  MET61       0.0599
     49  SD        12.5000   56.2160   78.0580 S.3    61  MET61      -0.1393
     50  CE        13.4960   55.9030   76.6460 C.3    61  MET61       0.0692
     51  N          7.7890   54.0610   76.0370 N.am   62  ASP62      -0.1971
     52  CA         7.4970   52.6630   76.3100 C.3    62  ASP62       0.1709
     53  C          7.0310   51.9410   75.0510 C.2    62  ASP62       0.2293
     54  O          6.6590   52.5560   74.0440 O.2    62  ASP62      -0.2864
     55  CB         6.4470   52.5210   77.4150 C.3    62  ASP62       0.1436
     56  CG         6.4130   51.1140   78.0240 C.2    62  ASP62       0.3671
     57  OD1        7.3650   50.3250   77.8100 O.co2  62  ASP62      -0.2456
     58  OD2        5.4190   50.7900   78.7110 O.co2  62  ASP62      -0.2456
     59  N          2.7830   46.4840   74.9860 N.3    65  CYS65      -0.1235
     60  CA         2.8650   45.1790   75.6240 C.3    65  CYS65       0.1677
     61  C          1.5000   44.4990   75.6040 C.2    65  CYS65       0.2270
     62  O          0.4580   45.1590   75.7090 O.2    65  CYS65      -0.2867
     63  CB         3.3580   45.3030   77.0630 C.3    65  CYS65       0.0956
     64  SG         5.0000   46.0100   77.1830 S.3    65  CYS65      -0.0801
     65  N          0.0130   42.9190   77.7860 N.3    67  THR67      -0.1203
     66  CA        -0.7590   43.2440   78.9800 C.3    67  THR67       0.1994
     67  C         -1.4220   44.6300   78.8980 C.2    67  THR67       0.2617
     68  O         -2.2010   44.9810   79.7890 O.2    67  THR67      -0.2717
     69  CB         0.1400   43.1870   80.2290 C.3    67  THR67       0.1784
     70  OG1        1.1600   44.1680   80.1140 O.3    67  THR67      -0.2211
     71  CG2        0.7870   41.7860   80.4080 C.3    67  THR67       0.0376
     72  N         -1.1100   45.4360   77.8770 N.am   68  ASN68      -0.1974
     73  CA        -1.8070   46.7000   77.6580 C.3    68  ASN68       0.1688
     74  C         -3.2120   46.5160   77.1130 C.2    68  ASN68       0.2292
     75  O         -3.9740   47.4940   77.0670 O.2    68  ASN68      -0.2864
     76  CB        -1.0940   47.6080   76.6400 C.3    68  ASN68       0.1181
     77  CG         0.3410   48.0140   77.0150 C.2    68  ASN68       0.2629
     78  OD1        1.0690   48.4220   76.1240 O.2    68  ASN68      -0.2716
     79  ND2        0.7220   47.9710   78.2850 N.am   68  ASN68      -0.0877
     80  N         -6.8270   48.0590   78.1660 N.3    71  ARG71      -0.1231
     81  CA        -7.0870   49.4650   78.4410 C.3    71  ARG71       0.1694
     82  C         -6.4010   50.4660   77.5250 C.2    71  ARG71       0.2591
     83  O         -6.5170   51.6570   77.8130 O.2    71  ARG71      -0.2718
     84  CB        -6.6550   49.7880   79.8870 C.3    71  ARG71       0.0321
     85  CG        -5.1700   49.7080   80.1270 C.3    71  ARG71       0.0489
     86  CD        -4.8580   49.4120   81.5490 C.3    71  ARG71       0.2205
     87  NE        -3.4420   49.5790   81.8340 N.pl3  71  ARG71      -0.0865
     88  CZ        -2.5010   48.6630   81.6360 C.cat  71  ARG71       0.5346
     89  NH1       -2.7900   47.4810   81.1230 N.pl3  71  ARG71       0.1354
     90  NH2       -1.2530   48.9470   81.9520 N.pl3  71  ARG71       0.1354
     91  N         -5.7300   50.0640   76.4340 N.am   72  GLN72      -0.1979
     92  CA        -4.9730   50.9990   75.6030 C.3    72  GLN72       0.1601
     93  C         -5.3050   50.7820   74.1310 C.2    72  GLN72       0.2287
     94  O         -5.2160   49.6520   73.6180 O.2    72  GLN72      -0.2864
     95  CB        -3.4600   50.8560   75.8850 C.3    72  GLN72       0.0394
     96  CG        -3.1730   50.9880   77.3690 C.3    72  GLN72       0.0908
     97  CD        -1.6920   51.0290   77.7410 C.2    72  GLN72       0.2608
     98  OE1       -0.8270   51.3490   76.9260 O.2    72  GLN72      -0.2717
     99  NE2       -1.4040   50.6660   78.9800 N.am   72  GLN72      -0.0878
    100  N          4.7620   52.7900   71.6590 N.3    84  LYS84      -0.1245
    101  CA         3.3870   53.2510   71.8060 C.3    84  LYS84       0.1561
    102  C          3.1870   54.5800   71.1010 C.2    84  LYS84       0.2260
    103  O          2.1890   54.7880   70.3950 O.2    84  LYS84      -0.2867
    104  CB         3.0360   53.4250   73.2840 C.3    84  LYS84       0.0271
    105  CG         2.9960   52.2310   74.1360 C.3    84  LYS84       0.0035
    106  CD         2.6800   52.6650   75.5630 C.3    84  LYS84       0.0206
    107  CE         2.5280   51.4450   76.4310 C.3    84  LYS84       0.1093
    108  NZ         2.1260   51.7350   77.8080 N.3    84  LYS84      -0.1314
    109  N         10.8150   59.5040   74.6270 N.3   106  ASP106     -0.1225
    110  CA        11.5190   59.8130   75.8640 C.3   106  ASP106      0.1805
    111  C         10.5110   59.8760   77.0070 C.2   106  ASP106      0.2598
    112  O          9.2990   59.8720   76.7930 O.2   106  ASP106     -0.2718
    113  CB        12.2740   61.1300   75.7390 C.3   106  ASP106      0.1424
    114  CG        13.4780   61.2120   76.6760 C.2   106  ASP106      0.3668
    115  OD1       13.7200   60.2400   77.4060 O.co2 106  ASP106     -0.2456
    116  OD2       14.1870   62.2420   76.6770 O.co2 106  ASP106     -0.2456
    117  N         11.0260   59.8890   78.2310 N.am  107  PHE107     -0.1962
    118  CA        10.2230   60.2190   79.4010 C.3   107  PHE107      0.1771
    119  C         10.6720   61.5710   79.9400 C.2   107  PHE107      0.2619
    120  O         11.8250   61.9640   79.7790 O.2   107  PHE107     -0.2715
    121  CB        10.2700   59.1150   80.4770 C.3   107  PHE107      0.0574
    122  CG        11.5580   58.9840   81.2120 C.ar  107  PHE107     -0.0200
    123  CD1       12.5580   58.1610   80.7350 C.ar  107  PHE107     -0.0042
    124  CD2       11.7400   59.6180   82.4270 C.ar  107  PHE107     -0.0042
    125  CE1       13.7400   58.0070   81.4270 C.ar  107  PHE107     -0.0003
    126  CE2       12.9150   59.4680   83.1300 C.ar  107  PHE107     -0.0003
    127  CZ        13.9180   58.6600   82.6300 C.ar  107  PHE107     -0.0000
    128  N          9.7270   62.2990   80.5260 N.am  108  VAL108     -0.1977
    129  CA         9.9800   63.6230   81.0920 C.3   108  VAL108      0.1596
    130  C         10.7290   63.5190   82.4110 C.2   108  VAL108      0.2287
    131  O         10.3550   62.7410   83.2950 O.2   108  VAL108     -0.2864
    132  CB         8.6410   64.3690   81.2810 C.3   108  VAL108      0.0276
    133  CG1        8.8400   65.6620   82.1050 C.3   108  VAL108      0.0022
    134  CG2        8.0600   64.6880   79.9350 C.3   108  VAL108      0.0022
    135  N         -0.8340   62.5840   81.3410 N.3   127  ALA127     -0.1231
    136  CA        -1.3800   61.2410   81.5460 C.3   127  ALA127      0.1694
    137  C         -0.2770   60.3020   82.0200 C.2   127  ALA127      0.2592
    138  O         -0.2500   59.1260   81.6790 O.2   127  ALA127     -0.2718
    139  CB        -2.0310   60.7410   80.2610 C.3   127  ALA127      0.0304
    140  N          0.6460   60.8360   82.7860 N.am  128  ILE128     -0.1966
    141  CA         1.7700   60.0800   83.3220 C.3   128  ILE128      0.1727
    142  C          1.3080   59.2920   84.5410 C.2   128  ILE128      0.2616
    143  O          0.6430   59.8300   85.4290 O.2   128  ILE128     -0.2715
    144  CB         2.9190   61.0380   83.6990 C.3   128  ILE128      0.0290
    145  CG1        3.4650   61.7640   82.4740 C.3   128  ILE128      0.0022
    146  CG2        4.0510   60.2780   84.4010 C.3   128  ILE128      0.0023
    147  CD1        4.2870   62.9380   82.8230 C.3   128  ILE128      0.0001
    148  N          1.7900   58.0510   84.6630 N.am  129  ASP129     -0.1957
    149  CA         1.3960   57.1770   85.7630 C.3   129  ASP129      0.1840
    150  C          2.3530   57.1890   86.9560 C.2   129  ASP129      0.2622
    151  O          1.9740   56.6840   88.0180 O.2   129  ASP129     -0.2715
    152  CB         1.3090   55.7270   85.2660 C.3   129  ASP129      0.1450
    153  CG         2.6790   55.1420   84.9570 C.2   129  ASP129      0.3671
    154  OD1        3.6060   55.9090   84.6300 O.co2 129  ASP129     -0.2456
    155  OD2        2.8350   53.9030   85.0470 O.co2 129  ASP129     -0.2456
    156  N          3.5870   57.6810   86.7940 N.am  130  SER130     -0.1950
    157  CA         4.6140   57.6980   87.8380 C.3   130  SER130      0.1924
    158  C          4.8290   59.1050   88.3910 C.2   130  SER130      0.2314
    159  O          4.9510   60.0650   87.6290 O.2   130  SER130     -0.2863
    160  CB         5.9500   57.1620   87.3180 C.3   130  SER130      0.2116
    161  OG         6.2520   57.6730   86.0360 O.3   130  SER130     -0.2180
    162  N          8.0920   61.9530   87.3380 N.3   133  PRO133     -0.2116
    163  CA         7.9670   62.7630   86.1190 C.3   133  PRO133      0.1372
    164  C          6.7040   63.6070   86.1020 C.2   133  PRO133      0.2244
    165  O          6.7220   64.7490   85.6170 O.2   133  PRO133     -0.2868
    166  CB         7.9850   61.7030   85.0170 C.3   133  PRO133      0.0268
    167  CG         7.4920   60.4260   85.6990 C.3   133  PRO133      0.0207
    168  CD         8.0430   60.5080   87.0710 C.3   133  PRO133      0.0892
    169  N        -10.5980   54.0650   82.0850 N.3   221  THR221     -0.1218
    170  CA        -9.3620   54.7820   81.7630 C.3   221  THR221      0.1862
    171  C         -9.5450   55.6530   80.5200 C.2   221  THR221      0.2287
    172  O         -9.0310   56.7790   80.4610 O.2   221  THR221     -0.2866
    173  CB        -8.1780   53.8130   81.5750 C.3   221  THR221      0.1770
    174  OG1       -8.3640   52.9950   80.4170 O.3   221  THR221     -0.2211
    175  CG2       -8.0060   52.8730   82.8010 C.3   221  THR221      0.0375
@<TRIPOS>BOND
     1   103   102    2
     2   102   101    1
     3   100   101    1
     4   101   104    1
     5   104   105    1
     6    94    93    2
     7    27    28    1
     8    38    37    2
     9    54    53    2
    10    93    92    1
    11   105   106    1
    12    28    29    1
    13    28    31    1
    14   109   110    1
    15    32    34    1
    16    32    31    1
    17    59    60    1
    18    35    29   am
    19    35    36    1
    20    53    52    1
    21    37    36    1
    22    37    43   am
    23    46    45    2
    24    29    30    2
    25    44    45    1
    26    44    43    1
    27    44    47    1
    28    31    33    1
    29   106   107    1
    30    39    36    1
    31    39    40    1
    32    45    51   am
    33    92    95    1
    34    92    91    1
    35    61    60    1
    36    61    62    2
    37    60    63    1
    38   113   110    1
    39   113   114    1
    40   110   111    1
    41    95    96    1
    42    51    52    1
    43    47    48    1
    44    78    77    2
    45    52    55    1
    46   107   108    1
    47    91    82   am
    48    76    77    1
    49    76    73    1
    50    50    49    1
    51   114   116   ar
    52   114   115   ar
    53    40    42   ar
    54    40    41   ar
    55   112   111    2
    56    98    97    2
    57   111   117   am
    58    77    79   am
    59    63    64    1
    60    75    74    2
    61    74    73    1
    62     1     2    1
    63    96    97    1
    64    15    14    2
    65    55    56    1
    66    48    49    1
    67    82    83    2
    68    82    81    1
    69    12    13    1
    70    11    10    2
    71    73    72    1
    72    10     9    1
    73    97    99   am
    74    65    66    1
    75    23    22    2
    76    57    56   ar
    77    72    67   am
    78     2     3    1
    79     2     5    1
    80    56    58   ar
    81    13    14    1
    82     8     9    1
    83     8     3   am
    84    80    81    1
    85   117   118    1
    86    14    16   am
    87     7     5    1
    88    81    84    1
    89    22    21    1
    90     3     4    2
    91    67    66    1
    92    67    68    2
    93     5     6    1
    94    66    69    1
    95    19    18    2
    96   118   119    1
    97   118   121    1
    98    16    17    1
    99    18    17    1
   100    18    20   am
   101   120   119    2
   102    21    20    1
   103    21    24    1
   104    84    85    1
   105   134   132    1
   106   119   128   am
   107    70    69    1
   108    85    86    1
   109    69    71    1
   110   139   136    1
   111   174   173    1
   112   172   171    2
   113   121   122    1
   114   171   170    1
   115   128   129    1
   116   123   122   ar
   117   123   125   ar
   118    25    24    1
   119   129   132    1
   120   129   130    1
   121    24    26    1
   122    89    88    1
   123   122   124   ar
   124   132   133    1
   125   135   136    1
   126   125   127   ar
   127   136   137    1
   128    86    87    1
   129   173   170    1
   130   173   175    1
   131    88    87    2
   132    88    90    1
   133   138   137    2
   134   170   169    1
   135   137   140   am
   136   130   131    2
   137   124   126   ar
   138   145   147    1
   139   145   144    1
   140   127   126   ar
   141   140   141    1
   142   141   144    1
   143   141   142    1
   144   144   146    1
   145   142   148   am
   146   142   143    2
   147   154   153   ar
   148   148   149    1
   149   153   155   ar
   150   153   152    1
   151   166   167    1
   152   166   163    1
   153   152   149    1
   154   165   164    2
   155   167   168    1
   156   149   150    1
   157   161   160    1
   158   164   163    1
   159   163   162    1
   160   156   150   am
   161   156   157    1
   162   150   151    2
   163   168   162    1
   164   160   157    1
   165   159   158    2
   166   157   158    1
