@<TRIPOS>MOLECULE
tmp/4d7aA00.pdb
 147 141 0 0 0
SMALL
GASTEIGER

@<TRIPOS>ATOM
      1  N         24.3340   -5.7800   -5.8460 N.3    35  VAL35      -0.1231
      2  CA        24.9090   -7.1220   -5.8220 C.3    35  VAL35       0.1692
      3  C         23.8640   -8.1000   -5.3120 C.2    35  VAL35       0.2593
      4  O         23.4610   -8.0180   -4.1550 O.2    35  VAL35      -0.2718
      5  CB        26.1860   -7.1850   -4.9400 C.3    35  VAL35       0.0266
      6  CG1       26.8750   -8.5240   -5.1260 C.3    35  VAL35       0.0020
      7  CG2       27.1540   -6.0370   -5.2960 C.3    35  VAL35       0.0020
      8  N         23.4340   -9.0210   -6.1820 N.am   36  GLY36      -0.1942
      9  CA        22.3700   -9.9620   -5.8740 C.3    36  GLY36       0.2014
     10  C         21.0600   -9.4070   -6.4130 C.2    36  GLY36       0.2639
     11  O         20.5810   -8.3770   -5.9470 O.2    36  GLY36      -0.2714
     12  N         20.5070  -10.0650   -7.4270 N.am   37  ILE37      -0.1963
     13  CA        19.2990   -9.5740   -8.0860 C.3    37  ILE37       0.1727
     14  C         18.1340  -10.5360   -7.8070 C.2    37  ILE37       0.2617
     15  O         17.4930  -11.0560   -8.7240 O.2    37  ILE37      -0.2715
     16  CB        19.5460   -9.4070   -9.6060 C.3    37  ILE37       0.0290
     17  CG1       20.8830   -8.6880   -9.8540 C.3    37  ILE37       0.0022
     18  CG2       18.4170   -8.6070  -10.2610 C.3    37  ILE37       0.0023
     19  CD1       20.9760   -7.2920   -9.2170 C.3    37  ILE37       0.0001
     20  N         17.8860  -10.7860   -6.5260 N.am   38  GLY38      -0.1940
     21  CA        16.8980  -11.7650   -6.1120 C.3    38  GLY38       0.2014
     22  C         15.7040  -11.1030   -5.4640 C.2    38  GLY38       0.2639
     23  O         15.2360  -10.0640   -5.9320 O.2    38  GLY38      -0.2714
     24  N         15.2200  -11.7010   -4.3760 N.am   39  GLY39      -0.1939
     25  CA        14.0170  -11.2310   -3.6910 C.3    39  GLY39       0.2014
     26  C         14.1000   -9.7960   -3.1970 C.2    39  GLY39       0.2638
     27  O         13.0770   -9.0790   -3.1140 O.2    39  GLY39      -0.2714
     28  N         15.3120   -9.3810   -2.8420 N.am   40  VAL40      -0.1977
     29  CA        15.5560   -8.0000   -2.4200 C.3    40  VAL40       0.1596
     30  C         16.1280   -7.1450   -3.5420 C.2    40  VAL40       0.2287
     31  O         15.6240   -6.0570   -3.8360 O.2    40  VAL40      -0.2864
     32  CB        16.5280   -7.9520   -1.2040 C.3    40  VAL40       0.0276
     33  CG1       16.9180   -6.5010   -0.8650 C.3    40  VAL40       0.0022
     34  CG2       15.8690   -8.6210    0.0030 C.3    40  VAL40       0.0022
     35  N         25.0460   -7.2860  -10.3830 N.3    59  ILE59      -0.1231
     36  CA        25.9510   -8.4400  -10.2630 C.3    59  ILE59       0.1692
     37  C         25.2150   -9.6820   -9.7680 C.2    59  ILE59       0.2592
     38  O         24.7310   -9.7060   -8.6400 O.2    59  ILE59      -0.2718
     39  CB        27.1320   -8.1300   -9.3210 C.3    59  ILE59       0.0266
     40  CG1       27.8160   -6.8300   -9.7530 C.3    59  ILE59       0.0019
     41  CG2       28.1360   -9.2910   -9.3210 C.3    59  ILE59       0.0020
     42  CD1       29.1190   -6.5080   -9.0050 C.3    59  ILE59       0.0001
     43  N         25.1120  -10.6990  -10.6250 N.am   60  ASP60      -0.1974
     44  CA        24.4680  -11.9680  -10.2660 C.3    60  ASP60       0.1709
     45  C         24.7820  -12.9750  -11.3630 C.2    60  ASP60       0.2293
     46  O         24.8880  -12.6040  -12.5310 O.2    60  ASP60      -0.2864
     47  CB        22.9430  -11.7980  -10.1250 C.3    60  ASP60       0.1436
     48  CG        22.3000  -12.8220   -9.1810 C.2    60  ASP60       0.3671
     49  OD1       22.7090  -14.0030   -9.1380 O.co2  60  ASP60      -0.2456
     50  OD2       21.3480  -12.4360   -8.4670 O.co2  60  ASP60      -0.2456
     51  N         22.9670  -16.0650  -11.3610 N.3    62  ASP62      -0.1239
     52  CA        21.8330  -17.0010  -11.3730 C.3    62  ASP62       0.1674
     53  C         20.8350  -16.7770  -12.5120 C.2    62  ASP62       0.2266
     54  O         20.7380  -15.6820  -13.0640 O.2    62  ASP62      -0.2867
     55  CB        21.0830  -16.9340  -10.0390 C.3    62  ASP62       0.1410
     56  CG        21.7120  -17.8040   -8.9710 C.2    62  ASP62       0.3668
     57  OD1       22.7630  -18.4150   -9.2480 O.co2  62  ASP62      -0.2456
     58  OD2       21.1530  -17.8810   -7.8570 O.co2  62  ASP62      -0.2456
     59  N          8.4770  -13.6790   -5.3210 N.3    71  ARG71      -0.1231
     60  CA         9.2030  -12.5550   -4.7020 C.3    71  ARG71       0.1694
     61  C         10.1950  -11.7700   -5.5650 C.2    71  ARG71       0.2591
     62  O         10.9190  -10.9300   -5.0260 O.2    71  ARG71      -0.2718
     63  CB         9.9500  -13.0730   -3.4750 C.3    71  ARG71       0.0321
     64  CG        11.1240  -14.0190   -3.8490 C.3    71  ARG71       0.0489
     65  CD        11.5580  -14.8920   -2.6810 C.3    71  ARG71       0.2205
     66  NE        12.7830  -15.6400   -2.9780 N.pl3  71  ARG71      -0.0865
     67  CZ        12.8100  -16.7800   -3.6620 C.cat  71  ARG71       0.5346
     68  NH1       11.6850  -17.3040   -4.1260 N.pl3  71  ARG71       0.1354
     69  NH2       13.9680  -17.3910   -3.8860 N.pl3  71  ARG71       0.1354
     70  N         10.2660  -12.0370   -6.8740 N.am   72  GLN72      -0.1979
     71  CA        11.2780  -11.3800   -7.7150 C.3    72  GLN72       0.1601
     72  C         10.6330  -10.7740   -8.9650 C.2    72  GLN72       0.2287
     73  O          9.8610  -11.4410   -9.6580 O.2    72  GLN72      -0.2864
     74  CB        12.3930  -12.3790   -8.0920 C.3    72  GLN72       0.0394
     75  CG        12.9470  -13.0930   -6.8510 C.3    72  GLN72       0.0908
     76  CD        14.1720  -13.9560   -7.0810 C.2    72  GLN72       0.2608
     77  OE1       14.8670  -13.8370   -8.0840 O.2    72  GLN72      -0.2717
     78  NE2       14.4420  -14.8390   -6.1250 N.am   72  GLN72      -0.0878
     79  N         19.1270  -13.6980  -14.6580 N.3    84  LYS84      -0.1245
     80  CA        18.3990  -12.6770  -13.8990 C.3    84  LYS84       0.1561
     81  C         18.9230  -11.2790  -14.1950 C.2    84  LYS84       0.2260
     82  O         18.1530  -10.3420  -14.4160 O.2    84  LYS84      -0.2867
     83  CB        18.5380  -12.9220  -12.3950 C.3    84  LYS84       0.0271
     84  CG        17.8270  -14.1220  -11.8480 C.3    84  LYS84       0.0035
     85  CD        18.0800  -14.1870  -10.3540 C.3    84  LYS84       0.0206
     86  CE        17.3670  -15.3630   -9.7200 C.3    84  LYS84       0.1093
     87  NZ        17.5300  -15.3590   -8.2500 N.3    84  LYS84      -0.1314
     88  N         28.5700  -12.9480  -12.6080 N.3   106  ASP106     -0.1225
     89  CA        29.5210  -13.5630  -11.6960 C.3   106  ASP106      0.1805
     90  C         28.9850  -13.4680  -10.2790 C.2   106  ASP106      0.2598
     91  O         28.0020  -12.7670  -10.0300 O.2   106  ASP106     -0.2718
     92  CB        30.8820  -12.8690  -11.7960 C.3   106  ASP106      0.1424
     93  CG        32.0310  -13.7650  -11.3810 C.2   106  ASP106      0.3668
     94  OD1       31.7730  -14.9160  -10.9790 O.co2 106  ASP106     -0.2456
     95  OD2       33.1920  -13.3080  -11.4500 O.co2 106  ASP106     -0.2456
     96  N         29.6180  -14.1850   -9.3580 N.am  107  PHE107     -0.1962
     97  CA        29.3480  -14.0130   -7.9350 C.3   107  PHE107      0.1771
     98  C         30.5490  -13.3310   -7.3080 C.2   107  PHE107      0.2619
     99  O         31.6790  -13.5490   -7.7420 O.2   107  PHE107     -0.2715
    100  CB        29.0970  -15.3570   -7.2380 C.3   107  PHE107      0.0574
    101  CG        27.8550  -16.0680   -7.6940 C.ar  107  PHE107     -0.0200
    102  CD1       26.6210  -15.4360   -7.6550 C.ar  107  PHE107     -0.0042
    103  CD2       27.9200  -17.3750   -8.1530 C.ar  107  PHE107     -0.0042
    104  CE1       25.4740  -16.0970   -8.0650 C.ar  107  PHE107     -0.0003
    105  CE2       26.7790  -18.0400   -8.5690 C.ar  107  PHE107     -0.0003
    106  CZ        25.5550  -17.4010   -8.5240 C.ar  107  PHE107     -0.0000
    107  N         30.3100  -12.5200   -6.2860 N.am  108  VAL108     -0.1977
    108  CA        31.4000  -11.8540   -5.5780 C.3   108  VAL108      0.1596
    109  C         32.1020  -12.8470   -4.6640 C.2   108  VAL108      0.2287
    110  O         31.4640  -13.6220   -3.9600 O.2   108  VAL108     -0.2864
    111  CB        30.9040  -10.6480   -4.7630 C.3   108  VAL108      0.0276
    112  CG1       32.0450  -10.0480   -3.9340 C.3   108  VAL108      0.0022
    113  CG2       30.3370   -9.5940   -5.6960 C.3   108  VAL108      0.0022
    114  N         22.7100   -7.0270   -1.6540 N.3   127  ALA127     -0.1231
    115  CA        21.4990   -7.8350   -1.5180 C.3   127  ALA127      0.1694
    116  C         21.8310   -9.3180   -1.6900 C.2   127  ALA127      0.2592
    117  O         21.0460  -10.0860   -2.2420 O.2   127  ALA127     -0.2718
    118  CB        20.4430   -7.3910   -2.5290 C.3   127  ALA127      0.0304
    119  N         23.0050   -9.7050   -1.1910 N.am  128  ILE128     -0.1966
    120  CA        23.4770  -11.0910   -1.2510 C.3   128  ILE128      0.1727
    121  C         22.8610  -11.8780   -0.1040 C.2   128  ILE128      0.2616
    122  O         22.8100  -11.3810    1.0190 O.2   128  ILE128     -0.2715
    123  CB        25.0230  -11.1870   -1.1330 C.3   128  ILE128      0.0290
    124  CG1       25.7230  -10.3830   -2.2290 C.3   128  ILE128      0.0022
    125  CG2       25.4860  -12.6370   -1.1540 C.3   128  ILE128      0.0023
    126  CD1       27.2160  -10.1970   -1.9630 C.3   128  ILE128      0.0001
    127  N         22.4270  -13.1080   -0.3610 N.am  129  ASP129     -0.1957
    128  CA        21.7200  -13.8630    0.6680 C.3   129  ASP129      0.1840
    129  C         22.5960  -14.8790    1.4120 C.2   129  ASP129      0.2622
    130  O         22.1320  -15.5120    2.3590 O.2   129  ASP129     -0.2715
    131  CB        20.5050  -14.5770    0.0530 C.3   129  ASP129      0.1450
    132  CG        20.8920  -15.6420   -0.9700 C.2   129  ASP129      0.3671
    133  OD1       22.0840  -15.7460   -1.3340 O.co2 129  ASP129     -0.2456
    134  OD2       19.9890  -16.3820   -1.4170 O.co2 129  ASP129     -0.2456
    135  N         23.8560  -15.0210    1.0030 N.am  130  SER130     -0.1950
    136  CA        24.7670  -15.9850    1.6280 C.3   130  SER130      0.1924
    137  C         25.9380  -15.3110    2.3470 C.2   130  SER130      0.2314
    138  O         26.5050  -14.3440    1.8520 O.2   130  SER130     -0.2863
    139  CB        25.2890  -16.9730    0.5820 C.3   130  SER130      0.2116
    140  OG        26.0360  -16.3170   -0.4230 O.3   130  SER130     -0.2180
    141  N         30.3300  -14.5770    0.8600 N.3   133  PRO133     -0.2116
    142  CA        30.5820  -13.4290   -0.0250 C.3   133  PRO133      0.1372
    143  C         30.0400  -12.1110    0.5260 C.2   133  PRO133      0.2244
    144  O         30.5590  -11.0480    0.2010 O.2   133  PRO133     -0.2868
    145  CB        29.8450  -13.8010   -1.3050 C.3   133  PRO133      0.0268
    146  CG        28.8010  -14.7690   -0.8780 C.3   133  PRO133      0.0207
    147  CD        29.3910  -15.5360    0.2500 C.3   133  PRO133      0.0892
@<TRIPOS>BOND
     1    79    80    1
     2    82    81    2
     3    81    80    1
     4    80    83    1
     5    54    53    2
     6    88    89    1
     7    46    45    2
     8    53    52    1
     9    83    84    1
    10    84    85    1
    11    92    89    1
    12    92    93    1
    13    89    90    1
    14    95    93   ar
    15    93    94   ar
    16    52    51    1
    17    52    55    1
    18    45    44    1
    19    43    44    1
    20    43    37   am
    21    35    36    1
    22    85    86    1
    23    90    91    2
    24    90    96   am
    25    44    47    1
    26    36    37    1
    27    36    39    1
    28    18    16    1
    29    47    48    1
    30    55    56    1
    31    17    16    1
    32    17    19    1
    33    37    38    2
    34    40    39    1
    35    40    42    1
    36    86    87    1
    37    73    72    2
    38    16    13    1
    39    96    97    1
    40    39    41    1
    41    57    56   ar
    42    48    49   ar
    43    48    50   ar
    44    56    58   ar
    45    72    71    1
    46    15    14    2
    47   105   106   ar
    48   105   103   ar
    49   106   104   ar
    50   103   101   ar
    51    74    71    1
    52    74    75    1
    53    13    14    1
    54    13    12    1
    55    77    76    2
    56   104   102   ar
    57    97    98    1
    58    97   100    1
    59    14    20   am
    60    99    98    2
    61    71    70    1
    62   101   102   ar
    63   101   100    1
    64    12    10   am
    65    98   107   am
    66    76    75    1
    67    76    78   am
    68    70    61   am
    69    20    21    1
    70    10    11    2
    71    10     9    1
    72   107   108    1
    73     8     9    1
    74     8     3   am
    75    21    22    1
    76    23    22    2
    77     1     2    1
    78     2     3    1
    79     2     5    1
    80   113   111    1
    81   108   111    1
    82   108   109    1
    83    61    62    2
    84    61    60    1
    85    22    24   am
    86    59    60    1
    87     3     4    2
    88     7     5    1
    89     6     5    1
    90   111   112    1
    91    60    63    1
    92   109   110    2
    93    24    25    1
    94    68    67    1
    95    69    67    1
    96    64    63    1
    97    64    65    1
    98    31    30    2
    99    25    26    1
   100    67    66    2
   101    30    29    1
   102    26    27    2
   103    26    28   am
   104    66    65    1
   105    28    29    1
   106   118   115    1
   107    29    32    1
   108   117   116    2
   109   124   126    1
   110   124   123    1
   111   116   115    1
   112   116   119   am
   113   114   115    1
   114   134   132   ar
   115   133   132   ar
   116   145   146    1
   117   145   142    1
   118   120   119    1
   119   120   123    1
   120   120   121    1
   121    32    33    1
   122    32    34    1
   123   125   123    1
   124   132   131    1
   125   146   147    1
   126   140   139    1
   127   127   121   am
   128   127   128    1
   129   121   122    2
   130   142   143    1
   131   142   141    1
   132   131   128    1
   133   144   143    2
   134   147   141    1
   135   139   136    1
   136   128   129    1
   137   135   129   am
   138   135   136    1
   139   129   130    2
   140   136   137    1
   141   138   137    2
