@<TRIPOS>MOLECULE
tmp/4d7bA00.pdb
 72 64 0 0 0
SMALL
GASTEIGER

@<TRIPOS>ATOM
      1  N        -11.0310    2.6260  -33.2310 N.3     4  MET4       -0.1245
      2  CA       -10.3160    1.3770  -33.3430 C.3     4  MET4        0.1570
      3  C        -10.0270    0.8930  -31.9110 C.2     4  MET4        0.2261
      4  O         -9.7230    1.7040  -31.0510 O.2     4  MET4       -0.2867
      5  CB        -9.0060    1.5280  -34.1630 C.3     4  MET4        0.0387
      6  CG        -8.2900    0.1690  -34.4630 C.3     4  MET4        0.0595
      7  SD        -7.0770   -0.3540  -33.2590 S.3     4  MET4       -0.1393
      8  CE        -5.5910    0.4910  -33.7370 C.3     4  MET4        0.0692
      9  N         -7.6920   -1.9130  -29.7230 N.3     6  LYS6       -0.1245
     10  CA        -6.5390   -2.8260  -29.7760 C.3     6  LYS6        0.1561
     11  C         -6.3270   -3.4480  -28.4400 C.2     6  LYS6        0.2260
     12  O         -6.3730   -2.7660  -27.3990 O.2     6  LYS6       -0.2867
     13  CB        -5.2820   -2.0050  -30.1920 C.3     6  LYS6        0.0271
     14  CG        -4.0540   -2.8420  -30.3690 C.3     6  LYS6        0.0035
     15  CD        -2.9730   -2.0560  -31.1440 C.3     6  LYS6        0.0206
     16  CE        -1.8260   -3.0280  -31.5440 C.3     6  LYS6        0.1093
     17  NZ        -1.0060   -2.3400  -32.5960 N.3     6  LYS6       -0.1314
     18  N         -3.9140   -6.2350  -26.1530 N.3     8  LEU8       -0.1245
     19  CA        -2.6530   -6.8980  -26.0100 C.3     8  LEU8        0.1561
     20  C         -2.6420   -7.7620  -24.7830 C.2     8  LEU8        0.2260
     21  O         -3.3850   -7.5050  -23.7960 O.2     8  LEU8       -0.2867
     22  CB        -1.5430   -5.8370  -25.8420 C.3     8  LEU8        0.0270
     23  CG        -1.1440   -5.0080  -27.0880 C.3     8  LEU8        0.0019
     24  CD1       -1.2740   -5.8980  -28.3170 C.3     8  LEU8        0.0001
     25  CD2       -2.0690   -3.8430  -27.2700 C.3     8  LEU8        0.0001
     26  N         -8.1030    5.5670  -30.8050 N.3    97  THR97      -0.1218
     27  CA        -7.6610    4.2010  -30.5860 C.3    97  THR97       0.1862
     28  C         -7.7610    3.9560  -29.1220 C.2    97  THR97       0.2287
     29  O         -7.1790    4.6960  -28.3260 O.2    97  THR97      -0.2866
     30  CB        -6.2330    4.0090  -31.0200 C.3    97  THR97       0.1770
     31  OG1       -6.1580    4.0900  -32.4600 O.3    97  THR97      -0.2211
     32  CG2       -5.6710    2.5750  -30.6040 C.3    97  THR97       0.0375
     33  N         -6.7640    1.3190  -26.4790 N.3    99  ALA99      -0.1245
     34  CA        -5.8480    0.1490  -26.2860 C.3    99  ALA99       0.1562
     35  C         -5.9890   -0.3480  -24.9240 C.2    99  ALA99       0.2260
     36  O         -6.0250    0.3830  -23.8840 O.2    99  ALA99      -0.2867
     37  CB        -4.4260    0.6430  -26.5870 C.3    99  ALA99       0.0290
     38  N         -4.2710   -3.3460  -22.3470 N.3   101  LEU101     -0.1245
     39  CA        -3.1740   -4.2740  -22.0460 C.3   101  LEU101      0.1561
     40  C         -3.6450   -5.1550  -20.9060 C.2   101  LEU101      0.2260
     41  O         -3.9210   -4.7230  -19.7750 O.2   101  LEU101     -0.2867
     42  CB        -1.9500   -3.4640  -21.6100 C.3   101  LEU101      0.0270
     43  CG        -0.7450   -4.3790  -21.2520 C.3   101  LEU101      0.0019
     44  CD1       -0.2800   -5.2220  -22.4160 C.3   101  LEU101      0.0001
     45  CD2        0.3630   -3.4580  -20.7150 C.3   101  LEU101      0.0001
     46  N         -4.8640   -2.3650  -18.0880 N.3   108  SER108     -0.1202
     47  CA        -4.7800   -0.9280  -18.2600 C.3   108  SER108      0.2020
     48  C         -5.3830   -0.6100  -19.5570 C.2   108  SER108      0.2619
     49  O         -5.4110   -1.4010  -20.5310 O.2   108  SER108     -0.2717
     50  CB        -3.3000   -0.5030  -18.2510 C.3   108  SER108      0.2103
     51  OG        -2.6920   -0.8570  -19.5190 O.3   108  SER108     -0.2182
     52  N         -5.8450    0.6540  -19.6500 N.am  109  THR109     -0.1938
     53  CA        -6.3780    1.0970  -20.8890 C.3   109  THR109      0.2028
     54  C         -5.9310    2.5460  -21.1800 C.2   109  THR109      0.2642
     55  O         -5.7170    3.3340  -20.1840 O.2   109  THR109     -0.2714
     56  CB        -7.8270    1.0180  -20.8600 C.3   109  THR109      0.1808
     57  OG1       -8.2310    1.2330  -22.1280 O.3   109  THR109     -0.2208
     58  CG2       -8.7010    1.8800  -19.8660 C.3   109  THR109      0.0379
     59  N         -5.6300    2.8160  -22.4010 N.am  110  THR110     -0.1950
     60  CA        -5.2410    4.1900  -22.7770 C.3   110  THR110      0.1897
     61  C         -6.0040    4.5230  -24.0090 C.2   110  THR110      0.2313
     62  O         -6.4880    3.7210  -24.8060 O.2   110  THR110     -0.2863
     63  CB        -3.6510    4.5200  -22.9120 C.3   110  THR110      0.1794
     64  OG1       -3.3800    5.8570  -22.8880 O.3   110  THR110     -0.2208
     65  CG2       -3.1020    3.7630  -24.1770 C.3   110  THR110      0.0378
     66  N         -5.5330    6.9500  -27.4450 N.3   112  VAL112     -0.1301
     67  CA        -4.6920    7.6740  -28.3720 C.3   112  VAL112      0.1246
     68  C         -5.6530    8.4290  -29.2830 C.3   112  VAL112      0.2009
     69  O         -6.3670    7.7510  -30.1140 O.3   112  VAL112     -0.2188
     70  CB        -3.7160    6.7940  -29.1240 C.3   112  VAL112      0.0202
     71  CG1       -2.7370    7.6260  -29.9840 C.3   112  VAL112      0.0016
     72  CG2       -2.9580    5.8670  -28.1190 C.3   112  VAL112      0.0016
@<TRIPOS>BOND
     1     6     5    1
     2     6     7    1
     3     5     2    1
     4     8     7    1
     5     2     1    1
     6     2     3    1
     7    17    16    1
     8    31    30    1
     9     3     4    2
    10    16    15    1
    11    15    14    1
    12    30    32    1
    13    30    27    1
    14    26    27    1
    15    27    28    1
    16    14    13    1
    17    13    10    1
    18    69    68    1
    19    71    70    1
    20    10     9    1
    21    10    11    1
    22    68    67    1
    23    70    67    1
    24    70    72    1
    25    28    29    2
    26    11    12    2
    27    67    66    1
    28    24    23    1
    29    25    23    1
    30    23    22    1
    31    37    34    1
    32    33    34    1
    33    34    35    1
    34    18    19    1
    35    19    22    1
    36    19    20    1
    37    35    36    2
    38    62    61    2
    39    20    21    2
    40    65    63    1
    41    61    60    1
    42    63    64    1
    43    63    60    1
    44    60    59    1
    45    44    43    1
    46    59    54   am
    47    38    39    1
    48    57    56    1
    49    39    42    1
    50    39    40    1
    51    42    43    1
    52    43    45    1
    53    54    53    1
    54    54    55    2
    55    40    41    2
    56    53    56    1
    57    53    52    1
    58    56    58    1
    59    49    48    2
    60    52    48   am
    61    48    47    1
    62    51    50    1
    63    47    50    1
    64    47    46    1
